REMARK  Name = ZINC17163111
REMARK  9 active torsions:
REMARK  status: ('A' for Active; 'I' for Inactive)
REMARK    1  A    between atoms: C_1  and  C_2
REMARK    2  A    between atoms: C_5  and  S_8
REMARK    3  A    between atoms: S_8  and  O_11
REMARK    4  A    between atoms: O_11  and  C_12
REMARK    5  A    between atoms: C_14  and  C_33
REMARK    6  A    between atoms: C_17  and  N_22
REMARK    7  A    between atoms: C_19  and  O_21
REMARK    8  A    between atoms: C_24  and  N_30
REMARK    9  A    between atoms: C_33  and  O_34
REMARK                            x       y       z     vdW  Elec       q    Type
REMARK                         _______ _______ _______ _____ _____    ______ ____
ROOT
ATOM      1  C   UNL     1      -5.228   0.395   2.046  0.00  0.00    +0.213 C 
ATOM      2  C   UNL     1      -4.090  -0.475   1.468  0.00  0.00    +0.180 C 
ATOM      3  O   UNL     1      -4.359  -0.539   0.050  0.00  0.00    -0.346 OA
ATOM      4  C   UNL     1      -4.787   0.791  -0.316  0.00  0.00    +0.255 C 
ATOM      5  C   UNL     1      -5.697   1.246   0.846  0.00  0.00    +0.198 C 
ENDROOT
BRANCH   4   6
ATOM      6  N   UNL     1      -3.632   1.683  -0.440  0.00  0.00    -0.268 N 
ATOM      7  C   UNL     1      -2.914   2.019   0.669  0.00  0.00    +0.129 A 
ATOM      8  C   UNL     1      -1.848   2.844   0.542  0.00  0.00    +0.182 A 
ATOM      9  C   UNL     1      -1.514   3.338  -0.736  0.00  0.00    +0.154 A 
ATOM     10  N   UNL     1      -2.239   2.978  -1.787  0.00  0.00    -0.176 NA
ATOM     11  C   UNL     1      -3.285   2.166  -1.647  0.00  0.00    +0.352 A 
ATOM     12  O   UNL     1      -3.940   1.855  -2.628  0.00  0.00    -0.244 OA
ATOM     13  N   UNL     1      -0.440   4.183  -0.893  0.00  0.00    -0.341 N 
ATOM     14  H   UNL     1      -0.183   4.566  -1.891  0.00  0.00    +0.144 HD
ATOM     15  H   UNL     1       0.162   4.475  -0.019  0.00  0.00    +0.144 HD
BRANCH   8  16
ATOM     16  N   UNL     1      -1.048   3.226   1.727  0.00  0.00    +0.061 N 
ATOM     17  O   UNL     1      -1.410   2.888   2.840  0.00  0.00    -0.126 OA
ATOM     18  O   UNL     1      -0.027   3.875   1.589  0.00  0.00    -0.126 OA
ENDBRANCH   8  16
ENDBRANCH   4   6
BRANCH   5  19
ATOM     19  O   UNL     1      -5.508   2.637   1.114  0.00  0.00    -0.385 OA
ATOM     20  H   UNL     1      -5.792   3.386   0.360  0.00  0.00    +0.210 HD
ENDBRANCH   5  19
BRANCH   1  21
ATOM     21  O   UNL     1      -6.294  -0.428   2.524  0.00  0.00    -0.226 OA
BRANCH  21  22
ATOM     22  S   UNL     1      -6.828  -0.020   3.889  0.00  0.00    +0.112 S 
ATOM     23  O   UNL     1      -7.732  -1.039   4.293  0.00  0.00    -0.142 OA
ATOM     24  O   UNL     1      -5.701   0.352   4.671  0.00  0.00    -0.142 OA
BRANCH  22  29
ATOM     25  C   UNL     1     -10.108   4.982   3.099  0.00  0.00    +0.044 C 
ATOM     26  C   UNL     1      -9.289   3.733   3.297  0.00  0.00    -0.050 A 
ATOM     27  C   UNL     1      -9.890   2.491   3.206  0.00  0.00    +0.005 A 
ATOM     28  C   UNL     1      -9.138   1.345   3.387  0.00  0.00    +0.030 A 
ATOM     29  C   UNL     1      -7.786   1.441   3.659  0.00  0.00    +0.117 A 
ATOM     30  C   UNL     1      -7.187   2.683   3.756  0.00  0.00    +0.030 A 
ATOM     31  C   UNL     1      -7.938   3.828   3.570  0.00  0.00    +0.005 A 
ENDBRANCH  22  29
ENDBRANCH  21  22
ENDBRANCH   1  21
BRANCH   2  32
ATOM     32  C   UNL     1      -4.126  -1.876   2.081  0.00  0.00    +0.190 C 
BRANCH  32  33
ATOM     33  O   UNL     1      -3.062  -2.661   1.538  0.00  0.00    -0.392 OA
ATOM     34  H   UNL     1      -2.928  -3.704   1.862  0.00  0.00    +0.210 HD
ENDBRANCH  32  33
ENDBRANCH   2  32
TORSDOF 8
