REMARK  Name = ZINC47685466
REMARK  5 active torsions:
REMARK  status: ('A' for Active; 'I' for Inactive)
REMARK    1  A    between atoms: C_9  and  C_12
REMARK    2  A    between atoms: N_14  and  N_15
REMARK    3  A    between atoms: C_16  and  C_18
REMARK    4  A    between atoms: C_18  and  C_19
REMARK    5  A    between atoms: C_19  and  C_20
REMARK                            x       y       z     vdW  Elec       q    Type
REMARK                         _______ _______ _______ _____ _____    ______ ____
ROOT
ATOM      1  C   UNL     1       6.193   1.697  -0.048  0.00  0.00    +0.268 C 
ATOM      2  O   UNL     1       6.481   2.879  -0.045  0.00  0.00    -0.268 OA
ATOM      3  N   UNL     1       7.167   0.766  -0.063  0.00  0.00    -0.230 N 
ATOM      4  H   UNL     1       6.938  -0.176  -0.066  0.00  0.00    +0.173 HD
ENDROOT
BRANCH   1  13
ATOM      5  C   UNL     1      -0.017   1.387   0.010  0.00  0.00    +0.039 A 
ATOM      6  C   UNL     1       1.130   2.114   0.003  0.00  0.00    +0.013 A 
ATOM      7  C   UNL     1       2.396   1.474  -0.013  0.00  0.00    +0.008 A 
ATOM      8  C   UNL     1       2.386   0.059  -0.020  0.00  0.00    +0.024 A 
ATOM      9  C   UNL     1       1.215  -0.667  -0.013  0.00  0.00    +0.054 A 
ATOM     10  C   UNL     1       0.002  -0.004   0.002  0.00  0.00    +0.124 A 
ATOM     11  F   UNL     1      -1.155  -0.701   0.010  0.00  0.00    -0.205 F 
ATOM     12  S   UNL     1       4.109  -0.367  -0.040  0.00  0.00    -0.082 S 
ATOM     13  C   UNL     1       4.784   1.285  -0.038  0.00  0.00    +0.095 A 
ATOM     14  C   UNL     1       3.672   2.068  -0.022  0.00  0.00    +0.068 A 
ATOM     15 CL   UNL     1       3.826   3.798  -0.014  0.00  0.00    -0.082 Cl
ENDBRANCH   1  13
BRANCH   3  16
ATOM     16  N   UNL     1       8.512   1.159  -0.073  0.00  0.00    -0.234 N 
ATOM     17  C   UNL     1       9.486   0.229  -0.087  0.00  0.00    +0.229 C 
ATOM     18  O   UNL     1       9.199  -0.950  -0.091  0.00  0.00    -0.274 OA
ATOM     19  H   UNL     1       8.742   2.102  -0.070  0.00  0.00    +0.173 HD
BRANCH  17  20
ATOM     20  C   UNL     1      10.933   0.652  -0.098  0.00  0.00    +0.099 C 
BRANCH  20  21
ATOM     21  C   UNL     1      11.827  -0.590  -0.113  0.00  0.00    +0.041 C 
BRANCH  21  22
ATOM     22  C   UNL     1      13.296  -0.160  -0.125  0.00  0.00    +0.161 C 
ATOM     23  C   UNL     1      14.206  -1.372  -0.103  0.00  0.00    +0.241 C 
ATOM     24  O   UNL     1      14.278  -2.218   0.761  0.00  0.00    -0.273 OA
ATOM     25  N   UNL     1      14.918  -1.313  -1.246  0.00  0.00    -0.239 N 
ATOM     26  C   UNL     1      14.587  -0.243  -1.979  0.00  0.00    +0.307 C 
ATOM     27  O   UNL     1      15.094   0.024  -3.051  0.00  0.00    -0.252 OA
ATOM     28  N   UNL     1      13.631   0.507  -1.395  0.00  0.00    -0.288 N 
ATOM     29  H   UNL     1      15.588  -1.965  -1.505  0.00  0.00    +0.159 HD
ATOM     30  H   UNL     1      13.239   1.324  -1.742  0.00  0.00    +0.151 HD
ENDBRANCH  21  22
ENDBRANCH  20  21
ENDBRANCH  17  20
ENDBRANCH   3  16
TORSDOF 5
