REMARK  Name = ZINC14476199
REMARK  8 active torsions:
REMARK  status: ('A' for Active; 'I' for Inactive)
REMARK    1  A    between atoms: C_1  and  C_2
REMARK    2  A    between atoms: C_2  and  C_3
REMARK    3  A    between atoms: C_3  and  C_4
REMARK    4  A    between atoms: C_4  and  N_5
REMARK    5  A    between atoms: C_6  and  C_8
REMARK    6  A    between atoms: C_21  and  C_24
REMARK    7  A    between atoms: C_26  and  N_31
REMARK    8  A    between atoms: C_29  and  O_30
REMARK                            x       y       z     vdW  Elec       q    Type
REMARK                         _______ _______ _______ _____ _____    ______ ____
ROOT
ATOM      1  C   UNL     1      -0.889   1.695   6.143  0.00  0.00    +0.037 A 
ATOM      2  C   UNL     1      -2.034   2.489   6.034  0.00  0.00    +0.015 A 
ATOM      3  C   UNL     1      -2.674   2.932   7.167  0.00  0.00    +0.024 A 
ATOM      4  C   UNL     1      -2.184   2.605   8.430  0.00  0.00    +0.031 A 
ATOM      5  C   UNL     1      -1.040   1.802   8.538  0.00  0.00    -0.019 A 
ATOM      6  C   UNL     1      -0.398   1.359   7.408  0.00  0.00    +0.019 A 
ATOM      7  C   UNL     1      -0.582   1.446   9.899  0.00  0.00    +0.049 C 
ATOM      8  C   UNL     1       0.837   1.101  10.219  0.00  0.00    -0.023 C 
ATOM      9  C   UNL     1       1.116   1.503  11.453  0.00  0.00    -0.030 C 
ATOM     10  C   UNL     1      -0.110   2.174  12.075  0.00  0.00    +0.033 C 
ATOM     11  C   UNL     1      -0.858   2.666  10.829  0.00  0.00    +0.029 C 
ATOM     12  C   UNL     1      -2.369   2.769  10.923  0.00  0.00    +0.108 C 
ATOM     13  N   UNL     1      -2.833   3.103   9.559  0.00  0.00    -0.336 N 
ATOM     14  H   UNL     1      -3.707   3.757   9.420  0.00  0.00    +0.147 HD
ENDROOT
BRANCH  12  15
ATOM     15  C   UNL     1      -2.954   1.452  11.363  0.00  0.00    +0.017 A 
ATOM     16  C   UNL     1      -3.346   0.520  10.421  0.00  0.00    +0.041 A 
ATOM     17  C   UNL     1      -3.878  -0.691  10.824  0.00  0.00    +0.127 A 
ATOM     18  C   UNL     1      -4.029  -0.968  12.171  0.00  0.00    +0.036 A 
ATOM     19  C   UNL     1      -3.644  -0.038  13.116  0.00  0.00    +0.048 A 
ATOM     20  C   UNL     1      -3.105   1.176  12.714  0.00  0.00    +0.122 A 
BRANCH  17  21
ATOM     21  N   UNL     1      -4.291  -1.690   9.813  0.00  0.00    +0.056 N 
ATOM     22  O   UNL     1      -4.763  -2.755  10.167  0.00  0.00    -0.126 OA
ATOM     23  O   UNL     1      -4.158  -1.446   8.627  0.00  0.00    -0.126 OA
ENDBRANCH  17  21
BRANCH  20  24
ATOM     24  O   UNL     1      -2.725   2.093  13.642  0.00  0.00    -0.506 OA
ATOM     25  H   UNL     1      -2.845   1.873  14.714  0.00  0.00    +0.292 HD
ENDBRANCH  20  24
ENDBRANCH  12  15
BRANCH   1  27
ATOM     26  N   UNL     1      -0.675   1.545   3.712  0.00  0.00    -0.311 N 
ATOM     27  C   UNL     1      -0.198   1.219   4.929  0.00  0.00    +0.244 C 
ATOM     28  O   UNL     1       0.801   0.533   5.028  0.00  0.00    -0.270 OA
ATOM     29  H   UNL     1      -1.578   2.166   3.623  0.00  0.00    +0.149 HD
BRANCH  26  30
ATOM     30  C   UNL     1       0.011   1.072   2.506  0.00  0.00    +0.104 C 
BRANCH  30  31
ATOM     31  C   UNL     1      -0.729   1.579   1.267  0.00  0.00    +0.018 C 
BRANCH  31  33
ATOM     32  C   UNL     1      -0.753   1.593  -1.232  0.00  0.00    +0.004 C 
ATOM     33  C   UNL     1      -0.013   1.086   0.008  0.00  0.00    -0.002 C 
ENDBRANCH  31  33
ENDBRANCH  30  31
ENDBRANCH  26  30
ENDBRANCH   1  27
TORSDOF 7
