REMARK  Name = ZINC00684739
REMARK  7 active torsions:
REMARK  status: ('A' for Active; 'I' for Inactive)
REMARK    1  A    between atoms: C_1  and  C_2
REMARK    2  A    between atoms: C_2  and  O_3
REMARK    3  A    between atoms: O_3  and  C_4
REMARK    4  A    between atoms: C_6  and  C_11
REMARK    5  A    between atoms: C_9  and  O_10
REMARK    6  A    between atoms: C_16  and  C_20
REMARK    7  A    between atoms: C_16  and  C_21
REMARK                            x       y       z     vdW  Elec       q    Type
REMARK                         _______ _______ _______ _____ _____    ______ ____
ROOT
ATOM      1  C   UNL     1       0.002  -0.004   0.002  0.00  0.00    +0.135 C 
ATOM      2  C   UNL     1      -0.193  -0.511   1.410  0.00  0.00    +0.023 C 
ATOM      3  C   UNL     1      -0.709  -1.754   1.597  0.00  0.00    -0.029 C 
ATOM      4  C   UNL     1      -0.891  -2.328   2.974  0.00  0.00    +0.043 C 
ATOM      5  C   UNL     1       0.148  -1.724   3.924  0.00  0.00    -0.024 C 
ATOM      6  C   UNL     1      -0.001  -0.199   3.910  0.00  0.00    +0.086 C 
ATOM      7  C   UNL     1       0.160   0.299   2.498  0.00  0.00    +0.162 C 
ATOM      8  O   UNL     1       0.601   1.413   2.300  0.00  0.00    -0.292 OA
ATOM      9  C   UNL     1       1.554  -2.106   3.456  0.00  0.00    +0.011 C 
ATOM     10  C   UNL     1      -0.082  -2.250   5.342  0.00  0.00    +0.011 C 
ATOM     11  C   UNL     1      -1.091  -2.528   0.414  0.00  0.00    +0.000 A 
ATOM     12  C   UNL     1      -1.313  -3.916   0.500  0.00  0.00    +0.010 A 
ATOM     13  C   UNL     1      -1.629  -4.637  -0.603  0.00  0.00    +0.009 A 
ATOM     14  C   UNL     1      -1.742  -4.004  -1.859  0.00  0.00    -0.016 A 
ATOM     15  C   UNL     1      -2.051  -4.742  -3.012  0.00  0.00    +0.008 A 
ATOM     16  C   UNL     1      -2.155  -4.108  -4.213  0.00  0.00    +0.001 A 
ATOM     17  C   UNL     1      -1.961  -2.733  -4.317  0.00  0.00    +0.001 A 
ATOM     18  C   UNL     1      -1.659  -1.985  -3.219  0.00  0.00    +0.010 A 
ATOM     19  C   UNL     1      -1.542  -2.606  -1.966  0.00  0.00    +0.004 A 
ATOM     20  C   UNL     1      -1.228  -1.860  -0.809  0.00  0.00    +0.043 A 
ATOM     21  N   UNL     1      -1.058  -0.495  -0.879  0.00  0.00    -0.332 N 
ATOM     22  H   UNL     1      -1.927  -0.013  -0.702  0.00  0.00    +0.147 HD
ENDROOT
BRANCH   1  25
ATOM     23  C   UNL     1       1.153   3.594   0.010  0.00  0.00    +0.162 A 
ATOM     24  C   UNL     1       1.170   2.209   0.003  0.00  0.00    +0.055 A 
ATOM     25  C   UNL     1      -0.018   1.503   0.010  0.00  0.00    -0.019 A 
ATOM     26  C   UNL     1      -1.226   2.176   0.020  0.00  0.00    +0.009 A 
ATOM     27  C   UNL     1      -1.250   3.558   0.033  0.00  0.00    +0.049 A 
ATOM     28  C   UNL     1      -0.062   4.272   0.026  0.00  0.00    +0.158 A 
BRANCH  28  29
ATOM     29  O   UNL     1      -0.084   5.632   0.033  0.00  0.00    -0.503 OA
ATOM     30  H   UNL     1      -0.099   6.029  -0.849  0.00  0.00    +0.292 HD
ENDBRANCH  28  29
BRANCH  23  31
ATOM     31  O   UNL     1       2.321   4.290   0.003  0.00  0.00    -0.489 OA
BRANCH  31  33
ATOM     32  C   UNL     1       4.731   4.477  -0.020  0.00  0.00    +0.048 C 
ATOM     33  C   UNL     1       3.530   3.528  -0.014  0.00  0.00    +0.226 C 
ENDBRANCH  31  33
ENDBRANCH  23  31
ENDBRANCH   1  25
TORSDOF 4
