REMARK  Name = ZINC35052272
REMARK  6 active torsions:
REMARK  status: ('A' for Active; 'I' for Inactive)
REMARK    1  A    between atoms: C_1  and  C_2
REMARK    2  A    between atoms: C_7  and  C_8
REMARK    3  A    between atoms: C_8  and  C_10
REMARK    4  A    between atoms: C_8  and  N_11
REMARK    5  A    between atoms: N_11  and  C_12
REMARK    6  A    between atoms: C_17  and  N_18
REMARK                            x       y       z     vdW  Elec       q    Type
REMARK                         _______ _______ _______ _____ _____    ______ ____
ROOT
ATOM      1  N   UNL     1       1.118  -0.820   3.361  0.00  0.00    -0.336 N 
ATOM      2  H   UNL     1       1.129  -1.786   3.282  0.00  0.00    +0.147 HD
ENDROOT
BRANCH   1   3
ATOM      3  C   UNL     1       1.464  -0.214   4.572  0.00  0.00    +0.058 A 
ATOM      4  C   UNL     1       1.564   1.169   4.654  0.00  0.00    +0.026 A 
ATOM      5  C   UNL     1       1.905   1.766   5.852  0.00  0.00    +0.017 A 
ATOM      6  C   UNL     1       2.147   0.986   6.970  0.00  0.00    +0.020 A 
ATOM      7  C   UNL     1       2.049  -0.391   6.890  0.00  0.00    +0.050 A 
ATOM      8  C   UNL     1       1.701  -0.993   5.696  0.00  0.00    +0.148 A 
ATOM      9 BR   UNL     1       2.615   1.806   8.608  0.00  0.00    -0.050 Br
BRANCH   8  10
ATOM     10  N   UNL     1       1.590  -2.466   5.614  0.00  0.00    +0.058 N 
ATOM     11  O   UNL     1       0.724  -2.970   4.937  0.00  0.00    -0.126 OA
ATOM     12  O   UNL     1       2.364  -3.166   6.224  0.00  0.00    -0.126 OA
ENDBRANCH   8  10
ENDBRANCH   1   3
BRANCH   1  13
ATOM     13  C   UNL     1       0.741   0.005   2.210  0.00  0.00    +0.098 C 
ATOM     14  C   UNL     1      -0.748   0.347   2.295  0.00  0.00    +0.033 C 
BRANCH  13  21
ATOM     15  C   UNL     1       1.214   1.437  -0.254  0.00  0.00    +0.044 C 
ATOM     16  C   UNL     1       1.236  -0.070  -0.242  0.00  0.00    -0.046 A 
ATOM     17  C   UNL     1       1.489  -0.767  -1.409  0.00  0.00    +0.004 A 
ATOM     18  C   UNL     1       1.510  -2.149  -1.397  0.00  0.00    +0.000 A 
ATOM     19  C   UNL     1       1.279  -2.834  -0.219  0.00  0.00    +0.000 A 
ATOM     20  C   UNL     1       1.027  -2.137   0.948  0.00  0.00    +0.006 A 
ATOM     21  C   UNL     1       1.010  -0.755   0.937  0.00  0.00    -0.025 A 
ENDBRANCH  13  21
ENDBRANCH   1  13
TORSDOF 4
