REMARK  Name = ZINC06830482
REMARK  5 active torsions:
REMARK  status: ('A' for Active; 'I' for Inactive)
REMARK    1  A    between atoms: C_4  and  C_7
REMARK    2  A    between atoms: C_7  and  C_9
REMARK    3  A    between atoms: C_7  and  S_17
REMARK    4  A    between atoms: S_17  and  C_18
REMARK    5  A    between atoms: C_22  and  N_24
REMARK                            x       y       z     vdW  Elec       q    Type
REMARK                         _______ _______ _______ _____ _____    ______ ____
ROOT
ATOM      1  C   UNL     1      -1.765   1.232   3.424  0.00  0.00    +0.170 C 
ENDROOT
BRANCH   1   2
ATOM      2  C   UNL     1      -1.049   0.717   2.202  0.00  0.00    +0.233 C 
ATOM      3  O   UNL     1      -0.777  -0.462   2.110  0.00  0.00    -0.274 OA
ATOM      4  N   UNL     1      -0.712   1.565   1.211  0.00  0.00    -0.296 N 
ATOM      5  C   UNL     1      -0.013   1.086   0.008  0.00  0.00    +0.136 C 
ATOM      6  C   UNL     1      -0.764   1.599  -1.226  0.00  0.00    +0.179 C 
ATOM      7  O   UNL     1      -0.940   3.013  -1.115  0.00  0.00    -0.377 OA
ATOM      8  C   UNL     1      -1.734   3.419   0.003  0.00  0.00    +0.179 C 
ATOM      9  C   UNL     1      -1.032   2.999   1.299  0.00  0.00    +0.136 C 
ENDBRANCH   1   2
BRANCH   1  13
ATOM     10  C   UNL     1      -5.966   1.367   2.663  0.00  0.00    +0.000 A 
ATOM     11  C   UNL     1      -5.284   2.526   2.986  0.00  0.00    +0.000 A 
ATOM     12  C   UNL     1      -3.925   2.482   3.232  0.00  0.00    +0.005 A 
ATOM     13  C   UNL     1      -3.247   1.280   3.156  0.00  0.00    -0.025 A 
ATOM     14  C   UNL     1      -3.928   0.122   2.828  0.00  0.00    +0.005 A 
ATOM     15  C   UNL     1      -5.288   0.165   2.586  0.00  0.00    +0.000 A 
ENDBRANCH   1  13
BRANCH   1  16
ATOM     16  S   UNL     1      -1.440   0.129   4.823  0.00  0.00    -0.068 S 
BRANCH  16  17
ATOM     17  C   UNL     1      -2.244   1.024   6.110  0.00  0.00    +0.193 A 
ATOM     18  N   UNL     1      -2.837   2.174   5.824  0.00  0.00    -0.207 NA
ATOM     19  C   UNL     1      -3.458   2.874   6.770  0.00  0.00    +0.122 A 
ATOM     20  C   UNL     1      -3.469   2.389   8.075  0.00  0.00    +0.086 A 
ATOM     21  C   UNL     1      -2.830   1.181   8.338  0.00  0.00    +0.122 A 
ATOM     22  N   UNL     1      -2.234   0.532   7.341  0.00  0.00    -0.207 NA
ATOM     23  N   UNL     1      -4.081   4.073   6.462  0.00  0.00    -0.343 N 
ATOM     24  H   UNL     1      -4.529   4.580   7.157  0.00  0.00    +0.144 HD
ATOM     25  H   UNL     1      -4.070   4.405   5.550  0.00  0.00    +0.144 HD
BRANCH  21  26
ATOM     26  N   UNL     1      -2.816   0.659   9.623  0.00  0.00    -0.343 N 
ATOM     27  H   UNL     1      -2.369  -0.183   9.799  0.00  0.00    +0.144 HD
ATOM     28  H   UNL     1      -3.253   1.137  10.345  0.00  0.00    +0.144 HD
ENDBRANCH  21  26
ENDBRANCH  16  17
ENDBRANCH   1  16
TORSDOF 5
