REMARK  Name = ZINC49531412
REMARK  6 active torsions:
REMARK  status: ('A' for Active; 'I' for Inactive)
REMARK    1  A    between atoms: C_1  and  C_2
REMARK    2  A    between atoms: C_2  and  C_4
REMARK    3  A    between atoms: C_2  and  N_11
REMARK    4  A    between atoms: C_12  and  C_17
REMARK    5  A    between atoms: C_17  and  C_18
REMARK    6  A    between atoms: C_17  and  C_19
REMARK                            x       y       z     vdW  Elec       q    Type
REMARK                         _______ _______ _______ _____ _____    ______ ____
ROOT
ATOM      1  N   UNL     1      -1.385  -0.445   0.164  0.00  0.00    -0.300 N 
ATOM      2  C   UNL     1      -1.897  -1.105   1.254  0.00  0.00    +0.135 A 
ATOM      3  N   UNL     1      -3.154  -1.336   1.051  0.00  0.00    -0.158 NA
ATOM      4  N   UNL     1      -3.495  -0.819  -0.207  0.00  0.00    -0.254 N 
ATOM      5  C   UNL     1      -2.379  -0.268  -0.730  0.00  0.00    +0.176 A 
ATOM      6  S   UNL     1      -2.249   0.509  -2.249  0.00  0.00    -0.011 S 
ATOM      7  H   UNL     1      -4.371  -0.848  -0.622  0.00  0.00    +0.191 HD
ENDROOT
BRANCH   2   8
ATOM      8  C   UNL     1      -1.122  -1.496   2.486  0.00  0.00    +0.051 C 
ATOM      9  C   UNL     1      -2.079  -1.623   3.672  0.00  0.00    +0.015 C 
ATOM     10  C   UNL     1      -0.426  -2.837   2.246  0.00  0.00    +0.015 C 
ENDBRANCH   2   8
BRANCH   1  12
ATOM     11  C   UNL     1       0.052   1.525  -0.015  0.00  0.00    +0.036 C 
ATOM     12  C   UNL     1       0.002  -0.004   0.002  0.00  0.00    +0.120 C 
BRANCH  12  13
ATOM     13  C   UNL     1       0.551  -0.539  -1.296  0.00  0.00    +0.010 A 
ATOM     14  C   UNL     1       1.200   0.309  -2.173  0.00  0.00    +0.008 A 
ATOM     15  C   UNL     1       1.704  -0.182  -3.363  0.00  0.00    +0.001 A 
ATOM     16  C   UNL     1       1.559  -1.520  -3.677  0.00  0.00    +0.003 A 
ATOM     17  C   UNL     1       0.911  -2.370  -2.801  0.00  0.00    +0.039 A 
ATOM     18  C   UNL     1       0.411  -1.881  -1.606  0.00  0.00    +0.129 A 
ATOM     19  F   UNL     1      -0.219  -2.711  -0.746  0.00  0.00    -0.205 F 
ENDBRANCH  12  13
ENDBRANCH   1  12
TORSDOF 3
