REMARK  Name = ZINC47042477
REMARK  3 active torsions:
REMARK  status: ('A' for Active; 'I' for Inactive)
REMARK    1  A    between atoms: C_2  and  C_7
REMARK    2  A    between atoms: C_7  and  N_8
REMARK    3  A    between atoms: N_11  and  C_12
REMARK                            x       y       z     vdW  Elec       q    Type
REMARK                         _______ _______ _______ _____ _____    ______ ____
ROOT
ATOM      1  N   UNL     1       1.222   4.027   1.393  0.00  0.00    -0.295 N 
ATOM      2  C   UNL     1       1.242   5.350   1.645  0.00  0.00    +0.300 C 
ATOM      3  O   UNL     1       1.243   6.145   0.725  0.00  0.00    -0.253 OA
ATOM      4  N   UNL     1       1.260   5.793   2.918  0.00  0.00    -0.298 N 
ATOM      5  H   UNL     1       1.221   3.393   2.127  0.00  0.00    +0.151 HD
ATOM      6  H   UNL     1       1.258   5.159   3.652  0.00  0.00    +0.150 HD
ENDROOT
BRANCH   4   7
ATOM      7  C   UNL     1       1.280   7.232   3.193  0.00  0.00    +0.059 C 
ATOM      8  C   UNL     1      -0.163   7.798   3.296  0.00  0.00    +0.002 C 
ATOM      9  C   UNL     1      -0.111   8.816   4.461  0.00  0.00    -0.077 C 
ATOM     10  N   UNL     1       1.289   8.867   4.887  0.00  0.00    +0.383 N 
ATOM     11  C   UNL     1       1.836   7.515   4.599  0.00  0.00    -0.048 C 
ATOM     12  C   UNL     1       3.354   7.617   4.647  0.00  0.00    -0.014 C 
ATOM     13  C   UNL     1       3.746   8.001   6.083  0.00  0.00    -0.003 C 
ATOM     14  C   UNL     1       3.035   9.285   6.509  0.00  0.00    -0.019 C 
ATOM     15  C   UNL     1       1.517   9.164   6.294  0.00  0.00    -0.078 C 
ATOM     16  H   UNL     1       1.784   9.540   4.321  0.00  0.00    -0.081 HD
ENDBRANCH   4   7
BRANCH   1  17
ATOM     17  C   UNL     1       1.203   3.545   0.009  0.00  0.00    +0.141 C 
BRANCH  17  19
ATOM     18  C   UNL     1      -0.016   1.352   0.009  0.00  0.00    +0.028 A 
ATOM     19  C   UNL     1       1.184   2.038   0.002  0.00  0.00    -0.022 A 
ATOM     20  C   UNL     1       2.343   1.336  -0.013  0.00  0.00    +0.051 A 
ATOM     21  S   UNL     1       1.754  -0.349  -0.017  0.00  0.00    -0.090 S 
ATOM     22  C   UNL     1       0.002  -0.004   0.002  0.00  0.00    +0.055 A 
ATOM     23 BR   UNL     1      -1.450  -1.215   0.010  0.00  0.00    -0.043 Br
ENDBRANCH  17  19
ENDBRANCH   1  17
TORSDOF 3
