REMARK  Name = ZINC18071688
REMARK  12 active torsions:
REMARK  status: ('A' for Active; 'I' for Inactive)
REMARK    1  A    between atoms: C_1  and  C_2
REMARK    2  A    between atoms: C_2  and  O_3
REMARK    3  A    between atoms: O_3  and  C_4
REMARK    4  A    between atoms: C_7  and  O_10
REMARK    5  A    between atoms: O_10  and  C_11
REMARK    6  A    between atoms: C_11  and  C_13
REMARK    7  A    between atoms: C_11  and  C_14
REMARK    8  A    between atoms: N_16  and  N_17
REMARK    9  A    between atoms: C_18  and  C_20
REMARK   10  A    between atoms: C_20  and  C_21
REMARK   11  A    between atoms: C_21  and  C_22
REMARK   12  A    between atoms: C_24  and  C_27
REMARK                            x       y       z     vdW  Elec       q    Type
REMARK                         _______ _______ _______ _____ _____    ______ ____
ROOT
ATOM      1  N   UNL     1       2.606   4.247   0.521  0.00  0.00    -0.234 N 
ATOM      2  C   UNL     1       1.459   3.540   0.567  0.00  0.00    +0.230 C 
ATOM      3  O   UNL     1       0.395   4.100   0.412  0.00  0.00    -0.274 OA
ATOM      4  H   UNL     1       3.457   3.799   0.645  0.00  0.00    +0.173 HD
ENDROOT
BRANCH   1   7
ATOM      5  C   UNL     1       3.715   6.335   0.247  0.00  0.00    +0.270 C 
ATOM      6  O   UNL     1       4.779   5.775   0.402  0.00  0.00    -0.270 OA
ATOM      7  N   UNL     1       2.568   5.628   0.293  0.00  0.00    -0.231 N 
ATOM      8  H   UNL     1       1.717   6.077   0.169  0.00  0.00    +0.173 HD
BRANCH   5   9
ATOM      9  C   UNL     1       3.674   7.822   0.002  0.00  0.00    +0.257 C 
ATOM     10  C   UNL     1       2.975   8.513   1.175  0.00  0.00    +0.062 C 
BRANCH   9  11
ATOM     11  O   UNL     1       5.007   8.322  -0.118  0.00  0.00    -0.480 OA
BRANCH  11  15
ATOM     12  C   UNL     1       5.515  11.806  -2.273  0.00  0.00    +0.121 A 
ATOM     13  C   UNL     1       4.239  11.326  -2.022  0.00  0.00    +0.049 A 
ATOM     14  C   UNL     1       4.069  10.160  -1.301  0.00  0.00    +0.049 A 
ATOM     15  C   UNL     1       5.175   9.469  -0.828  0.00  0.00    +0.122 A 
ATOM     16  C   UNL     1       6.451   9.952  -1.075  0.00  0.00    +0.049 A 
ATOM     17  C   UNL     1       6.621  11.116  -1.799  0.00  0.00    +0.049 A 
BRANCH  12  18
ATOM     18  O   UNL     1       5.683  12.954  -2.983  0.00  0.00    -0.492 OA
BRANCH  18  20
ATOM     19  C   UNL     1       7.013  14.687  -4.015  0.00  0.00    +0.048 C 
ATOM     20  C   UNL     1       7.026  13.390  -3.204  0.00  0.00    +0.225 C 
ENDBRANCH  18  20
ENDBRANCH  12  18
ENDBRANCH  11  15
ENDBRANCH   9  11
ENDBRANCH   5   9
ENDBRANCH   1   7
BRANCH   2  21
ATOM     21  C   UNL     1       1.500   2.053   0.812  0.00  0.00    +0.107 C 
BRANCH  21  22
ATOM     22  C   UNL     1       0.074   1.498   0.817  0.00  0.00    +0.108 C 
BRANCH  22  23
ATOM     23  C   UNL     1       0.115   0.012   1.062  0.00  0.00    +0.228 A 
ATOM     24  N   UNL     1       0.074  -0.587   2.226  0.00  0.00    -0.191 NA
ATOM     25  C   UNL     1       0.136  -1.910   1.957  0.00  0.00    +0.202 A 
ATOM     26  N   UNL     1       0.210  -2.037   0.658  0.00  0.00    -0.056 NA
ATOM     27  O   UNL     1       0.194  -0.944   0.131  0.00  0.00    -0.338 OA
BRANCH  25  28
ATOM     28  C   UNL     1       0.122  -3.013   2.950  0.00  0.00    +0.023 A 
ATOM     29  C   UNL     1       0.045  -2.726   4.312  0.00  0.00    +0.013 A 
ATOM     30  C   UNL     1       0.027  -3.755   5.231  0.00  0.00    +0.021 A 
ATOM     31  C   UNL     1       0.098  -5.070   4.803  0.00  0.00    +0.041 A 
ATOM     32  C   UNL     1       0.180  -5.360   3.452  0.00  0.00    +0.021 A 
ATOM     33  C   UNL     1       0.193  -4.338   2.525  0.00  0.00    +0.013 A 
ATOM     34 CL   UNL     1       0.083  -6.360   5.965  0.00  0.00    -0.084 Cl
ENDBRANCH  25  28
ENDBRANCH  22  23
ENDBRANCH  21  22
ENDBRANCH   2  21
TORSDOF 10
