REMARK  Name = ZINC44234152
REMARK  8 active torsions:
REMARK  status: ('A' for Active; 'I' for Inactive)
REMARK    1  A    between atoms: C_1  and  O_2
REMARK    2  A    between atoms: O_2  and  C_3
REMARK    3  A    between atoms: C_6  and  C_11
REMARK    4  A    between atoms: C_7  and  O_10
REMARK    5  A    between atoms: C_11  and  C_13
REMARK    6  A    between atoms: C_11  and  N_16
REMARK    7  A    between atoms: C_13  and  C_14
REMARK    8  A    between atoms: C_14  and  O_15
REMARK                            x       y       z     vdW  Elec       q    Type
REMARK                         _______ _______ _______ _____ _____    ______ ____
ROOT
ATOM      1  C   UNL     1       0.626  -0.619   1.042  0.00  0.00    +0.151 A 
ATOM      2  C   UNL     1       1.981  -0.910   0.965  0.00  0.00    +0.061 A 
ATOM      3  C   UNL     1       2.616  -1.535   2.022  0.00  0.00    +0.024 A 
ATOM      4  C   UNL     1       1.903  -1.872   3.157  0.00  0.00    -0.018 A 
ATOM      5  C   UNL     1       0.549  -1.582   3.239  0.00  0.00    +0.136 A 
ATOM      6  C   UNL     1      -0.089  -0.950   2.183  0.00  0.00    +0.102 A 
ATOM      7 BR   UNL     1      -1.933  -0.547   2.294  0.00  0.00    -0.043 Br
ATOM      8 BR   UNL     1       2.959  -0.452  -0.587  0.00  0.00    -0.046 Br
ENDROOT
BRANCH   1  10
ATOM      9  C   UNL     1      -0.017   1.425   0.010  0.00  0.00    +0.277 C 
ATOM     10  O   UNL     1       0.002  -0.004   0.002  0.00  0.00    -0.493 OA
ENDBRANCH   1  10
BRANCH   5  11
ATOM     11  O   UNL     1      -0.151  -1.913   4.357  0.00  0.00    -0.505 OA
ATOM     12  H   UNL     1      -0.163  -1.222   5.032  0.00  0.00    +0.292 HD
ENDBRANCH   5  11
BRANCH   4  13
ATOM     13  C   UNL     1       2.598  -2.554   4.307  0.00  0.00    -0.038 C 
BRANCH  13  14
ATOM     14  N   UNL     1       4.030  -2.229   4.276  0.00  0.00    +0.383 N 
ATOM     15  H   UNL     1       4.429  -2.548   3.406  0.00  0.00    -0.089 HD
ATOM     16  H   UNL     1       4.151  -1.231   4.356  0.00  0.00    -0.089 HD
ATOM     17  H   UNL     1       4.496  -2.686   5.046  0.00  0.00    -0.089 HD
ENDBRANCH  13  14
BRANCH  13  18
ATOM     18  C   UNL     1       2.416  -4.069   4.187  0.00  0.00    +0.016 C 
BRANCH  18  19
ATOM     19  C   UNL     1       3.013  -4.753   5.418  0.00  0.00    +0.154 C 
BRANCH  19  20
ATOM     20  O   UNL     1       2.843  -6.168   5.306  0.00  0.00    -0.395 OA
ATOM     21  H   UNL     1       3.199  -6.668   6.053  0.00  0.00    +0.209 HD
ENDBRANCH  19  20
ENDBRANCH  18  19
ENDBRANCH  13  18
ENDBRANCH   4  13
TORSDOF 7
