REMARK  Name = ZINC61918730
REMARK  3 active torsions:
REMARK  status: ('A' for Active; 'I' for Inactive)
REMARK    1  A    between atoms: C_1  and  C_2
REMARK    2  A    between atoms: C_13  and  C_16
REMARK    3  A    between atoms: N_17  and  O_18
REMARK                            x       y       z     vdW  Elec       q    Type
REMARK                         _______ _______ _______ _____ _____    ______ ____
ROOT
ATOM      1  C   UNL     1       0.217   1.719  -0.496  0.00  0.00    +0.039 C 
ATOM      2  C   UNL     1       0.101   0.205  -0.304  0.00  0.00    +0.132 C 
ATOM      3  C   UNL     1       0.849  -0.519  -1.450  0.00  0.00    +0.137 C 
ATOM      4  N   UNL     1       0.586  -1.944  -1.377  0.00  0.00    -0.313 N 
ATOM      5  C   UNL     1       1.423  -2.865  -0.586  0.00  0.00    +0.109 C 
ATOM      6  C   UNL     1       1.794  -2.246   0.770  0.00  0.00    +0.047 C 
ATOM      7  C   UNL     1       0.599  -1.504   1.334  0.00  0.00    +0.162 C 
ATOM      8  O   UNL     1       0.659  -0.149   0.907  0.00  0.00    -0.375 OA
ATOM      9  C   UNL     1      -0.495  -2.459  -2.078  0.00  0.00    +0.121 A 
ATOM     10  C   UNL     1      -1.414  -1.590  -2.661  0.00  0.00    +0.044 A 
ATOM     11  C   UNL     1      -2.486  -2.110  -3.356  0.00  0.00    +0.016 A 
ATOM     12  C   UNL     1      -2.608  -3.503  -3.449  0.00  0.00    +0.036 A 
ATOM     13  C   UNL     1      -1.648  -4.308  -2.840  0.00  0.00    +0.124 A 
ATOM     14  N   UNL     1      -0.636  -3.772  -2.189  0.00  0.00    -0.240 NA
ENDROOT
BRANCH  12  15
ATOM     15  C   UNL     1      -3.739  -4.110  -4.184  0.00  0.00    +0.164 C 
ATOM     16  N   UNL     1      -4.631  -3.349  -4.749  0.00  0.00    -0.071 NA
ATOM     17  N   UNL     1      -3.850  -5.487  -4.269  0.00  0.00    -0.340 N 
ATOM     18  H   UNL     1      -3.186  -6.054  -3.848  0.00  0.00    +0.144 HD
ATOM     19  H   UNL     1      -4.592  -5.885  -4.751  0.00  0.00    +0.144 HD
BRANCH  16  20
ATOM     20  O   UNL     1      -5.714  -3.929  -5.452  0.00  0.00    -0.408 OA
ATOM     21  H   UNL     1      -6.324  -3.285  -5.837  0.00  0.00    +0.328 HD
ENDBRANCH  16  20
ENDBRANCH  12  15
TORSDOF 2
