REMARK  Name = ZINC62776934
REMARK  10 active torsions:
REMARK  status: ('A' for Active; 'I' for Inactive)
REMARK    1  A    between atoms: C_1  and  C_2
REMARK    2  A    between atoms: C_2  and  C_3
REMARK    3  A    between atoms: C_3  and  N_4
REMARK    4  A    between atoms: N_4  and  C_5
REMARK    5  A    between atoms: C_5  and  C_7
REMARK    6  A    between atoms: C_5  and  C_13
REMARK    7  A    between atoms: C_15  and  O_22
REMARK    8  A    between atoms: C_16  and  O_20
REMARK    9  A    between atoms: O_20  and  C_21
REMARK   10  A    between atoms: O_22  and  C_23
REMARK                            x       y       z     vdW  Elec       q    Type
REMARK                         _______ _______ _______ _____ _____    ______ ____
ROOT
ATOM      1  C   UNL     1       1.426  -2.440  -2.474  0.00  0.00    +0.012 C 
ENDROOT
BRANCH   1   2
ATOM      2  C   UNL     1       1.555  -3.941  -2.422  0.00  0.00    -0.038 A 
ATOM      3  C   UNL     1       0.658  -4.685  -1.678  0.00  0.00    +0.052 A 
ATOM      4  C   UNL     1       0.775  -6.065  -1.631  0.00  0.00    +0.162 A 
ATOM      5  C   UNL     1       1.796  -6.699  -2.333  0.00  0.00    +0.163 A 
ATOM      6  C   UNL     1       2.691  -5.948  -3.076  0.00  0.00    +0.065 A 
ATOM      7  C   UNL     1       2.566  -4.571  -3.124  0.00  0.00    +0.024 A 
ATOM      8 BR   UNL     1       3.785  -3.547  -4.146  0.00  0.00    -0.050 Br
BRANCH   5   9
ATOM      9  O   UNL     1       1.915  -8.053  -2.288  0.00  0.00    -0.491 OA
ATOM     10  C   UNL     1       2.986  -8.635  -3.033  0.00  0.00    +0.277 C 
ENDBRANCH   5   9
BRANCH   4  11
ATOM     11  O   UNL     1      -0.106  -6.798  -0.899  0.00  0.00    -0.491 OA
ATOM     12  C   UNL     1      -1.128  -6.081  -0.204  0.00  0.00    +0.277 C 
ENDBRANCH   4  11
ENDBRANCH   1   2
BRANCH   1  13
ATOM     13  C   UNL     1       0.630  -2.045  -3.691  0.00  0.00    +0.053 A 
ATOM     14  C   UNL     1       1.140  -1.870  -4.982  0.00  0.00    +0.042 A 
ATOM     15  C   UNL     1       0.113  -1.519  -5.790  0.00  0.00    +0.105 A 
ATOM     16  N   UNL     1      -1.006  -1.474  -5.038  0.00  0.00    -0.285 N 
ATOM     17  N   UNL     1      -0.657  -1.813  -3.725  0.00  0.00    -0.180 NA
ATOM     18  H   UNL     1      -1.896  -1.250  -5.352  0.00  0.00    +0.188 HD
ENDBRANCH   1  13
BRANCH   1  19
ATOM     19  N   UNL     1       0.738  -1.966  -1.265  0.00  0.00    +0.387 N 
ATOM     20  H   UNL     1       1.226  -2.301  -0.447  0.00  0.00    -0.084 HD
ATOM     21  H   UNL     1      -0.208  -2.316  -1.258  0.00  0.00    -0.084 HD
BRANCH  19  22
ATOM     22  C   UNL     1       0.718  -0.497  -1.257  0.00  0.00    -0.081 C 
BRANCH  22  24
ATOM     23  C   UNL     1      -0.019   1.526   0.010  0.00  0.00    +0.002 C 
ATOM     24  C   UNL     1       0.002  -0.004   0.002  0.00  0.00    -0.022 C 
ENDBRANCH  22  24
ENDBRANCH  19  22
ENDBRANCH   1  19
TORSDOF 7
