REMARK  Name = ZINC65395729
REMARK  5 active torsions:
REMARK  status: ('A' for Active; 'I' for Inactive)
REMARK    1  A    between atoms: C_6  and  C_11
REMARK    2  A    between atoms: C_22  and  C_24
REMARK    3  A    between atoms: N_26  and  C_27
REMARK    4  A    between atoms: C_27  and  C_28
REMARK    5  A    between atoms: C_28  and  O_29
REMARK                            x       y       z     vdW  Elec       q    Type
REMARK                         _______ _______ _______ _____ _____    ______ ____
ROOT
ATOM      1  C   UNL     1       3.656  -2.764   1.185  0.00  0.00    +0.242 C 
ATOM      2  O   UNL     1       4.406  -2.193   1.948  0.00  0.00    -0.273 OA
ATOM      3  N   UNL     1       3.281  -4.034   1.433  0.00  0.00    -0.298 N 
ATOM      4  C   UNL     1       2.480  -4.729   0.448  0.00  0.00    +0.109 C 
ATOM      5  C   UNL     1       3.374  -5.506  -0.574  0.00  0.00    +0.036 C 
ATOM      6  C   UNL     1       4.675  -5.897   0.158  0.00  0.00    +0.108 C 
ATOM      7  N   UNL     1       4.280  -6.598   1.403  0.00  0.00    -0.221 NA
ATOM      8  C   UNL     1       4.815  -5.651   2.460  0.00  0.00    +0.118 C 
ATOM      9  C   UNL     1       3.707  -4.665   2.692  0.00  0.00    +0.132 C 
ATOM     10  C   UNL     1       5.075  -6.592   3.604  0.00  0.00    +0.024 C 
ATOM     11  C   UNL     1       5.145  -7.819   3.061  0.00  0.00    +0.101 C 
ATOM     12  N   UNL     1       4.977  -7.735   1.667  0.00  0.00    -0.273 N 
ATOM     13  H   UNL     1       5.301  -8.374   1.013  0.00  0.00    +0.167 HD
ENDROOT
BRANCH   1  19
ATOM     14  C   UNL     1       1.512   2.294  -0.079  0.00  0.00    +0.001 A 
ATOM     15  C   UNL     1       2.843   2.520  -0.455  0.00  0.00    +0.002 A 
ATOM     16  C   UNL     1       3.744   1.523  -0.585  0.00  0.00    +0.026 A 
ATOM     17  C   UNL     1       3.364   0.175  -0.339  0.00  0.00    +0.043 A 
ATOM     18  N   UNL     1       4.039  -0.947  -0.397  0.00  0.00    -0.370 N 
ATOM     19  C   UNL     1       3.143  -2.053  -0.040  0.00  0.00    +0.190 C 
ATOM     20  C   UNL     1       1.799  -1.420   0.247  0.00  0.00    +0.016 C 
ATOM     21  C   UNL     1       1.963  -0.091   0.060  0.00  0.00    -0.004 A 
ATOM     22  C   UNL     1       1.047   1.050   0.178  0.00  0.00    +0.010 A 
ATOM     23  H   UNL     1       4.976  -1.032  -0.635  0.00  0.00    +0.161 HD
ENDBRANCH   1  19
BRANCH  11  24
ATOM     24  C   UNL     1       5.364  -9.068   3.814  0.00  0.00    +0.259 C 
ATOM     25  O   UNL     1       5.498  -9.034   5.022  0.00  0.00    -0.269 OA
ATOM     26  N   UNL     1       5.417 -10.248   3.164  0.00  0.00    -0.308 N 
ATOM     27  H   UNL     1       5.310 -10.275   2.200  0.00  0.00    +0.149 HD
BRANCH  26  28
ATOM     28  C   UNL     1       5.635 -11.488   3.912  0.00  0.00    +0.132 C 
BRANCH  28  29
ATOM     29  C   UNL     1       5.651 -12.672   2.943  0.00  0.00    +0.174 C 
BRANCH  29  30
ATOM     30  O   UNL     1       6.775 -12.556   2.068  0.00  0.00    -0.393 OA
ATOM     31  H   UNL     1       6.849 -13.274   1.425  0.00  0.00    +0.209 HD
ENDBRANCH  29  30
ENDBRANCH  28  29
ENDBRANCH  26  28
ENDBRANCH  11  24
TORSDOF 5
