REMARK  Name = ZINC27526001
REMARK  8 active torsions:
REMARK  status: ('A' for Active; 'I' for Inactive)
REMARK    1  A    between atoms: C_1  and  C_2
REMARK    2  A    between atoms: C_2  and  O_3
REMARK    3  A    between atoms: O_3  and  C_4
REMARK    4  A    between atoms: C_4  and  C_6
REMARK    5  A    between atoms: C_7  and  N_19
REMARK    6  A    between atoms: N_8  and  C_12
REMARK    7  A    between atoms: C_15  and  C_18
REMARK    8  A    between atoms: C_20  and  C_22
REMARK                            x       y       z     vdW  Elec       q    Type
REMARK                         _______ _______ _______ _____ _____    ______ ____
ROOT
ATOM      1  C   UNL     1      -2.637   5.466  -0.096  0.00  0.00    +0.141 A 
ATOM      2  C   UNL     1      -2.548   4.099  -0.008  0.00  0.00    +0.164 A 
ATOM      3  N   UNL     1      -3.696   3.390  -0.048  0.00  0.00    -0.281 N 
ATOM      4  C   UNL     1      -4.877   4.033  -0.176  0.00  0.00    +0.132 A 
ATOM      5  S   UNL     1      -6.453   3.368  -0.251  0.00  0.00    -0.024 S 
ATOM      6  S   UNL     1      -4.400   5.699  -0.248  0.00  0.00    -0.053 S 
ENDROOT
BRANCH   3   7
ATOM      7  C   UNL     1      -3.662   1.993   0.043  0.00  0.00    +0.050 A 
ATOM      8  C   UNL     1      -3.016   1.247  -0.933  0.00  0.00    +0.026 A 
ATOM      9  C   UNL     1      -2.980  -0.131  -0.837  0.00  0.00    +0.005 A 
ATOM     10  C   UNL     1      -3.596  -0.767   0.224  0.00  0.00    -0.050 A 
ATOM     11  C   UNL     1      -4.246  -0.028   1.195  0.00  0.00    +0.005 A 
ATOM     12  C   UNL     1      -4.281   1.350   1.108  0.00  0.00    +0.026 A 
ATOM     13  C   UNL     1      -3.561  -2.271   0.322  0.00  0.00    +0.044 C 
ENDBRANCH   3   7
BRANCH   2  14
ATOM     14  N   UNL     1      -1.325   3.470   0.123  0.00  0.00    -0.189 NA
ATOM     15  C   UNL     1      -1.163   2.494   1.038  0.00  0.00    +0.279 C 
ATOM     16  O   UNL     1      -2.080   2.198   1.779  0.00  0.00    -0.265 OA
BRANCH  15  17
ATOM     17  C   UNL     1       0.127   1.782   1.139  0.00  0.00    +0.041 A 
ATOM     18  C   UNL     1       1.180   2.115   0.284  0.00  0.00    +0.015 A 
ATOM     19  C   UNL     1       2.381   1.444   0.380  0.00  0.00    +0.021 A 
ATOM     20  C   UNL     1       2.543   0.441   1.321  0.00  0.00    +0.041 A 
ATOM     21  C   UNL     1       1.502   0.105   2.171  0.00  0.00    +0.021 A 
ATOM     22  C   UNL     1       0.297   0.770   2.086  0.00  0.00    +0.015 A 
ATOM     23 CL   UNL     1       4.058  -0.400   1.436  0.00  0.00    -0.084 Cl
ENDBRANCH  15  17
ENDBRANCH   2  14
BRANCH   1  24
ATOM     24  C   UNL     1      -1.607   6.431  -0.074  0.00  0.00    +0.350 C 
ATOM     25  O   UNL     1      -0.446   6.081   0.036  0.00  0.00    -0.244 OA
BRANCH  24  26
ATOM     26  O   UNL     1      -1.909   7.744  -0.176  0.00  0.00    -0.461 OA
BRANCH  26  28
ATOM     27  C   UNL     1      -1.351  10.093  -0.273  0.00  0.00    +0.048 C 
ATOM     28  C   UNL     1      -0.817   8.665  -0.146  0.00  0.00    +0.229 C 
ENDBRANCH  26  28
ENDBRANCH  24  26
ENDBRANCH   1  24
TORSDOF 6
