REMARK  Name = ZINC67240721
REMARK  5 active torsions:
REMARK  status: ('A' for Active; 'I' for Inactive)
REMARK    1  A    between atoms: C_1  and  C_2
REMARK    2  A    between atoms: C_8  and  C_12
REMARK    3  A    between atoms: N_14  and  C_15
REMARK    4  A    between atoms: C_18  and  C_21
REMARK    5  A    between atoms: C_21  and  N_22
REMARK                            x       y       z     vdW  Elec       q    Type
REMARK                         _______ _______ _______ _____ _____    ______ ____
ROOT
ATOM      1  C   UNL     1       0.502  -1.346   3.493  0.00  0.00    +0.239 C 
ATOM      2  O   UNL     1       1.629  -1.778   3.374  0.00  0.00    -0.273 OA
ATOM      3  N   UNL     1      -0.219  -1.637   4.594  0.00  0.00    -0.284 N 
ATOM      4  H   UNL     1      -1.089  -1.230   4.726  0.00  0.00    +0.155 HD
ENDROOT
BRANCH   1  12
ATOM      5  C   UNL     1       0.061   1.775   0.197  0.00  0.00    +0.044 C 
ATOM      6  C   UNL     1       0.242   0.258   0.122  0.00  0.00    +0.082 C 
ATOM      7  C   UNL     1       1.121  -0.184  -1.060  0.00  0.00    +0.046 C 
ATOM      8  C   UNL     1       2.510  -0.283  -0.385  0.00  0.00    +0.099 C 
ATOM      9  C   UNL     1       2.198  -0.553   1.069  0.00  0.00    +0.217 C 
ATOM     10  O   UNL     1       3.008  -0.928   1.890  0.00  0.00    -0.276 OA
ATOM     11  N   UNL     1       0.893  -0.318   1.328  0.00  0.00    -0.275 N 
ATOM     12  C   UNL     1      -0.092  -0.482   2.410  0.00  0.00    +0.173 C 
ATOM     13  C   UNL     1      -1.388  -1.147   1.886  0.00  0.00    +0.103 C 
ATOM     14  S   UNL     1      -1.351  -0.660   0.109  0.00  0.00    -0.133 S 
ENDBRANCH   1  12
BRANCH   3  15
ATOM     15  C   UNL     1       0.289  -2.527   5.547  0.00  0.00    +0.033 A 
ATOM     16  C   UNL     1      -0.011  -2.352   6.892  0.00  0.00    +0.023 A 
ATOM     17  C   UNL     1       0.492  -3.232   7.830  0.00  0.00    +0.007 A 
ATOM     18  C   UNL     1       1.293  -4.287   7.432  0.00  0.00    -0.030 A 
ATOM     19  C   UNL     1       1.593  -4.464   6.093  0.00  0.00    +0.007 A 
ATOM     20  C   UNL     1       1.089  -3.591   5.150  0.00  0.00    +0.023 A 
BRANCH  18  21
ATOM     21  C   UNL     1       1.839  -5.245   8.458  0.00  0.00    +0.141 C 
BRANCH  21  22
ATOM     22  N   UNL     1       0.897  -6.351   8.645  0.00  0.00    -0.295 N 
ATOM     23  C   UNL     1       1.178  -7.336   9.521  0.00  0.00    +0.297 C 
ATOM     24  O   UNL     1       2.213  -7.306  10.157  0.00  0.00    -0.253 OA
ATOM     25  N   UNL     1       0.310  -8.353   9.693  0.00  0.00    -0.313 N 
ATOM     26  H   UNL     1       0.070  -6.375   8.137  0.00  0.00    +0.151 HD
ATOM     27  H   UNL     1      -0.516  -8.377   9.185  0.00  0.00    +0.146 HD
ATOM     28  H   UNL     1       0.513  -9.061  10.324  0.00  0.00    +0.146 HD
ENDBRANCH  21  22
ENDBRANCH  18  21
ENDBRANCH   3  15
TORSDOF 4
