REMARK  Name = ZINC07986510
REMARK  4 active torsions:
REMARK  status: ('A' for Active; 'I' for Inactive)
REMARK    1  A    between atoms: C_1  and  C_2
REMARK    2  A    between atoms: C_9  and  N_14
REMARK    3  A    between atoms: C_10  and  C_11
REMARK    4  A    between atoms: C_15  and  C_17
REMARK                            x       y       z     vdW  Elec       q    Type
REMARK                         _______ _______ _______ _____ _____    ______ ____
ROOT
ATOM      1  C   UNL     1      -0.019   1.526   0.010  0.00  0.00    +0.008 C 
ATOM      2  C   UNL     1       0.002  -0.004   0.002  0.00  0.00    -0.009 C 
ATOM      3  C   UNL     1       0.742  -0.514   1.242  0.00  0.00    +0.008 C 
ATOM      4  C   UNL     1       0.556  -2.027   1.373  0.00  0.00    +0.037 C 
ATOM      5  C   UNL     1       0.942  -2.684   0.053  0.00  0.00    -0.023 A 
ATOM      6  C   UNL     1       1.009  -1.965  -1.089  0.00  0.00    -0.004 A 
ATOM      7  S   UNL     1       1.486  -3.133  -2.331  0.00  0.00    -0.077 S 
ATOM      8  C   UNL     1       1.595  -4.557  -1.350  0.00  0.00    +0.085 A 
ATOM      9  C   UNL     1       1.260  -4.095  -0.085  0.00  0.00    +0.068 A 
ATOM     10  C   UNL     1       0.736  -0.502  -1.252  0.00  0.00    +0.046 C 
ENDROOT
BRANCH   9  11
ATOM     11  C   UNL     1       1.228  -4.998   1.070  0.00  0.00    +0.244 C 
ATOM     12  O   UNL     1       0.200  -5.583   1.357  0.00  0.00    -0.270 OA
ATOM     13  N   UNL     1       2.337  -5.180   1.814  0.00  0.00    -0.325 N 
ATOM     14  H   UNL     1       3.157  -4.714   1.585  0.00  0.00    +0.145 HD
ATOM     15  H   UNL     1       2.316  -5.778   2.578  0.00  0.00    +0.145 HD
ENDBRANCH   9  11
BRANCH   8  16
ATOM     16  N   UNL     1       1.935  -5.843  -1.735  0.00  0.00    -0.275 N 
ATOM     17  C   UNL     1       2.234  -6.105  -3.023  0.00  0.00    +0.250 C 
ATOM     18  O   UNL     1       2.204  -5.211  -3.847  0.00  0.00    -0.270 OA
ATOM     19  H   UNL     1       1.959  -6.556  -1.077  0.00  0.00    +0.156 HD
BRANCH  17  20
ATOM     20  C   UNL     1       2.596  -7.475  -3.433  0.00  0.00    +0.053 A 
ATOM     21  C   UNL     1       2.908  -7.759  -4.771  0.00  0.00    +0.020 A 
ATOM     22  C   UNL     1       3.250  -9.043  -5.104  0.00  0.00    +0.071 A 
ATOM     23  C   UNL     1       3.266 -10.023  -4.116  0.00  0.00    +0.249 A 
ATOM     24  N   UNL     1       2.957  -9.732  -2.862  0.00  0.00    -0.328 N 
ATOM     25  C   UNL     1       2.633  -8.509  -2.496  0.00  0.00    +0.099 A 
ATOM     26  O   UNL     1       3.598 -11.295  -4.443  0.00  0.00    -0.268 OA
ATOM     27  H   UNL     1       2.969 -10.459  -2.175  0.00  0.00    +0.168 HD
ENDBRANCH  17  20
ENDBRANCH   8  16
TORSDOF 3
