REMARK  Name = ZINC01662799
REMARK  10 active torsions:
REMARK  status: ('A' for Active; 'I' for Inactive)
REMARK    1  A    between atoms: C_1  and  C_2
REMARK    2  A    between atoms: C_2  and  C_27
REMARK    3  A    between atoms: C_3  and  C_4
REMARK    4  A    between atoms: C_4  and  C_5
REMARK    5  A    between atoms: C_6  and  O_26
REMARK    6  A    between atoms: C_10  and  O_11
REMARK    7  A    between atoms: C_15  and  C_17
REMARK    8  A    between atoms: C_20  and  O_25
REMARK    9  A    between atoms: C_21  and  O_23
REMARK   10  A    between atoms: O_23  and  C_24
REMARK                            x       y       z     vdW  Elec       q    Type
REMARK                         _______ _______ _______ _____ _____    ______ ____
ROOT
ATOM      1  C   UNL     1      -6.670  -1.718   0.296  0.00  0.00    +0.040 A 
ATOM      2  C   UNL     1      -6.901  -0.347   0.342  0.00  0.00    +0.127 A 
ATOM      3  C   UNL     1      -5.848   0.542   0.487  0.00  0.00    +0.093 A 
ATOM      4  C   UNL     1      -4.549   0.069   0.586  0.00  0.00    +0.146 A 
ATOM      5  C   UNL     1      -4.312  -1.315   0.539  0.00  0.00    +0.106 A 
ATOM      6  C   UNL     1      -5.381  -2.208   0.393  0.00  0.00    +0.138 A 
ATOM      7  C   UNL     1      -2.924  -1.795   0.646  0.00  0.00    +0.197 A 
ATOM      8  O   UNL     1      -2.660  -2.986   0.611  0.00  0.00    -0.287 OA
ATOM      9  C   UNL     1      -1.907  -0.820   0.785  0.00  0.00    +0.098 A 
ATOM     10  C   UNL     1      -2.242   0.497   0.826  0.00  0.00    +0.139 A 
ATOM     11  O   UNL     1      -3.512   0.922   0.727  0.00  0.00    -0.454 OA
ENDROOT
BRANCH  10  12
ATOM     12  C   UNL     1      -1.169   1.498   0.977  0.00  0.00    +0.021 A 
ATOM     13  C   UNL     1       0.163   1.086   1.082  0.00  0.00    +0.015 A 
ATOM     14  C   UNL     1       1.164   2.022   1.224  0.00  0.00    +0.050 A 
ATOM     15  C   UNL     1       0.854   3.375   1.264  0.00  0.00    +0.158 A 
ATOM     16  C   UNL     1      -0.472   3.792   1.159  0.00  0.00    +0.162 A 
ATOM     17  C   UNL     1      -1.481   2.860   1.016  0.00  0.00    +0.061 A 
BRANCH  16  18
ATOM     18  O   UNL     1      -0.772   5.118   1.197  0.00  0.00    -0.491 OA
ATOM     19  C   UNL     1      -2.152   5.475   1.084  0.00  0.00    +0.277 C 
ENDBRANCH  16  18
BRANCH  15  20
ATOM     20  O   UNL     1       1.844   4.294   1.404  0.00  0.00    -0.503 OA
ATOM     21  H   UNL     1       2.214   4.604   0.566  0.00  0.00    +0.292 HD
ENDBRANCH  15  20
ENDBRANCH  10  12
BRANCH   6  22
ATOM     22  O   UNL     1      -5.153  -3.546   0.347  0.00  0.00    -0.506 OA
ATOM     23  H   UNL     1      -5.004  -3.889  -0.544  0.00  0.00    +0.292 HD
ENDBRANCH   6  22
BRANCH   2  24
ATOM     24  O   UNL     1      -8.170   0.124   0.245  0.00  0.00    -0.506 OA
ATOM     25  H   UNL     1      -8.455   0.304  -0.661  0.00  0.00    +0.292 HD
ENDBRANCH   2  24
BRANCH   1  26
ATOM     26  C   UNL     1      -7.827  -2.671   0.139  0.00  0.00    +0.069 C 
BRANCH  26  29
ATOM     27  C   UNL     1      -8.008  -5.309  -0.840  0.00  0.00    +0.038 C 
ATOM     28  C   UNL     1      -8.104  -4.143  -1.789  0.00  0.00    -0.079 C 
ATOM     29  C   UNL     1      -8.079  -2.918  -1.327  0.00  0.00    -0.023 C 
ATOM     30  C   UNL     1      -8.228  -4.386  -3.271  0.00  0.00    +0.038 C 
ENDBRANCH  26  29
ENDBRANCH   1  26
TORSDOF 7
