REMARK  Name = ZINC42824566
REMARK  5 active torsions:
REMARK  status: ('A' for Active; 'I' for Inactive)
REMARK    1  A    between atoms: C_2  and  C_9
REMARK    2  A    between atoms: C_4  and  N_8
REMARK    3  A    between atoms: C_6  and  N_7
REMARK    4  A    between atoms: N_13  and  C_14
REMARK    5  A    between atoms: C_14  and  C_15
REMARK                            x       y       z     vdW  Elec       q    Type
REMARK                         _______ _______ _______ _____ _____    ______ ____
ROOT
ATOM      1  C   UNL     1       0.003   1.377  -0.051  0.00  0.00    +0.034 A 
ATOM      2  C   UNL     1       1.197   2.096  -0.041  0.00  0.00    +0.024 A 
ATOM      3  C   UNL     1       2.415   1.419  -0.062  0.00  0.00    +0.034 A 
ATOM      4  C   UNL     1       2.436   0.032  -0.092  0.00  0.00    +0.027 A 
ATOM      5  C   UNL     1       1.245  -0.682  -0.103  0.00  0.00    +0.045 A 
ATOM      6  C   UNL     1       0.030  -0.010  -0.082  0.00  0.00    +0.027 A 
ENDROOT
BRANCH   2   7
ATOM      7  C   UNL     1       1.172   3.576  -0.009  0.00  0.00    +0.182 A 
ATOM      8  N   UNL     1       0.160   4.348  -0.344  0.00  0.00    -0.108 NA
ATOM      9  N   UNL     1       0.472   5.586  -0.200  0.00  0.00    -0.023 NA
ATOM     10  N   UNL     1       1.682   5.696   0.230  0.00  0.00    -0.044 NA
ATOM     11  N   UNL     1       2.184   4.391   0.377  0.00  0.00    -0.223 N 
BRANCH  11  12
ATOM     12  C   UNL     1       3.515   3.997   0.845  0.00  0.00    +0.179 C 
BRANCH  12  13
ATOM     13  C   UNL     1       4.489   3.993  -0.335  0.00  0.00    +0.140 C 
ATOM     14  C   UNL     1       5.849   3.462   0.127  0.00  0.00    +0.033 C 
ATOM     15  C   UNL     1       6.835   3.518  -1.044  0.00  0.00    +0.005 C 
ATOM     16  C   UNL     1       6.918   4.957  -1.560  0.00  0.00    +0.028 C 
ATOM     17  C   UNL     1       5.517   5.430  -1.957  0.00  0.00    +0.160 C 
ATOM     18  O   UNL     1       4.642   5.324  -0.832  0.00  0.00    -0.375 OA
ENDBRANCH  12  13
ENDBRANCH  11  12
ENDBRANCH   2   7
BRANCH   6  19
ATOM     19  N   UNL     1      -1.167  -0.731  -0.093  0.00  0.00    -0.358 N 
ATOM     20  H   UNL     1      -2.015  -0.262  -0.078  0.00  0.00    +0.142 HD
ATOM     21  H   UNL     1      -1.148  -1.700  -0.114  0.00  0.00    +0.142 HD
ENDBRANCH   6  19
BRANCH   4  22
ATOM     22  N   UNL     1       3.657  -0.647  -0.113  0.00  0.00    -0.358 N 
ATOM     23  H   UNL     1       4.489  -0.149  -0.105  0.00  0.00    +0.142 HD
ATOM     24  H   UNL     1       3.672  -1.617  -0.134  0.00  0.00    +0.142 HD
ENDBRANCH   4  22
TORSDOF 5
