REMARK  Name = ZINC01055022
REMARK  3 active torsions:
REMARK  status: ('A' for Active; 'I' for Inactive)
REMARK    1  A    between atoms: C_3  and  C_6
REMARK    2  A    between atoms: C_6  and  N_7
REMARK    3  A    between atoms: C_8  and  C_10
REMARK                            x       y       z     vdW  Elec       q    Type
REMARK                         _______ _______ _______ _____ _____    ______ ____
ROOT
ATOM      1  N   UNL     1       4.101   0.607   1.347  0.00  0.00    -0.304 N 
ATOM      2  C   UNL     1       5.428   0.575   1.580  0.00  0.00    +0.251 C 
ATOM      3  O   UNL     1       6.209   0.561   0.647  0.00  0.00    -0.270 OA
ATOM      4  H   UNL     1       3.478   0.617   2.090  0.00  0.00    +0.149 HD
ENDROOT
BRANCH   2   5
ATOM      5  C   UNL     1       5.930   0.556   2.957  0.00  0.00    +0.074 A 
ATOM      6  C   UNL     1       7.234   0.529   3.409  0.00  0.00    +0.024 A 
ATOM      7  C   UNL     1       7.426   0.515   4.787  0.00  0.00    -0.036 A 
ATOM      8  C   UNL     1       6.304   0.527   5.555  0.00  0.00    -0.006 A 
ATOM      9  S   UNL     1       5.017   0.570   4.487  0.00  0.00    -0.088 S 
ATOM     10  C   UNL     1       6.216   0.510   7.052  0.00  0.00    +0.043 C 
ATOM     11  C   UNL     1       7.465   1.169   7.646  0.00  0.00    +0.005 C 
ATOM     12  C   UNL     1       8.534   0.098   7.841  0.00  0.00    +0.001 C 
ATOM     13  C   UNL     1       8.906  -0.540   6.506  0.00  0.00    +0.005 C 
ATOM     14  C   UNL     1       8.829   0.490   5.384  0.00  0.00    +0.036 C 
ENDBRANCH   2   5
BRANCH   1  15
ATOM     15  C   UNL     1       3.599   0.625  -0.029  0.00  0.00    +0.179 C 
BRANCH  15  18
ATOM     16  C   UNL     1      -0.016   1.341   0.009  0.00  0.00    +0.041 A 
ATOM     17  C   UNL     1       1.331   1.769  -0.001  0.00  0.00    +0.046 A 
ATOM     18  C   UNL     1       2.092   0.660  -0.014  0.00  0.00    +0.122 A 
ATOM     19  O   UNL     1       1.282  -0.411  -0.012  0.00  0.00    -0.466 OA
ATOM     20  C   UNL     1       0.002  -0.004   0.002  0.00  0.00    +0.195 A 
ENDBRANCH  15  18
ENDBRANCH   1  15
TORSDOF 3
