REMARK  Name = ZINC36824648
REMARK  12 active torsions:
REMARK  status: ('A' for Active; 'I' for Inactive)
REMARK    1  A    between atoms: C_1  and  C_2
REMARK    2  A    between atoms: C_2  and  C_3
REMARK    3  A    between atoms: C_3  and  C_5
REMARK    4  A    between atoms: C_3  and  N_6
REMARK    5  A    between atoms: C_7  and  C_9
REMARK    6  A    between atoms: C_9  and  O_10
REMARK    7  A    between atoms: O_10  and  C_11
REMARK    8  A    between atoms: C_12  and  O_20
REMARK    9  A    between atoms: C_14  and  C_18
REMARK   10  A    between atoms: C_18  and  N_19
REMARK   11  A    between atoms: O_20  and  C_21
REMARK   12  A    between atoms: C_21  and  C_22
REMARK                            x       y       z     vdW  Elec       q    Type
REMARK                         _______ _______ _______ _____ _____    ______ ____
ROOT
ATOM      1  C   UNL     1       0.210   0.778   7.177  0.00  0.00    +0.176 A 
ATOM      2  C   UNL     1       0.126   2.114   7.556  0.00  0.00    +0.163 A 
ATOM      3  C   UNL     1      -0.425   2.450   8.782  0.00  0.00    +0.051 A 
ATOM      4  C   UNL     1      -0.891   1.459   9.626  0.00  0.00    -0.060 A 
ATOM      5  C   UNL     1      -0.808   0.132   9.251  0.00  0.00    +0.021 A 
ATOM      6  C   UNL     1      -0.265  -0.211   8.025  0.00  0.00    +0.063 A 
ATOM      7 BR   UNL     1      -0.161  -2.027   7.511  0.00  0.00    -0.046 Br
ENDROOT
BRANCH   1   8
ATOM      8  O   UNL     1       0.750   0.443   5.975  0.00  0.00    -0.478 OA
BRANCH   8   9
ATOM      9  C   UNL     1      -0.142   0.370   4.861  0.00  0.00    +0.324 C 
BRANCH   9  11
ATOM     10  N   UNL     1      -0.008  -0.140   2.444  0.00  0.00    -0.310 N 
ATOM     11  C   UNL     1       0.630  -0.011   3.624  0.00  0.00    +0.251 C 
ATOM     12  O   UNL     1       1.826  -0.202   3.690  0.00  0.00    -0.272 OA
ATOM     13  H   UNL     1      -0.965   0.013   2.391  0.00  0.00    +0.149 HD
BRANCH  10  14
ATOM     14  C   UNL     1       0.742  -0.511   1.242  0.00  0.00    +0.070 C 
ATOM     15  C   UNL     1       0.872  -2.034   1.171  0.00  0.00    +0.028 C 
BRANCH  14  17
ATOM     16  C   UNL     1      -0.019   1.526   0.010  0.00  0.00    +0.005 C 
ATOM     17  C   UNL     1       0.002  -0.004   0.002  0.00  0.00    +0.018 C 
ENDBRANCH  14  17
ENDBRANCH  10  14
ENDBRANCH   9  11
ENDBRANCH   8   9
ENDBRANCH   1   8
BRANCH   4  18
ATOM     18  C   UNL     1      -1.490   1.827  10.959  0.00  0.00    -0.050 C 
BRANCH  18  19
ATOM     19  N   UNL     1      -2.937   2.035  10.805  0.00  0.00    +0.381 N 
ATOM     20  H   UNL     1      -3.101   2.781  10.145  0.00  0.00    -0.090 HD
ATOM     21  H   UNL     1      -3.364   1.187  10.467  0.00  0.00    -0.090 HD
ATOM     22  H   UNL     1      -3.338   2.282  11.698  0.00  0.00    -0.090 HD
ENDBRANCH  18  19
ENDBRANCH   4  18
BRANCH   2  23
ATOM     23  O   UNL     1       0.585   3.088   6.726  0.00  0.00    -0.489 OA
BRANCH  23  24
ATOM     24  C   UNL     1       0.467   4.438   7.180  0.00  0.00    +0.226 C 
ATOM     25  C   UNL     1       1.032   5.385   6.120  0.00  0.00    +0.048 C 
ENDBRANCH  23  24
ENDBRANCH   2  23
TORSDOF 9
