REMARK  Name = ZINC48545242
REMARK  7 active torsions:
REMARK  status: ('A' for Active; 'I' for Inactive)
REMARK    1  A    between atoms: C_1  and  C_2
REMARK    2  A    between atoms: C_2  and  C_3
REMARK    3  A    between atoms: C_3  and  C_21
REMARK    4  A    between atoms: N_6  and  C_10
REMARK    5  A    between atoms: C_10  and  C_11
REMARK    6  A    between atoms: C_11  and  C_13
REMARK    7  A    between atoms: C_11  and  O_20
REMARK                            x       y       z     vdW  Elec       q    Type
REMARK                         _______ _______ _______ _____ _____    ______ ____
ROOT
ATOM      1  C   UNL     1      -1.433  -0.534   0.013  0.00  0.00    +0.109 C 
ATOM      2  C   UNL     1      -1.445  -2.045  -0.103  0.00  0.00    +0.246 C 
ATOM      3  O   UNL     1      -0.960  -2.843   0.670  0.00  0.00    -0.273 OA
ATOM      4  N   UNL     1      -2.108  -2.317  -1.245  0.00  0.00    -0.221 N 
ATOM      5  C   UNL     1      -2.513  -1.200  -1.859  0.00  0.00    +0.309 C 
ATOM      6  O   UNL     1      -3.131  -1.190  -2.906  0.00  0.00    -0.252 OA
ATOM      7  N   UNL     1      -2.159  -0.088  -1.189  0.00  0.00    -0.285 N 
ATOM      8  C   UNL     1      -2.162  -0.082   1.280  0.00  0.00    +0.041 C 
ATOM      9  H   UNL     1      -2.346   0.828  -1.447  0.00  0.00    +0.151 HD
ENDROOT
BRANCH   1  11
ATOM     10  C   UNL     1      -0.019   1.526   0.010  0.00  0.00    +0.006 C 
ATOM     11  C   UNL     1       0.002  -0.004   0.002  0.00  0.00    +0.031 C 
ENDBRANCH   1  11
BRANCH   4  12
ATOM     12  C   UNL     1      -2.355  -3.670  -1.750  0.00  0.00    +0.154 C 
BRANCH  12  13
ATOM     13  C   UNL     1      -3.682  -4.189  -1.194  0.00  0.00    +0.164 C 
BRANCH  13  14
ATOM     14  C   UNL     1      -3.877  -5.623  -1.613  0.00  0.00    +0.001 A 
ATOM     15  C   UNL     1      -4.610  -5.918  -2.747  0.00  0.00    +0.007 A 
ATOM     16  C   UNL     1      -4.789  -7.233  -3.132  0.00  0.00    +0.000 A 
ATOM     17  C   UNL     1      -4.234  -8.255  -2.384  0.00  0.00    +0.001 A 
ATOM     18  C   UNL     1      -3.501  -7.961  -1.250  0.00  0.00    +0.020 A 
ATOM     19  C   UNL     1      -3.317  -6.644  -0.867  0.00  0.00    +0.047 A 
ATOM     20 CL   UNL     1      -2.391  -6.274   0.554  0.00  0.00    -0.083 Cl
ENDBRANCH  13  14
BRANCH  13  21
ATOM     21  O   UNL     1      -4.755  -3.394  -1.702  0.00  0.00    -0.386 OA
ATOM     22  H   UNL     1      -4.827  -3.401  -2.667  0.00  0.00    +0.210 HD
ENDBRANCH  13  21
ENDBRANCH  12  13
ENDBRANCH   4  12
TORSDOF 5
