REMARK  Name = ZINC40954777
REMARK  11 active torsions:
REMARK  status: ('A' for Active; 'I' for Inactive)
REMARK    1  A    between atoms: C_1  and  C_2
REMARK    2  A    between atoms: C_2  and  C_4
REMARK    3  A    between atoms: C_2  and  N_7
REMARK    4  A    between atoms: C_4  and  C_5
REMARK    5  A    between atoms: C_4  and  C_6
REMARK    6  A    between atoms: C_10  and  C_14
REMARK    7  A    between atoms: C_15  and  C_24
REMARK    8  A    between atoms: C_17  and  S_20
REMARK    9  A    between atoms: S_20  and  C_21
REMARK   10  A    between atoms: C_21  and  C_22
REMARK   11  A    between atoms: C_22  and  O_23
REMARK                            x       y       z     vdW  Elec       q    Type
REMARK                         _______ _______ _______ _____ _____    ______ ____
ROOT
ATOM      1  C   UNL     1       4.987  -0.006  -1.163  0.00  0.00    +0.098 A 
ATOM      2  C   UNL     1       6.246   0.563  -1.163  0.00  0.00    +0.075 A 
ATOM      3  N   UNL     1       6.599   0.728  -2.488  0.00  0.00    -0.332 N 
ATOM      4  C   UNL     1       5.563   0.264  -3.241  0.00  0.00    +0.167 A 
ATOM      5  N   UNL     1       4.615  -0.175  -2.448  0.00  0.00    -0.221 NA
ATOM      6  H   UNL     1       7.429   1.105  -2.820  0.00  0.00    +0.168 HD
ENDROOT
BRANCH   1  10
ATOM      7  N   UNL     1       0.711  -0.489   1.189  0.00  0.00    -0.328 N 
ATOM      8  C   UNL     1       2.096  -0.603   1.173  0.00  0.00    +0.097 A 
ATOM      9  C   UNL     1       2.801  -0.250   0.031  0.00  0.00    +0.051 A 
ATOM     10  C   UNL     1       4.193  -0.370   0.031  0.00  0.00    +0.007 A 
ATOM     11  C   UNL     1       4.817  -0.845   1.193  0.00  0.00    +0.027 A 
ATOM     12  C   UNL     1       4.044  -1.174   2.284  0.00  0.00    +0.085 A 
ATOM     13  N   UNL     1       2.730  -1.043   2.251  0.00  0.00    -0.350 N 
ATOM     14  H   UNL     1       0.213  -0.731   1.986  0.00  0.00    +0.148 HD
ATOM     15  H   UNL     1       2.213  -1.279   3.037  0.00  0.00    +0.166 HD
BRANCH   7  17
ATOM     16  C   UNL     1      -0.019   1.526   0.010  0.00  0.00    +0.028 C 
ATOM     17  C   UNL     1       0.002  -0.004   0.002  0.00  0.00    +0.071 C 
BRANCH  17  18
ATOM     18  C   UNL     1      -1.433  -0.534   0.013  0.00  0.00    +0.003 C 
ATOM     19  C   UNL     1      -2.187   0.060   1.205  0.00  0.00    +0.009 C 
ATOM     20  C   UNL     1      -2.135  -0.131  -1.286  0.00  0.00    +0.009 C 
ENDBRANCH  17  18
ENDBRANCH   7  17
ENDBRANCH   1  10
BRANCH   2  21
ATOM     21  C   UNL     1       7.053   0.923   0.019  0.00  0.00    +0.001 A 
ATOM     22  C   UNL     1       6.461   1.584   1.098  0.00  0.00    +0.013 A 
ATOM     23  C   UNL     1       7.221   1.918   2.200  0.00  0.00    +0.039 A 
ATOM     24  C   UNL     1       8.569   1.599   2.238  0.00  0.00    +0.123 A 
ATOM     25  C   UNL     1       9.162   0.943   1.170  0.00  0.00    +0.039 A 
ATOM     26  C   UNL     1       8.412   0.599   0.066  0.00  0.00    +0.013 A 
ATOM     27  F   UNL     1       9.308   1.929   3.319  0.00  0.00    -0.205 F 
ENDBRANCH   2  21
BRANCH   4  28
ATOM     28  S   UNL     1       5.509   0.248  -5.003  0.00  0.00    -0.086 S 
BRANCH  28  29
ATOM     29  C   UNL     1       3.893  -0.481  -5.386  0.00  0.00    +0.105 C 
BRANCH  29  30
ATOM     30  C   UNL     1       3.713  -0.555  -6.903  0.00  0.00    +0.167 C 
BRANCH  30  31
ATOM     31  O   UNL     1       2.440  -1.130  -7.205  0.00  0.00    -0.394 OA
ATOM     32  H   UNL     1       2.258  -1.208  -8.151  0.00  0.00    +0.209 HD
ENDBRANCH  30  31
ENDBRANCH  29  30
ENDBRANCH  28  29
ENDBRANCH   4  28
TORSDOF 8
