REMARK  Name = ZINC04710697
REMARK  7 active torsions:
REMARK  status: ('A' for Active; 'I' for Inactive)
REMARK    1  A    between atoms: C_1  and  C_2
REMARK    2  A    between atoms: C_4  and  C_23
REMARK    3  A    between atoms: C_6  and  N_22
REMARK    4  A    between atoms: C_7  and  C_11
REMARK    5  A    between atoms: N_13  and  C_14
REMARK    6  A    between atoms: C_23  and  O_24
REMARK    7  A    between atoms: O_24  and  C_25
REMARK                            x       y       z     vdW  Elec       q    Type
REMARK                         _______ _______ _______ _____ _____    ______ ____
ROOT
ATOM      1  C   UNL     1      10.498   6.922  -0.723  0.00  0.00    +0.065 C 
ATOM      2  C   UNL     1       9.024   6.622  -0.625  0.00  0.00    +0.040 A 
ATOM      3  C   UNL     1       8.106   7.662  -0.650  0.00  0.00    +0.029 A 
ATOM      4  C   UNL     1       6.759   7.403  -0.560  0.00  0.00    -0.009 A 
ATOM      5  C   UNL     1       6.324   6.059  -0.442  0.00  0.00    +0.034 A 
ATOM      6  C   UNL     1       4.965   5.550  -0.340  0.00  0.00    +0.054 A 
ATOM      7  C   UNL     1       4.784   4.189  -0.228  0.00  0.00    +0.097 A 
ATOM      8  S   UNL     1       6.445   3.546  -0.271  0.00  0.00    -0.062 S 
ATOM      9  C   UNL     1       7.337   5.074  -0.425  0.00  0.00    +0.111 A 
ATOM     10  N   UNL     1       8.616   5.373  -0.514  0.00  0.00    -0.245 NA
ENDROOT
BRANCH   7  11
ATOM     11  C   UNL     1       3.567   3.471  -0.114  0.00  0.00    +0.257 C 
ATOM     12  O   UNL     1       2.506   4.070  -0.101  0.00  0.00    -0.269 OA
ATOM     13  N   UNL     1       3.584   2.127  -0.020  0.00  0.00    -0.281 N 
ATOM     14  H   UNL     1       4.429   1.656   0.046  0.00  0.00    +0.155 HD
BRANCH  13  15
ATOM     15  C   UNL     1       2.382   1.411  -0.019  0.00  0.00    +0.035 A 
ATOM     16  C   UNL     1       2.271   0.240   0.721  0.00  0.00    +0.026 A 
ATOM     17  C   UNL     1       1.084  -0.466   0.721  0.00  0.00    +0.041 A 
ATOM     18  C   UNL     1       0.004  -0.008  -0.016  0.00  0.00    +0.142 A 
ATOM     19  C   UNL     1       0.112   1.159  -0.754  0.00  0.00    +0.078 A 
ATOM     20  C   UNL     1       1.299   1.869  -0.757  0.00  0.00    +0.046 A 
ATOM     21 CL   UNL     1      -1.242   1.731  -1.677  0.00  0.00    -0.081 Cl
ATOM     22  F   UNL     1      -1.156  -0.701  -0.015  0.00  0.00    -0.204 F 
ENDBRANCH  13  15
ENDBRANCH   7  11
BRANCH   6  23
ATOM     23  N   UNL     1       3.879   6.414  -0.350  0.00  0.00    -0.356 N 
ATOM     24  H   UNL     1       2.978   6.062  -0.279  0.00  0.00    +0.142 HD
ATOM     25  H   UNL     1       4.021   7.370  -0.429  0.00  0.00    +0.142 HD
ENDBRANCH   6  23
BRANCH   4  26
ATOM     26  C   UNL     1       5.760   8.531  -0.587  0.00  0.00    +0.195 C 
BRANCH  26  27
ATOM     27  O   UNL     1       6.450   9.776  -0.712  0.00  0.00    -0.378 OA
ATOM     28  C   UNL     1       5.590  10.916  -0.747  0.00  0.00    +0.194 C 
ENDBRANCH  26  27
ENDBRANCH   4  26
TORSDOF 5
