REMARK  Name = ZINC55575796
REMARK  4 active torsions:
REMARK  status: ('A' for Active; 'I' for Inactive)
REMARK    1  A    between atoms: C_7  and  N_13
REMARK    2  A    between atoms: C_8  and  C_10
REMARK    3  A    between atoms: N_13  and  S_14
REMARK    4  A    between atoms: S_14  and  C_17
REMARK                            x       y       z     vdW  Elec       q    Type
REMARK                         _______ _______ _______ _____ _____    ______ ____
ROOT
ATOM      1  C   UNL     1       0.087   1.448  -0.033  0.00  0.00    +0.001 A 
ATOM      2  C   UNL     1       1.297   2.128  -0.031  0.00  0.00    +0.004 A 
ATOM      3  C   UNL     1       2.491   1.439  -0.022  0.00  0.00    +0.047 A 
ATOM      4  C   UNL     1       2.488   0.048  -0.014  0.00  0.00    +0.138 A 
ATOM      5  C   UNL     1       1.259  -0.633  -0.015  0.00  0.00    +0.045 A 
ATOM      6  C   UNL     1       0.061   0.082  -0.024  0.00  0.00    +0.013 A 
ATOM      7  C   UNL     1       1.595  -2.063  -0.004  0.00  0.00    +0.132 A 
ATOM      8  C   UNL     1       2.962  -2.126   0.002  0.00  0.00    +0.215 A 
ATOM      9  O   UNL     1       3.472  -0.873  -0.004  0.00  0.00    -0.448 OA
ENDROOT
BRANCH   8  10
ATOM     10  C   UNL     1       3.725  -3.319   0.012  0.00  0.00    +0.279 C 
ATOM     11  O   UNL     1       3.170  -4.399  -0.081  0.00  0.00    -0.267 OA
ATOM     12  N   UNL     1       5.067  -3.260   0.126  0.00  0.00    -0.323 N 
ATOM     13  H   UNL     1       5.510  -2.400   0.201  0.00  0.00    +0.145 HD
ATOM     14  H   UNL     1       5.590  -4.077   0.134  0.00  0.00    +0.145 HD
ENDBRANCH   8  10
BRANCH   7  15
ATOM     15  N   UNL     1       0.709  -3.128  -0.001  0.00  0.00    -0.093 NA
BRANCH  15  16
ATOM     16  S   UNL     1      -0.917  -2.853   0.152  0.00  0.00    +0.095 S 
ATOM     17  O   UNL     1      -1.103  -2.206   1.403  0.00  0.00    -0.148 OA
ATOM     18  O   UNL     1      -1.349  -2.280  -1.074  0.00  0.00    -0.148 OA
BRANCH  16  19
ATOM     19  C   UNL     1      -1.701  -4.426   0.277  0.00  0.00    +0.147 A 
ATOM     20  C   UNL     1      -2.357  -4.781   1.441  0.00  0.00    +0.032 A 
ATOM     21  C   UNL     1      -2.973  -6.014   1.540  0.00  0.00    +0.004 A 
ATOM     22  C   UNL     1      -2.934  -6.895   0.476  0.00  0.00    +0.023 A 
ATOM     23  C   UNL     1      -2.279  -6.543  -0.690  0.00  0.00    +0.078 A 
ATOM     24  C   UNL     1      -1.666  -5.304  -0.792  0.00  0.00    +0.168 A 
ATOM     25  F   UNL     1      -1.030  -4.956  -1.932  0.00  0.00    -0.202 F 
ATOM     26 CL   UNL     1      -2.229  -7.650  -2.027  0.00  0.00    -0.081 Cl
ENDBRANCH  16  19
ENDBRANCH  15  16
ENDBRANCH   7  15
TORSDOF 4
