REMARK  Name = ZINC39523721
REMARK  2 active torsions:
REMARK  status: ('A' for Active; 'I' for Inactive)
REMARK    1  A    between atoms: C_3  and  O_16
REMARK    2  A    between atoms: C_11  and  O_15
REMARK                            x       y       z     vdW  Elec       q    Type
REMARK                         _______ _______ _______ _____ _____    ______ ____
ROOT
ATOM      1  C   UNL     1      -0.019   1.526   0.010  0.00  0.00    +0.004 C 
ATOM      2  C   UNL     1       1.417   2.056  -0.000  0.00  0.00    +0.031 C 
ATOM      3  C   UNL     1       2.134   1.562  -1.259  0.00  0.00    +0.116 C 
ATOM      4  C   UNL     1       2.154   0.032  -1.266  0.00  0.00    +0.056 C 
ATOM      5  C   UNL     1       0.718  -0.497  -1.257  0.00  0.00    +0.057 C 
ATOM      6  C   UNL     1       0.002  -0.004   0.002  0.00  0.00    +0.025 C 
ATOM      7  C   UNL     1      -0.020   0.014  -2.496  0.00  0.00    +0.025 C 
ATOM      8  C   UNL     1      -1.450  -0.534  -2.495  0.00  0.00    +0.006 C 
ATOM      9  C   UNL     1      -1.402  -2.064  -2.458  0.00  0.00    +0.050 C 
ATOM     10  C   UNL     1      -0.624  -2.514  -1.219  0.00  0.00    +0.215 C 
ATOM     11  N   UNL     1       0.737  -1.965  -1.268  0.00  0.00    -0.111 NA
ATOM     12  F   UNL     1       1.385  -2.416  -2.301  0.00  0.00    -0.130 F 
ENDROOT
BRANCH  10  13
ATOM     13  O   UNL     1      -1.286  -2.043  -0.044  0.00  0.00    -0.375 OA
ATOM     14  H   UNL     1      -2.192  -2.368   0.054  0.00  0.00    +0.212 HD
ENDBRANCH  10  13
BRANCH   3  15
ATOM     15  O   UNL     1       3.474   2.056  -1.268  0.00  0.00    -0.392 OA
ATOM     16  H   UNL     1       3.538   3.021  -1.264  0.00  0.00    +0.210 HD
ENDBRANCH   3  15
TORSDOF 2
