REMARK  Name = ZINC58418168
REMARK  8 active torsions:
REMARK  status: ('A' for Active; 'I' for Inactive)
REMARK    1  A    between atoms: C_1  and  C_2
REMARK    2  A    between atoms: C_2  and  C_26
REMARK    3  A    between atoms: C_3  and  C_4
REMARK    4  A    between atoms: C_6  and  C_11
REMARK    5  A    between atoms: C_8  and  C_9
REMARK    6  A    between atoms: C_8  and  C_10
REMARK    7  A    between atoms: N_17  and  C_19
REMARK    8  A    between atoms: C_19  and  C_20
REMARK                            x       y       z     vdW  Elec       q    Type
REMARK                         _______ _______ _______ _____ _____    ______ ____
ROOT
ATOM      1  C   UNL     1       0.109  -2.259   3.993  0.00  0.00    +0.222 C 
ATOM      2  O   UNL     1      -0.876  -2.902   3.697  0.00  0.00    -0.275 OA
ATOM      3  N   UNL     1       1.239  -2.890   4.368  0.00  0.00    -0.269 N 
ATOM      4  C   UNL     1       1.276  -4.291   4.417  0.00  0.00    +0.147 A 
ATOM      5  C   UNL     1       0.216  -5.155   4.098  0.00  0.00    +0.065 A 
ATOM      6  C   UNL     1       0.650  -6.425   4.272  0.00  0.00    +0.110 A 
ATOM      7  N   UNL     1       1.934  -6.370   4.685  0.00  0.00    -0.264 N 
ATOM      8  N   UNL     1       2.308  -5.023   4.764  0.00  0.00    -0.156 NA
ATOM      9  H   UNL     1       2.027  -2.376   4.604  0.00  0.00    +0.156 HD
ENDROOT
BRANCH   1  11
ATOM     10  C   UNL     1       1.024  -0.055   2.968  0.00  0.00    +0.030 C 
ATOM     11  C   UNL     1       0.070  -0.753   3.939  0.00  0.00    +0.089 C 
ATOM     12  C   UNL     1      -0.475  -0.104   2.665  0.00  0.00    -0.016 C 
ATOM     13  C   UNL     1      -1.270   1.194   2.817  0.00  0.00    +0.012 C 
ATOM     14  C   UNL     1      -0.938  -1.033   1.541  0.00  0.00    +0.012 C 
BRANCH  10  17
ATOM     15  C   UNL     1       3.070   1.112   1.424  0.00  0.00    +0.038 C 
ATOM     16  C   UNL     1       2.882  -0.383   1.419  0.00  0.00    -0.079 C 
ATOM     17  C   UNL     1       1.931  -0.926   2.138  0.00  0.00    -0.023 C 
ATOM     18  C   UNL     1       3.789  -1.254   0.589  0.00  0.00    +0.038 C 
ENDBRANCH  10  17
ENDBRANCH   1  11
BRANCH   7  19
ATOM     19  C   UNL     1       2.789  -7.520   4.992  0.00  0.00    +0.198 C 
BRANCH  19  20
ATOM     20  C   UNL     1       4.052  -7.439   4.174  0.00  0.00    +0.063 A 
ATOM     21  C   UNL     1       5.280  -7.482   4.807  0.00  0.00    +0.025 A 
ATOM     22  C   UNL     1       6.436  -7.407   4.046  0.00  0.00    +0.003 A 
ATOM     23  C   UNL     1       6.313  -7.291   2.670  0.00  0.00    +0.020 A 
ATOM     24  C   UNL     1       5.051  -7.255   2.107  0.00  0.00    +0.111 A 
ATOM     25  N   UNL     1       3.973  -7.335   2.862  0.00  0.00    -0.258 NA
ENDBRANCH  19  20
ENDBRANCH   7  19
TORSDOF 4
