REMARK  Name = ZINC10152481
REMARK  6 active torsions:
REMARK  status: ('A' for Active; 'I' for Inactive)
REMARK    1  A    between atoms: C_1  and  C_2
REMARK    2  A    between atoms: C_2  and  C_3
REMARK    3  A    between atoms: C_2  and  N_4
REMARK    4  A    between atoms: C_5  and  C_7
REMARK    5  A    between atoms: C_10  and  C_19
REMARK    6  A    between atoms: C_10  and  O_23
REMARK                            x       y       z     vdW  Elec       q    Type
REMARK                         _______ _______ _______ _____ _____    ______ ____
ROOT
ATOM      1  C   UNL     1       1.606  -2.062  -4.119  0.00  0.00    +0.323 C 
ATOM      2  O   UNL     1       2.527  -2.057  -4.910  0.00  0.00    -0.263 OA
ATOM      3  N   UNL     1       1.648  -1.267  -3.031  0.00  0.00    -0.144 N 
ATOM      4  C   UNL     1       2.746  -0.348  -2.679  0.00  0.00    +0.260 C 
ATOM      5  C   UNL     1       2.336   0.171  -1.295  0.00  0.00    +0.096 C 
ATOM      6  C   UNL     1       2.212   1.696  -1.269  0.00  0.00    +0.014 C 
ATOM      7  C   UNL     1       1.512   2.101   0.032  0.00  0.00    +0.001 C 
ATOM      8  C   UNL     1       0.077   1.581   0.073  0.00  0.00    +0.006 C 
ATOM      9  C   UNL     1       0.068   0.043   0.062  0.00  0.00    +0.053 C 
ATOM     10  C   UNL     1       0.930  -0.384  -1.107  0.00  0.00    +0.045 C 
ATOM     11  N   UNL     1       0.660  -1.178  -2.049  0.00  0.00    -0.183 NA
ENDROOT
BRANCH   1  13
ATOM     12  N   UNL     1       0.385  -3.741  -5.440  0.00  0.00    -0.305 N 
ATOM     13  C   UNL     1       0.427  -2.946  -4.352  0.00  0.00    +0.301 C 
ATOM     14  O   UNL     1      -0.494  -2.951  -3.562  0.00  0.00    -0.265 OA
ATOM     15  H   UNL     1       1.121  -3.737  -6.072  0.00  0.00    +0.149 HD
BRANCH  12  17
ATOM     16  C   UNL     1      -0.898  -4.908  -7.164  0.00  0.00    +0.027 C 
ATOM     17  C   UNL     1      -0.773  -4.609  -5.668  0.00  0.00    +0.067 C 
ATOM     18  C   UNL     1      -0.587  -5.919  -4.900  0.00  0.00    +0.027 C 
ENDBRANCH  12  17
ENDBRANCH   1  13
BRANCH   4  19
ATOM     19  C   UNL     1       2.832   0.803  -3.684  0.00  0.00    +0.438 C 
ATOM     20  F   UNL     1       1.581   1.420  -3.792  0.00  0.00    -0.166 F 
ATOM     21  F   UNL     1       3.777   1.736  -3.245  0.00  0.00    -0.166 F 
ATOM     22  F   UNL     1       3.215   0.303  -4.933  0.00  0.00    -0.166 F 
ENDBRANCH   4  19
BRANCH   4  23
ATOM     23  O   UNL     1       3.989  -1.050  -2.606  0.00  0.00    -0.363 OA
ATOM     24  H   UNL     1       4.257  -1.462  -3.439  0.00  0.00    +0.212 HD
ENDBRANCH   4  23
TORSDOF 4
