REMARK  Name = ZINC08636479
REMARK  7 active torsions:
REMARK  status: ('A' for Active; 'I' for Inactive)
REMARK    1  A    between atoms: C_4  and  C_7
REMARK    2  A    between atoms: C_7  and  N_8
REMARK    3  A    between atoms: C_9  and  C_11
REMARK    4  A    between atoms: C_14  and  O_38
REMARK    5  A    between atoms: C_16  and  O_37
REMARK    6  A    between atoms: N_22  and  C_26
REMARK    7  A    between atoms: C_29  and  N_32
REMARK                            x       y       z     vdW  Elec       q    Type
REMARK                         _______ _______ _______ _____ _____    ______ ____
ROOT
ATOM      1  C   UNL     1      -0.902  -1.282   2.831  0.00  0.00    +0.100 C 
ATOM      2  C   UNL     1       0.530  -0.812   2.930  0.00  0.00    +0.048 C 
ATOM      3  C   UNL     1       1.304  -1.145   1.666  0.00  0.00    +0.146 C 
ATOM      4  C   UNL     1       0.665  -0.548   0.439  0.00  0.00    +0.165 C 
ATOM      5  C   UNL     1      -0.809  -0.840   0.279  0.00  0.00    +0.124 C 
ATOM      6  C   UNL     1      -1.602  -0.952   1.561  0.00  0.00    +0.115 C 
ATOM      7  N   UNL     1      -2.415   0.263   1.625  0.00  0.00    -0.277 N 
ATOM      8  C   UNL     1      -2.292   0.906   0.450  0.00  0.00    +0.138 C 
ATOM      9  S   UNL     1      -3.148   2.340   0.075  0.00  0.00    -0.018 S 
ATOM     10  N   UNL     1      -1.434   0.318  -0.406  0.00  0.00    -0.319 N 
ATOM     11  H   UNL     1      -1.252   0.601  -1.315  0.00  0.00    +0.148 HD
ENDROOT
BRANCH   7  12
ATOM     12  C   UNL     1      -3.184   0.682   2.716  0.00  0.00    +0.036 A 
ATOM     13  C   UNL     1      -4.242  -0.100   3.162  0.00  0.00    +0.025 A 
ATOM     14  C   UNL     1      -4.997   0.311   4.242  0.00  0.00    +0.029 A 
ATOM     15  C   UNL     1      -4.706   1.512   4.876  0.00  0.00    +0.065 A 
ATOM     16  C   UNL     1      -3.652   2.296   4.427  0.00  0.00    +0.029 A 
ATOM     17  C   UNL     1      -2.893   1.883   3.350  0.00  0.00    +0.025 A 
BRANCH  15  18
ATOM     18  N   UNL     1      -5.477   1.932   5.969  0.00  0.00    -0.240 N 
ATOM     19  C   UNL     1      -6.529   1.270   6.502  0.00  0.00    +0.114 A 
ATOM     20  C   UNL     1      -6.994   2.004   7.540  0.00  0.00    +0.041 A 
ATOM     21  C   UNL     1      -6.207   3.156   7.640  0.00  0.00    +0.135 A 
ATOM     22  N   UNL     1      -5.298   3.114   6.699  0.00  0.00    -0.175 NA
ENDBRANCH  15  18
ENDBRANCH   7  12
BRANCH   1  24
ATOM     23  N   UNL     1      -1.166   0.370   4.653  0.00  0.00    -0.311 N 
ATOM     24  C   UNL     1      -1.678  -0.674   3.970  0.00  0.00    +0.218 C 
ATOM     25  O   UNL     1      -2.763  -1.122   4.272  0.00  0.00    -0.275 OA
ATOM     26  H   UNL     1      -0.360   0.807   4.337  0.00  0.00    +0.149 HD
BRANCH  23  27
ATOM     27  C   UNL     1      -1.827   0.843   5.871  0.00  0.00    +0.139 C 
BRANCH  27  31
ATOM     28  C   UNL     1       0.564   3.869   7.706  0.00  0.00    +0.000 A 
ATOM     29  C   UNL     1      -0.395   4.217   6.774  0.00  0.00    +0.000 A 
ATOM     30  C   UNL     1      -1.169   3.238   6.180  0.00  0.00    +0.005 A 
ATOM     31  C   UNL     1      -0.983   1.911   6.518  0.00  0.00    -0.030 A 
ATOM     32  C   UNL     1      -0.028   1.563   7.455  0.00  0.00    +0.005 A 
ATOM     33  C   UNL     1       0.750   2.542   8.045  0.00  0.00    +0.000 A 
ENDBRANCH  27  31
ENDBRANCH  23  27
ENDBRANCH   1  24
BRANCH   4  34
ATOM     34  O   UNL     1       0.840   0.870   0.485  0.00  0.00    -0.387 OA
ATOM     35  H   UNL     1       1.763   1.150   0.545  0.00  0.00    +0.210 HD
ENDBRANCH   4  34
BRANCH   3  36
ATOM     36  O   UNL     1       1.386  -2.562   1.502  0.00  0.00    -0.389 OA
ATOM     37  H   UNL     1       1.787  -3.022   2.252  0.00  0.00    +0.210 HD
ENDBRANCH   3  36
TORSDOF 7
