REMARK  Name = ZINC01334460
REMARK  8 active torsions:
REMARK  status: ('A' for Active; 'I' for Inactive)
REMARK    1  A    between atoms: C_1  and  C_2
REMARK    2  A    between atoms: C_2  and  C_3
REMARK    3  A    between atoms: C_2  and  C_4
REMARK    4  A    between atoms: C_2  and  C_5
REMARK    5  A    between atoms: C_8  and  C_11
REMARK    6  A    between atoms: C_11  and  N_12
REMARK    7  A    between atoms: C_17  and  C_19
REMARK    8  A    between atoms: C_26  and  C_28
REMARK                            x       y       z     vdW  Elec       q    Type
REMARK                         _______ _______ _______ _____ _____    ______ ____
ROOT
ATOM      1  N   UNL     1       4.021   2.943  -4.582  0.00  0.00    -0.224 N 
ATOM      2  C   UNL     1       2.850   2.632  -3.950  0.00  0.00    +0.164 A 
ATOM      3  C   UNL     1       2.245   1.626  -4.726  0.00  0.00    +0.195 A 
ATOM      4  C   UNL     1       1.006   1.115  -4.295  0.00  0.00    +0.303 A 
ATOM      5  N   UNL     1       0.472   1.604  -3.184  0.00  0.00    -0.194 NA
ATOM      6  C   UNL     1       1.079   2.550  -2.489  0.00  0.00    +0.117 A 
ATOM      7  N   UNL     1       2.234   3.063  -2.853  0.00  0.00    -0.326 N 
ATOM      8  O   UNL     1       0.374   0.147  -4.998  0.00  0.00    -0.263 OA
ATOM      9  N   UNL     1       3.051   1.372  -5.771  0.00  0.00    -0.122 NA
ATOM     10  N   UNL     1       4.095   2.122  -5.718  0.00  0.00    -0.063 NA
ATOM     11  H   UNL     1       2.690   3.855  -2.241  0.00  0.00    +0.169 HD
ENDROOT
BRANCH   6  12
ATOM     12  C   UNL     1       0.420   3.064  -1.235  0.00  0.00    +0.072 C 
ATOM     13  C   UNL     1      -0.949   3.654  -1.582  0.00  0.00    +0.014 C 
ATOM     14  C   UNL     1      -1.605   4.206  -0.314  0.00  0.00    +0.020 C 
ATOM     15  C   UNL     1      -1.809   3.066   0.689  0.00  0.00    +0.108 C 
ATOM     16  N   UNL     1      -0.518   2.398   0.919  0.00  0.00    -0.297 N 
ATOM     17  C   UNL     1       0.238   1.911  -0.243  0.00  0.00    +0.119 C 
ATOM     18  C   UNL     1      -0.037   2.238   2.168  0.00  0.00    +0.247 C 
ATOM     19  O   UNL     1       0.998   1.625   2.347  0.00  0.00    -0.270 OA
BRANCH  18  20
ATOM     20  C   UNL     1      -0.768   2.807   3.320  0.00  0.00    +0.037 A 
ATOM     21  C   UNL     1      -2.133   2.563   3.474  0.00  0.00    +0.013 A 
ATOM     22  C   UNL     1      -2.808   3.092   4.554  0.00  0.00    +0.001 A 
ATOM     23  C   UNL     1      -2.137   3.873   5.479  0.00  0.00    +0.000 A 
ATOM     24  C   UNL     1      -0.784   4.123   5.329  0.00  0.00    +0.001 A 
ATOM     25  C   UNL     1      -0.096   3.595   4.256  0.00  0.00    +0.013 A 
ENDBRANCH  18  20
ENDBRANCH   6  12
BRANCH   1  26
ATOM     26  C   UNL     1       5.008   3.939  -4.157  0.00  0.00    +0.182 C 
BRANCH  26  30
ATOM     27  C   UNL     1       7.878   2.096  -1.586  0.00  0.00    -0.042 A 
ATOM     28  C   UNL     1       8.092   2.127  -2.951  0.00  0.00    +0.004 A 
ATOM     29  C   UNL     1       7.163   2.724  -3.783  0.00  0.00    +0.006 A 
ATOM     30  C   UNL     1       6.020   3.289  -3.250  0.00  0.00    -0.026 A 
ATOM     31  C   UNL     1       5.808   3.262  -1.884  0.00  0.00    +0.006 A 
ATOM     32  C   UNL     1       6.734   2.661  -1.053  0.00  0.00    +0.004 A 
BRANCH  27  34
ATOM     33  C   UNL     1      10.237   2.156  -0.825  0.00  0.00    +0.015 C 
ATOM     34  C   UNL     1       8.890   1.445  -0.679  0.00  0.00    -0.013 C 
ATOM     35  C   UNL     1       8.415   1.547   0.772  0.00  0.00    +0.015 C 
ATOM     36  C   UNL     1       9.047  -0.028  -1.062  0.00  0.00    +0.015 C 
ENDBRANCH  27  34
ENDBRANCH  26  30
ENDBRANCH   1  26
TORSDOF 5
