REMARK  Name = ZINC02890244
REMARK  6 active torsions:
REMARK  status: ('A' for Active; 'I' for Inactive)
REMARK    1  A    between atoms: C_1  and  C_2
REMARK    2  A    between atoms: C_5  and  N_8
REMARK    3  A    between atoms: C_12  and  N_16
REMARK    4  A    between atoms: N_16  and  N_17
REMARK    5  A    between atoms: C_18  and  C_20
REMARK    6  A    between atoms: C_25  and  N_26
REMARK                            x       y       z     vdW  Elec       q    Type
REMARK                         _______ _______ _______ _____ _____    ______ ____
ROOT
ATOM      1  N   UNL     1       1.730  -6.236   2.352  0.00  0.00    -0.228 NA
ATOM      2  H   UNL     1       1.534  -7.208   2.167  0.00  0.00    +0.145 HD
ENDROOT
BRANCH   1   7
ATOM      3  N   UNL     1       0.538  -3.262   1.350  0.00  0.00    -0.209 N 
ATOM      4  C   UNL     1       0.065  -4.001   0.339  0.00  0.00    +0.228 C 
ATOM      5  O   UNL     1      -0.257  -3.577  -0.750  0.00  0.00    -0.275 OA
ATOM      6  C   UNL     1      -0.005  -5.450   0.771  0.00  0.00    +0.126 C 
ATOM      7  C   UNL     1       0.516  -5.419   2.222  0.00  0.00    +0.168 C 
ATOM      8  C   UNL     1       0.831  -3.958   2.456  0.00  0.00    +0.245 C 
ATOM      9  O   UNL     1       1.275  -3.490   3.482  0.00  0.00    -0.273 OA
BRANCH   3  14
ATOM     10  C   UNL     1       1.269   2.353   0.968  0.00  0.00    +0.044 C 
ATOM     11  C   UNL     1       1.075   0.862   1.069  0.00  0.00    -0.050 A 
ATOM     12  C   UNL     1       2.174   0.029   1.178  0.00  0.00    +0.005 A 
ATOM     13  C   UNL     1       1.999  -1.338   1.271  0.00  0.00    +0.024 A 
ATOM     14  C   UNL     1       0.719  -1.875   1.256  0.00  0.00    +0.044 A 
ATOM     15  C   UNL     1      -0.382  -1.036   1.148  0.00  0.00    +0.024 A 
ATOM     16  C   UNL     1      -0.201   0.330   1.060  0.00  0.00    +0.005 A 
ENDBRANCH   3  14
ENDBRANCH   1   7
BRANCH   1  17
ATOM     17  N   UNL     1       2.722  -5.771   1.536  0.00  0.00    -0.246 N 
ATOM     18  C   UNL     1       3.920  -6.389   1.511  0.00  0.00    +0.259 C 
ATOM     19  O   UNL     1       4.117  -7.360   2.217  0.00  0.00    -0.269 OA
ATOM     20  H   UNL     1       2.564  -4.997   0.973  0.00  0.00    +0.169 HD
BRANCH  18  21
ATOM     21  C   UNL     1       4.990  -5.888   0.630  0.00  0.00    +0.059 A 
ATOM     22  C   UNL     1       4.813  -4.702  -0.087  0.00  0.00    +0.015 A 
ATOM     23  C   UNL     1       5.817  -4.239  -0.909  0.00  0.00    +0.001 A 
ATOM     24  C   UNL     1       7.003  -4.945  -1.031  0.00  0.00    +0.002 A 
ATOM     25  C   UNL     1       7.193  -6.118  -0.331  0.00  0.00    +0.023 A 
ATOM     26  C   UNL     1       6.195  -6.597   0.509  0.00  0.00    +0.037 A 
BRANCH  26  27
ATOM     27  N   UNL     1       6.386  -7.775   1.220  0.00  0.00    -0.357 N 
ATOM     28  H   UNL     1       5.621  -8.286   1.528  0.00  0.00    +0.142 HD
ATOM     29  H   UNL     1       7.285  -8.087   1.408  0.00  0.00    +0.142 HD
ENDBRANCH  26  27
ENDBRANCH  18  21
ENDBRANCH   1  17
TORSDOF 5
