REMARK  Name = ZINC40010143
REMARK  7 active torsions:
REMARK  status: ('A' for Active; 'I' for Inactive)
REMARK    1  A    between atoms: C_1  and  C_2
REMARK    2  A    between atoms: C_9  and  C_14
REMARK    3  A    between atoms: C_18  and  O_36
REMARK    4  A    between atoms: C_19  and  O_34
REMARK    5  A    between atoms: N_27  and  C_28
REMARK    6  A    between atoms: O_34  and  C_35
REMARK    7  A    between atoms: O_36  and  C_37
REMARK                            x       y       z     vdW  Elec       q    Type
REMARK                         _______ _______ _______ _____ _____    ______ ____
ROOT
ATOM      1  C   UNL     1      -1.135  -4.966   3.153  0.00  0.00    +0.124 C 
ATOM      2  C   UNL     1      -0.918  -6.413   3.519  0.00  0.00    -0.019 A 
ATOM      3  C   UNL     1       0.193  -6.724   4.293  0.00  0.00    +0.055 A 
ATOM      4  C   UNL     1       0.453  -8.033   4.654  0.00  0.00    +0.162 A 
ATOM      5  C   UNL     1      -0.406  -9.045   4.235  0.00  0.00    +0.162 A 
ATOM      6  C   UNL     1      -1.512  -8.730   3.469  0.00  0.00    +0.053 A 
ATOM      7  C   UNL     1      -1.774  -7.412   3.113  0.00  0.00    -0.037 A 
ATOM      8  C   UNL     1      -3.013  -7.144   2.299  0.00  0.00    +0.054 C 
ATOM      9  C   UNL     1      -2.920  -5.793   1.593  0.00  0.00    +0.114 C 
ATOM     10  N   UNL     1      -2.475  -4.797   2.581  0.00  0.00    -0.277 N 
ATOM     11  C   UNL     1      -3.268  -3.770   2.946  0.00  0.00    +0.307 C 
ATOM     12  O   UNL     1      -4.414  -3.714   2.542  0.00  0.00    -0.252 OA
ATOM     13  N   UNL     1      -2.792  -2.806   3.758  0.00  0.00    -0.269 N 
ATOM     14  H   UNL     1      -1.846  -2.776   3.973  0.00  0.00    +0.156 HD
ENDROOT
BRANCH   1  23
ATOM     15  C   UNL     1       5.549  -2.635   4.100  0.00  0.00    +0.044 C 
ATOM     16  C   UNL     1       4.173  -2.565   3.490  0.00  0.00    -0.050 A 
ATOM     17  C   UNL     1       3.706  -1.347   2.997  0.00  0.00    +0.005 A 
ATOM     18  C   UNL     1       2.478  -1.207   2.433  0.00  0.00    +0.024 A 
ATOM     19  C   UNL     1       1.612  -2.311   2.324  0.00  0.00    +0.040 A 
ATOM     20  N   UNL     1       0.409  -2.162   1.768  0.00  0.00    -0.284 N 
ATOM     21  C   UNL     1      -0.453  -3.156   1.635  0.00  0.00    +0.226 C 
ATOM     22  O   UNL     1      -1.537  -2.959   1.119  0.00  0.00    -0.275 OA
ATOM     23  C   UNL     1      -0.085  -4.538   2.125  0.00  0.00    +0.123 C 
ATOM     24  C   UNL     1       1.282  -4.713   2.757  0.00  0.00    -0.003 C 
ATOM     25  C   UNL     1       2.079  -3.610   2.837  0.00  0.00    -0.007 A 
ATOM     26  C   UNL     1       3.416  -3.691   3.427  0.00  0.00    +0.012 A 
ATOM     27  H   UNL     1       0.154  -1.283   1.447  0.00  0.00    +0.155 HD
ENDBRANCH   1  23
BRANCH  13  28
ATOM     28  C   UNL     1      -3.661  -1.849   4.292  0.00  0.00    +0.035 A 
ATOM     29  C   UNL     1      -4.863  -1.569   3.656  0.00  0.00    +0.023 A 
ATOM     30  C   UNL     1      -5.720  -0.623   4.186  0.00  0.00    +0.002 A 
ATOM     31  C   UNL     1      -5.381   0.044   5.349  0.00  0.00    +0.000 A 
ATOM     32  C   UNL     1      -4.184  -0.232   5.984  0.00  0.00    +0.002 A 
ATOM     33  C   UNL     1      -3.326  -1.180   5.463  0.00  0.00    +0.023 A 
ENDBRANCH  13  28
BRANCH   5  34
ATOM     34  O   UNL     1      -0.158 -10.338   4.579  0.00  0.00    -0.491 OA
ATOM     35  C   UNL     1      -1.083 -11.321   4.112  0.00  0.00    +0.277 C 
ENDBRANCH   5  34
BRANCH   4  36
ATOM     36  O   UNL     1       1.542  -8.330   5.413  0.00  0.00    -0.491 OA
ATOM     37  C   UNL     1       2.377  -7.238   5.804  0.00  0.00    +0.277 C 
ENDBRANCH   4  36
TORSDOF 4
