REMARK  Name = ZINC01895878
REMARK  6 active torsions:
REMARK  status: ('A' for Active; 'I' for Inactive)
REMARK    1  A    between atoms: C_1  and  C_2
REMARK    2  A    between atoms: C_7  and  S_15
REMARK    3  A    between atoms: S_15  and  C_16
REMARK    4  A    between atoms: C_16  and  C_17
REMARK    5  A    between atoms: N_19  and  C_20
REMARK    6  A    between atoms: C_21  and  C_28
REMARK                            x       y       z     vdW  Elec       q    Type
REMARK                         _______ _______ _______ _____ _____    ______ ____
ROOT
ATOM      1  C   UNL     1      -0.742   1.585  -1.213  0.00  0.00    +0.228 C 
ATOM      2  O   UNL     1      -1.736   2.268  -1.088  0.00  0.00    -0.275 OA
ATOM      3  N   UNL     1      -0.288   1.272  -2.443  0.00  0.00    -0.279 N 
ATOM      4  H   UNL     1       0.507   0.726  -2.543  0.00  0.00    +0.155 HD
ENDROOT
BRANCH   3   5
ATOM      5  C   UNL     1      -0.959   1.732  -3.566  0.00  0.00    +0.084 A 
ATOM      6  C   UNL     1      -0.648   1.523  -4.899  0.00  0.00    +0.068 A 
ATOM      7  C   UNL     1      -1.530   2.121  -5.902  0.00  0.00    -0.023 A 
ATOM      8  C   UNL     1      -2.560   2.829  -5.406  0.00  0.00    -0.004 A 
ATOM      9  S   UNL     1      -2.384   2.711  -3.643  0.00  0.00    -0.077 S 
ATOM     10  C   UNL     1      -3.418   3.414  -6.496  0.00  0.00    +0.043 C 
ATOM     11  C   UNL     1      -3.035   2.617  -7.762  0.00  0.00    +0.010 C 
ATOM     12  C   UNL     1      -1.598   2.168  -7.429  0.00  0.00    +0.037 C 
BRANCH   6  13
ATOM     13  C   UNL     1       0.520   0.729  -5.292  0.00  0.00    +0.244 C 
ATOM     14  O   UNL     1       0.412  -0.472  -5.457  0.00  0.00    -0.270 OA
ATOM     15  N   UNL     1       1.714   1.329  -5.469  0.00  0.00    -0.325 N 
ATOM     16  H   UNL     1       1.800   2.286  -5.337  0.00  0.00    +0.145 HD
ATOM     17  H   UNL     1       2.487   0.803  -5.728  0.00  0.00    +0.145 HD
ENDBRANCH   6  13
ENDBRANCH   3   5
BRANCH   1  18
ATOM     18  C   UNL     1      -0.013   1.086   0.008  0.00  0.00    +0.173 C 
BRANCH  18  19
ATOM     19  S   UNL     1      -0.860   1.669   1.497  0.00  0.00    -0.076 S 
BRANCH  19  26
ATOM     20  C   UNL     1       0.452   0.801   8.367  0.00  0.00    +0.044 C 
ATOM     21  C   UNL     1       0.305   0.894   6.870  0.00  0.00    -0.038 A 
ATOM     22  C   UNL     1       1.186   0.271   6.055  0.00  0.00    +0.052 A 
ATOM     23  C   UNL     1       1.050   0.362   4.650  0.00  0.00    +0.162 A 
ATOM     24  N   UNL     1       1.763  -0.129   3.653  0.00  0.00    -0.129 NA
ATOM     25  N   UNL     1       1.245   0.225   2.530  0.00  0.00    -0.122 NA
ATOM     26  C   UNL     1       0.174   0.961   2.735  0.00  0.00    +0.197 A 
ATOM     27  N   UNL     1       0.017   1.077   4.085  0.00  0.00    -0.270 N 
ATOM     28  C   UNL     1      -0.914   1.726   4.878  0.00  0.00    +0.058 A 
ATOM     29  C   UNL     1      -0.800   1.655   6.279  0.00  0.00    +0.002 A 
ATOM     30  C   UNL     1      -1.736   2.308   7.085  0.00  0.00    +0.010 A 
ATOM     31  C   UNL     1      -2.764   3.016   6.502  0.00  0.00    +0.001 A 
ATOM     32  C   UNL     1      -2.873   3.084   5.121  0.00  0.00    +0.002 A 
ATOM     33  C   UNL     1      -1.957   2.445   4.311  0.00  0.00    +0.027 A 
ENDBRANCH  19  26
ENDBRANCH  18  19
ENDBRANCH   1  18
TORSDOF 5
