REMARK  Name = ZINC66176782
REMARK  5 active torsions:
REMARK  status: ('A' for Active; 'I' for Inactive)
REMARK    1  A    between atoms: C_9  and  N_14
REMARK    2  A    between atoms: N_17  and  C_18
REMARK    3  A    between atoms: C_18  and  C_19
REMARK    4  A    between atoms: C_19  and  C_20
REMARK    5  A    between atoms: C_20  and  C_21
REMARK                            x       y       z     vdW  Elec       q    Type
REMARK                         _______ _______ _______ _____ _____    ______ ____
ROOT
ATOM      1  N   UNL     1      -2.256  -0.033  -0.874  0.00  0.00    -0.293 N 
ATOM      2  C   UNL     1      -2.960   1.031  -0.438  0.00  0.00    +0.300 C 
ATOM      3  O   UNL     1      -2.822   1.424   0.705  0.00  0.00    -0.253 OA
ATOM      4  N   UNL     1      -3.816   1.659  -1.268  0.00  0.00    -0.299 N 
ATOM      5  H   UNL     1      -2.366  -0.346  -1.785  0.00  0.00    +0.151 HD
ATOM      6  H   UNL     1      -3.926   1.345  -2.179  0.00  0.00    +0.150 HD
ENDROOT
BRANCH   1  15
ATOM      7  C   UNL     1      -0.017   1.405   0.010  0.00  0.00    +0.012 A 
ATOM      8  C   UNL     1       1.153   2.100   0.002  0.00  0.00    +0.070 A 
ATOM      9  C   UNL     1       2.366   1.391  -0.011  0.00  0.00    +0.249 A 
ATOM     10  O   UNL     1       3.428   1.993  -0.013  0.00  0.00    -0.268 OA
ATOM     11  N   UNL     1       2.353   0.048  -0.022  0.00  0.00    -0.326 N 
ATOM     12  H   UNL     1       3.195  -0.433  -0.031  0.00  0.00    +0.169 HD
ATOM     13  C   UNL     1       1.182  -0.655  -0.020  0.00  0.00    +0.024 A 
ATOM     14  C   UNL     1       0.002  -0.004   0.002  0.00  0.00    -0.008 A 
ATOM     15  C   UNL     1      -1.326  -0.715   0.029  0.00  0.00    +0.106 C 
ATOM     16  C   UNL     1      -1.170  -2.168  -0.416  0.00  0.00    +0.027 C 
ATOM     17  C   UNL     1      -0.030  -2.798   0.395  0.00  0.00    +0.008 C 
ATOM     18  C   UNL     1       1.283  -2.159  -0.051  0.00  0.00    +0.054 C 
ENDBRANCH   1  15
BRANCH   4  19
ATOM     19  C   UNL     1      -4.581   2.815  -0.793  0.00  0.00    +0.106 C 
BRANCH  19  20
ATOM     20  C   UNL     1      -5.471   3.336  -1.924  0.00  0.00    +0.025 C 
BRANCH  20  21
ATOM     21  C   UNL     1      -6.269   4.544  -1.429  0.00  0.00    +0.064 C 
BRANCH  21  22
ATOM     22  C   UNL     1      -7.146   5.057  -2.542  0.00  0.00    +0.079 A 
ATOM     23  N   UNL     1      -8.375   4.714  -2.834  0.00  0.00    -0.249 NA
ATOM     24  C   UNL     1      -9.036   5.251  -3.852  0.00  0.00    +0.052 A 
ATOM     25  C   UNL     1      -8.336   6.177  -4.561  0.00  0.00    +0.013 A 
ATOM     26  S   UNL     1      -6.784   6.218  -3.710  0.00  0.00    -0.077 S 
ATOM     27  C   UNL     1      -8.793   6.950  -5.751  0.00  0.00    +0.044 C 
ATOM     28  C   UNL     1     -10.066   6.282  -6.296  0.00  0.00    +0.006 C 
ATOM     29  C   UNL     1     -11.021   6.012  -5.129  0.00  0.00    +0.006 C 
ATOM     30  C   UNL     1     -10.464   4.897  -4.241  0.00  0.00    +0.056 C 
ENDBRANCH  21  22
ENDBRANCH  20  21
ENDBRANCH  19  20
ENDBRANCH   4  19
TORSDOF 5
