REMARK  Name = ZINC57364125
REMARK  12 active torsions:
REMARK  status: ('A' for Active; 'I' for Inactive)
REMARK    1  A    between atoms: C_1  and  C_2
REMARK    2  A    between atoms: C_5  and  N_9
REMARK    3  A    between atoms: N_9  and  C_10
REMARK    4  A    between atoms: C_10  and  C_11
REMARK    5  A    between atoms: N_13  and  C_14
REMARK    6  A    between atoms: N_13  and  C_18
REMARK    7  A    between atoms: C_14  and  C_15
REMARK    8  A    between atoms: C_15  and  C_16
REMARK    9  A    between atoms: C_15  and  C_17
REMARK   10  A    between atoms: C_19  and  N_34
REMARK   11  A    between atoms: N_20  and  C_27
REMARK   12  A    between atoms: C_27  and  C_28
REMARK                            x       y       z     vdW  Elec       q    Type
REMARK                         _______ _______ _______ _____ _____    ______ ____
ROOT
ATOM      1  C   UNL     1      -0.406  -8.636  -2.117  0.00  0.00    +0.140 A 
ATOM      2  C   UNL     1       0.356  -9.264  -1.153  0.00  0.00    +0.128 A 
ATOM      3  N   UNL     1       0.152 -10.600  -0.900  0.00  0.00    -0.276 N 
ATOM      4  C   UNL     1      -0.781 -11.287  -1.584  0.00  0.00    +0.331 A 
ATOM      5  O   UNL     1      -0.947 -12.468  -1.346  0.00  0.00    -0.246 OA
ATOM      6  N   UNL     1      -1.533 -10.693  -2.527  0.00  0.00    -0.273 N 
ATOM      7  H   UNL     1      -2.199 -11.210  -3.006  0.00  0.00    +0.173 HD
ATOM      8  C   UNL     1      -1.376  -9.385  -2.810  0.00  0.00    +0.277 A 
ATOM      9  O   UNL     1      -2.067  -8.854  -3.663  0.00  0.00    -0.266 OA
ENDROOT
BRANCH   1  12
ATOM     10  C   UNL     1      -0.418  -6.345  -1.433  0.00  0.00    +0.237 C 
ATOM     11  O   UNL     1      -0.835  -6.687  -0.346  0.00  0.00    -0.274 OA
ATOM     12  N   UNL     1      -0.220  -7.266  -2.399  0.00  0.00    -0.263 N 
BRANCH  10  13
ATOM     13  C   UNL     1      -0.122  -4.893  -1.704  0.00  0.00    +0.198 C 
BRANCH  13  14
ATOM     14  N   UNL     1      -0.417  -4.102  -0.507  0.00  0.00    -0.333 N 
ATOM     15  H   UNL     1      -0.750  -4.539   0.293  0.00  0.00    +0.147 HD
BRANCH  14  20
ATOM     16  C   UNL     1       0.383   1.514  -0.549  0.00  0.00    +0.044 C 
ATOM     17  C   UNL     1       0.170   0.023  -0.537  0.00  0.00    -0.048 A 
ATOM     18  C   UNL     1       0.450  -0.723  -1.667  0.00  0.00    +0.005 A 
ATOM     19  C   UNL     1       0.256  -2.091  -1.660  0.00  0.00    +0.026 A 
ATOM     20  C   UNL     1      -0.220  -2.718  -0.516  0.00  0.00    +0.063 A 
ATOM     21  C   UNL     1      -0.499  -1.966   0.619  0.00  0.00    +0.144 A 
ATOM     22  C   UNL     1      -0.298  -0.598   0.607  0.00  0.00    +0.043 A 
ATOM     23  F   UNL     1      -0.963  -2.571   1.735  0.00  0.00    -0.204 F 
ENDBRANCH  14  20
ENDBRANCH  13  14
ENDBRANCH  10  13
BRANCH  12  24
ATOM     24  C   UNL     1       0.188  -6.844  -3.741  0.00  0.00    +0.117 C 
BRANCH  24  25
ATOM     25  C   UNL     1       1.711  -6.711  -3.793  0.00  0.00    +0.001 C 
ATOM     26  C   UNL     1       2.350  -8.088  -3.600  0.00  0.00    +0.009 C 
ATOM     27  C   UNL     1       2.128  -6.141  -5.151  0.00  0.00    +0.009 C 
ENDBRANCH  24  25
ENDBRANCH  12  24
ENDBRANCH   1  12
BRANCH   2  28
ATOM     28  N   UNL     1       1.309  -8.562  -0.454  0.00  0.00    -0.343 N 
ATOM     29  H   UNL     1       1.408  -7.607  -0.594  0.00  0.00    +0.144 HD
ATOM     30  H   UNL     1       1.883  -9.021   0.179  0.00  0.00    +0.144 HD
ENDBRANCH   2  28
BRANCH   3  31
ATOM     31  C   UNL     1       0.954 -11.279   0.120  0.00  0.00    +0.163 C 
BRANCH  31  32
ATOM     32  C   UNL     1       0.261 -11.178   1.454  0.00  0.00    -0.028 A 
ATOM     33  C   UNL     1       0.519 -10.105   2.288  0.00  0.00    +0.005 A 
ATOM     34  C   UNL     1      -0.117 -10.012   3.512  0.00  0.00    +0.000 A 
ATOM     35  C   UNL     1      -1.011 -10.991   3.902  0.00  0.00    +0.000 A 
ATOM     36  C   UNL     1      -1.271 -12.062   3.068  0.00  0.00    +0.000 A 
ATOM     37  C   UNL     1      -0.638 -12.153   1.843  0.00  0.00    +0.005 A 
ENDBRANCH  31  32
ENDBRANCH   3  31
TORSDOF 9
