REMARK  Name = ZINC62364043
REMARK  4 active torsions:
REMARK  status: ('A' for Active; 'I' for Inactive)
REMARK    1  A    between atoms: C_1  and  C_2
REMARK    2  A    between atoms: C_2  and  C_4
REMARK    3  A    between atoms: C_2  and  N_9
REMARK    4  A    between atoms: C_11  and  N_17
REMARK                            x       y       z     vdW  Elec       q    Type
REMARK                         _______ _______ _______ _____ _____    ______ ____
ROOT
ATOM      1  N   UNL     1      -1.372  -0.511   0.012  0.00  0.00    -0.318 N 
ATOM      2  C   UNL     1      -2.048  -0.660   1.216  0.00  0.00    +0.145 A 
ATOM      3  C   UNL     1      -3.361  -1.149   1.240  0.00  0.00    +0.102 A 
ATOM      4  C   UNL     1      -3.991  -1.278   2.470  0.00  0.00    +0.155 A 
ATOM      5  N   UNL     1      -3.333  -0.936   3.571  0.00  0.00    -0.222 NA
ATOM      6  C   UNL     1      -2.099  -0.479   3.510  0.00  0.00    +0.225 A 
ATOM      7  N   UNL     1      -1.460  -0.345   2.365  0.00  0.00    -0.219 NA
ATOM      8 CL   UNL     1      -5.617  -1.877   2.568  0.00  0.00    -0.060 Cl
ATOM      9  H   UNL     1      -1.810  -0.743  -0.822  0.00  0.00    +0.148 HD
ENDROOT
BRANCH   3  10
ATOM     10  N   UNL     1      -4.021  -1.498   0.054  0.00  0.00    -0.353 N 
ATOM     11  H   UNL     1      -3.568  -1.403  -0.799  0.00  0.00    +0.143 HD
ATOM     12  H   UNL     1      -4.929  -1.836   0.085  0.00  0.00    +0.143 HD
ENDBRANCH   3  10
BRANCH   1  14
ATOM     13  C   UNL     1      -0.019   1.526   0.010  0.00  0.00    +0.036 C 
ATOM     14  C   UNL     1       0.002  -0.004   0.002  0.00  0.00    +0.140 C 
BRANCH  14  15
ATOM     15  C   UNL     1       0.707  -0.490  -1.238  0.00  0.00    +0.196 A 
ATOM     16  N   UNL     1       1.930  -0.996  -1.304  0.00  0.00    -0.109 NA
ATOM     17  N   UNL     1       2.164  -1.290  -2.538  0.00  0.00    -0.021 NA
ATOM     18  N   UNL     1       1.131  -0.987  -3.244  0.00  0.00    -0.021 NA
ATOM     19  N   UNL     1       0.222  -0.499  -2.471  0.00  0.00    -0.109 NA
ENDBRANCH  14  15
ENDBRANCH   1  14
TORSDOF 3
