REMARK  Name = ZINC46876678
REMARK  7 active torsions:
REMARK  status: ('A' for Active; 'I' for Inactive)
REMARK    1  A    between atoms: C_1  and  C_2
REMARK    2  A    between atoms: C_2  and  C_4
REMARK    3  A    between atoms: C_2  and  O_22
REMARK    4  A    between atoms: N_6  and  N_7
REMARK    5  A    between atoms: N_10  and  C_11
REMARK    6  A    between atoms: C_11  and  C_12
REMARK    7  A    between atoms: O_22  and  C_23
REMARK                            x       y       z     vdW  Elec       q    Type
REMARK                         _______ _______ _______ _____ _____    ______ ____
ROOT
ATOM      1  N   UNL     1      -3.674  -0.346  -0.761  0.00  0.00    -0.218 N 
ATOM      2  C   UNL     1      -4.514  -0.088  -1.783  0.00  0.00    +0.316 C 
ATOM      3  O   UNL     1      -5.699  -0.336  -1.673  0.00  0.00    -0.251 OA
ATOM      4  N   UNL     1      -4.040   0.445  -2.926  0.00  0.00    -0.295 N 
ATOM      5  H   UNL     1      -4.016  -0.730   0.062  0.00  0.00    +0.174 HD
ATOM      6  H   UNL     1      -3.094   0.643  -3.013  0.00  0.00    +0.150 HD
ENDROOT
BRANCH   1   9
ATOM      7  C   UNL     1      -1.469  -0.319   0.136  0.00  0.00    +0.270 C 
ATOM      8  O   UNL     1      -1.896  -0.799   1.165  0.00  0.00    -0.270 OA
ATOM      9  N   UNL     1      -2.308  -0.061  -0.887  0.00  0.00    -0.230 N 
ATOM     10  H   UNL     1      -1.967   0.323  -1.710  0.00  0.00    +0.173 HD
BRANCH   7  12
ATOM     11  C   UNL     1       0.195   1.500  -0.138  0.00  0.00    +0.062 C 
ATOM     12  C   UNL     1       0.000  -0.012   0.000  0.00  0.00    +0.257 C 
BRANCH  12  13
ATOM     13  O   UNL     1       0.693  -0.477   1.160  0.00  0.00    -0.480 OA
BRANCH  13  14
ATOM     14  C   UNL     1       2.014  -0.764   1.016  0.00  0.00    +0.122 A 
ATOM     15  C   UNL     1       2.720  -1.330   2.067  0.00  0.00    +0.048 A 
ATOM     16  C   UNL     1       4.063  -1.621   1.919  0.00  0.00    +0.042 A 
ATOM     17  C   UNL     1       4.704  -1.347   0.723  0.00  0.00    +0.124 A 
ATOM     18  C   UNL     1       4.000  -0.781  -0.327  0.00  0.00    +0.042 A 
ATOM     19  C   UNL     1       2.656  -0.496  -0.184  0.00  0.00    +0.048 A 
ATOM     20  F   UNL     1       6.017  -1.631   0.580  0.00  0.00    -0.205 F 
ENDBRANCH  13  14
ENDBRANCH  12  13
ENDBRANCH   7  12
ENDBRANCH   1   9
BRANCH   4  21
ATOM     21  C   UNL     1      -4.952   0.726  -4.037  0.00  0.00    +0.150 C 
BRANCH  21  22
ATOM     22  C   UNL     1      -4.165   1.322  -5.205  0.00  0.00    +0.195 C 
ATOM     23  C   UNL     1      -5.111   1.688  -6.374  0.00  0.00    +0.085 C 
ATOM     24  C   UNL     1      -4.261   1.348  -7.583  0.00  0.00    -0.002 A 
ATOM     25  C   UNL     1      -4.376   1.677  -8.916  0.00  0.00    +0.007 A 
ATOM     26  C   UNL     1      -3.433   1.227  -9.822  0.00  0.00    +0.000 A 
ATOM     27  C   UNL     1      -2.379   0.446  -9.386  0.00  0.00    +0.004 A 
ATOM     28  C   UNL     1      -2.264   0.112  -8.052  0.00  0.00    +0.046 A 
ATOM     29  C   UNL     1      -3.211   0.559  -7.133  0.00  0.00    +0.124 A 
ATOM     30  O   UNL     1      -3.296   0.337  -5.790  0.00  0.00    -0.487 OA
ENDBRANCH  21  22
ENDBRANCH   4  21
TORSDOF 6
