REMARK  Name = ZINC36735049
REMARK  4 active torsions:
REMARK  status: ('A' for Active; 'I' for Inactive)
REMARK    1  A    between atoms: C_1  and  C_2
REMARK    2  A    between atoms: C_2  and  N_3
REMARK    3  A    between atoms: N_16  and  C_19
REMARK    4  A    between atoms: C_19  and  C_20
REMARK                            x       y       z     vdW  Elec       q    Type
REMARK                         _______ _______ _______ _____ _____    ______ ____
ROOT
ATOM      1  N   UNL     1       0.688  -0.476  -1.203  0.00  0.00    -0.294 N 
ATOM      2  C   UNL     1      -0.019  -0.709  -2.371  0.00  0.00    +0.135 A 
ATOM      3  C   UNL     1       0.657  -0.535  -3.594  0.00  0.00    +0.077 A 
ATOM      4  C   UNL     1      -0.022  -0.766  -4.788  0.00  0.00    +0.018 A 
ATOM      5  C   UNL     1      -1.350  -1.158  -4.714  0.00  0.00    +0.021 A 
ATOM      6  C   UNL     1      -1.950  -1.306  -3.476  0.00  0.00    +0.113 A 
ATOM      7  N   UNL     1      -1.285  -1.082  -2.357  0.00  0.00    -0.239 NA
ATOM      8  C   UNL     1       2.066  -0.107  -3.568  0.00  0.00    +0.249 C 
ATOM      9  O   UNL     1       2.608   0.289  -4.582  0.00  0.00    -0.270 OA
ATOM     10  N   UNL     1       2.748  -0.161  -2.404  0.00  0.00    -0.290 N 
ATOM     11  C   UNL     1       2.138  -0.706  -1.197  0.00  0.00    +0.099 C 
ATOM     12  C   UNL     1       2.747  -0.028   0.034  0.00  0.00    +0.027 C 
ATOM     13  C   UNL     1       4.241  -0.349   0.102  0.00  0.00    -0.075 C 
ATOM     14  N   UNL     1       4.428  -1.801   0.200  0.00  0.00    +0.383 N 
ATOM     15  C   UNL     1       3.916  -2.450  -1.012  0.00  0.00    -0.075 C 
ATOM     16  C   UNL     1       2.409  -2.211  -1.126  0.00  0.00    +0.027 C 
ATOM     17  H   UNL     1       3.659   0.172  -2.369  0.00  0.00    +0.151 HD
ATOM     18  H   UNL     1       3.929  -2.150   1.005  0.00  0.00    -0.081 HD
ENDROOT
BRANCH   1  20
ATOM     19  C   UNL     1      -0.019   1.526   0.010  0.00  0.00    +0.024 C 
ATOM     20  C   UNL     1       0.002  -0.004   0.002  0.00  0.00    +0.105 C 
ENDBRANCH   1  20
BRANCH  14  21
ATOM     21  C   UNL     1       5.859  -2.101   0.347  0.00  0.00    -0.041 C 
BRANCH  21  22
ATOM     22  C   UNL     1       6.042  -3.580   0.572  0.00  0.00    -0.042 A 
ATOM     23  C   UNL     1       6.522  -4.378  -0.451  0.00  0.00    +0.052 A 
ATOM     24  C   UNL     1       6.692  -5.738  -0.247  0.00  0.00    +0.167 A 
ATOM     25  C   UNL     1       6.378  -6.298   0.989  0.00  0.00    +0.168 A 
ATOM     26  C   UNL     1       5.899  -5.493   2.009  0.00  0.00    +0.069 A 
ATOM     27  C   UNL     1       5.736  -4.135   1.801  0.00  0.00    +0.046 A 
ATOM     28 CL   UNL     1       5.141  -3.127   3.083  0.00  0.00    -0.083 Cl
ATOM     29  O   UNL     1       6.629  -7.639   0.937  0.00  0.00    -0.453 OA
ATOM     30  C   UNL     1       6.711  -7.960  -0.465  0.00  0.00    +0.466 C 
ATOM     31  O   UNL     1       7.139  -6.728  -1.074  0.00  0.00    -0.453 OA
ENDBRANCH  21  22
ENDBRANCH  14  21
TORSDOF 3
