REMARK  Name = ZINC41003612
REMARK  11 active torsions:
REMARK  status: ('A' for Active; 'I' for Inactive)
REMARK    1  A    between atoms: C_1  and  C_2
REMARK    2  A    between atoms: C_2  and  C_3
REMARK    3  A    between atoms: C_3  and  C_4
REMARK    4  A    between atoms: C_4  and  O_5
REMARK    5  A    between atoms: O_5  and  C_6
REMARK    6  A    between atoms: C_6  and  C_8
REMARK    7  A    between atoms: C_9  and  C_28
REMARK    8  A    between atoms: C_13  and  S_25
REMARK    9  A    between atoms: C_16  and  C_18
REMARK   10  A    between atoms: S_25  and  C_26
REMARK   11  A    between atoms: C_26  and  C_27
REMARK                            x       y       z     vdW  Elec       q    Type
REMARK                         _______ _______ _______ _____ _____    ______ ____
ROOT
ATOM      1  C   UNL     1       1.983  -4.382  -3.845  0.00  0.00    +0.082 C 
ATOM      2  C   UNL     1       2.334  -5.677  -3.825  0.00  0.00    +0.020 C 
ATOM      3  N   UNL     1       3.127  -6.236  -4.796  0.00  0.00    -0.287 N 
ATOM      4  C   UNL     1       3.346  -5.492  -5.948  0.00  0.00    +0.219 A 
ATOM      5  N   UNL     1       3.857  -5.851  -7.094  0.00  0.00    -0.187 NA
ATOM      6  C   UNL     1       3.872  -4.799  -7.926  0.00  0.00    +0.210 A 
ATOM      7  N   UNL     1       3.366  -3.755  -7.306  0.00  0.00    -0.141 NA
ATOM      8  N   UNL     1       3.021  -4.178  -6.024  0.00  0.00    -0.220 N 
ATOM      9  C   UNL     1       2.427  -3.428  -4.922  0.00  0.00    +0.179 C 
ATOM     10  C   UNL     1       1.843  -6.547  -2.697  0.00  0.00    +0.061 C 
ATOM     11  H   UNL     1       3.519  -7.116  -4.682  0.00  0.00    +0.155 HD
ENDROOT
BRANCH   9  12
ATOM     12  C   UNL     1       3.450  -2.475  -4.359  0.00  0.00    -0.018 A 
ATOM     13  C   UNL     1       4.636  -2.962  -3.841  0.00  0.00    +0.007 A 
ATOM     14  C   UNL     1       5.574  -2.089  -3.325  0.00  0.00    +0.020 A 
ATOM     15  C   UNL     1       5.327  -0.727  -3.326  0.00  0.00    +0.041 A 
ATOM     16  C   UNL     1       4.140  -0.241  -3.844  0.00  0.00    +0.020 A 
ATOM     17  C   UNL     1       3.204  -1.115  -4.366  0.00  0.00    +0.007 A 
ATOM     18 CL   UNL     1       6.505   0.370  -2.677  0.00  0.00    -0.084 Cl
ENDBRANCH   9  12
BRANCH   1  19
ATOM     19  C   UNL     1       1.154  -3.893  -2.812  0.00  0.00    +0.339 C 
ATOM     20  O   UNL     1      -0.042  -3.768  -2.999  0.00  0.00    -0.245 OA
BRANCH  19  21
ATOM     21  O   UNL     1       1.688  -3.564  -1.617  0.00  0.00    -0.461 OA
BRANCH  21  22
ATOM     22  C   UNL     1       0.791  -3.075  -0.617  0.00  0.00    +0.232 C 
BRANCH  22  23
ATOM     23  C   UNL     1       1.573  -2.758   0.659  0.00  0.00    +0.041 C 
BRANCH  23  25
ATOM     24  C   UNL     1       1.395  -1.917   3.005  0.00  0.00    +0.004 C 
ATOM     25  C   UNL     1       0.613  -2.235   1.729  0.00  0.00    -0.000 C 
ENDBRANCH  23  25
ENDBRANCH  22  23
ENDBRANCH  21  22
ENDBRANCH  19  21
ENDBRANCH   1  19
BRANCH   6  26
ATOM     26  S   UNL     1       4.472  -4.814  -9.583  0.00  0.00    -0.085 S 
BRANCH  26  27
ATOM     27  C   UNL     1       5.026  -6.523  -9.834  0.00  0.00    +0.074 C 
ATOM     28  C   UNL     1       5.579  -6.677 -11.252  0.00  0.00    +0.016 C 
ENDBRANCH  26  27
ENDBRANCH   6  26
TORSDOF 8
