REMARK  Name = ZINC52276525
REMARK  5 active torsions:
REMARK  status: ('A' for Active; 'I' for Inactive)
REMARK    1  A    between atoms: C_1  and  C_2
REMARK    2  A    between atoms: C_5  and  N_7
REMARK    3  A    between atoms: N_7  and  S_8
REMARK    4  A    between atoms: S_8  and  C_11
REMARK    5  A    between atoms: C_15  and  C_17
REMARK                            x       y       z     vdW  Elec       q    Type
REMARK                         _______ _______ _______ _____ _____    ______ ____
ROOT
ATOM      1  C   UNL     1      -0.821  -1.188   4.090  0.00  0.00    +0.106 A 
ATOM      2  C   UNL     1      -0.261  -0.013   4.560  0.00  0.00    +0.029 A 
ATOM      3  C   UNL     1      -1.040   0.914   5.227  0.00  0.00    +0.018 A 
ATOM      4  C   UNL     1      -2.385   0.673   5.429  0.00  0.00    +0.032 A 
ATOM      5  C   UNL     1      -2.957  -0.511   4.956  0.00  0.00    +0.079 A 
ATOM      6  C   UNL     1      -2.163  -1.441   4.278  0.00  0.00    +0.044 A 
ATOM      7 BR   UNL     1      -3.449   1.942   6.342  0.00  0.00    -0.049 Br
ENDROOT
BRANCH   1   8
ATOM      8  S   UNL     1       0.183  -2.362   3.241  0.00  0.00    +0.059 S 
ATOM      9  O   UNL     1      -0.463  -3.621   3.376  0.00  0.00    -0.153 OA
ATOM     10  O   UNL     1       1.518  -2.141   3.672  0.00  0.00    -0.153 OA
BRANCH   8  11
ATOM     11  N   UNL     1       0.135  -1.975   1.632  0.00  0.00    -0.187 NA
ATOM     12  H   UNL     1      -0.270  -2.587   0.998  0.00  0.00    +0.148 HD
BRANCH  11  16
ATOM     13  C   UNL     1      -0.019   1.526   0.010  0.00  0.00    +0.009 C 
ATOM     14  C   UNL     1       0.002  -0.004   0.002  0.00  0.00    +0.006 C 
ATOM     15  C   UNL     1       1.351  -0.691  -0.221  0.00  0.00    +0.025 C 
ATOM     16  C   UNL     1       0.703  -0.708   1.166  0.00  0.00    +0.080 C 
ENDBRANCH  11  16
ENDBRANCH   8  11
ENDBRANCH   1   8
BRANCH   5  17
ATOM     17  C   UNL     1      -4.393  -0.777   5.167  0.00  0.00    +0.388 C 
ATOM     18  O   UNL     1      -4.890  -1.814   4.752  0.00  0.00    -0.241 OA
ATOM     19  O   UNL     1      -5.085   0.040   5.757  0.00  0.00    -0.241 OA
ENDBRANCH   5  17
TORSDOF 4
