REMARK  Name = ZINC46028206
REMARK  8 active torsions:
REMARK  status: ('A' for Active; 'I' for Inactive)
REMARK    1  A    between atoms: C_1  and  C_2
REMARK    2  A    between atoms: C_5  and  C_8
REMARK    3  A    between atoms: C_11  and  C_13
REMARK    4  A    between atoms: C_13  and  S_14
REMARK    5  A    between atoms: S_14  and  C_15
REMARK    6  A    between atoms: N_19  and  N_20
REMARK    7  A    between atoms: C_22  and  C_27
REMARK    8  A    between atoms: C_24  and  C_26
REMARK                            x       y       z     vdW  Elec       q    Type
REMARK                         _______ _______ _______ _____ _____    ______ ____
ROOT
ATOM      1  C   UNL     1       1.674  -9.519   2.725  0.00  0.00    +0.210 A 
ATOM      2  N   UNL     1       0.557 -10.101   3.092  0.00  0.00    -0.119 NA
ATOM      3  N   UNL     1       0.816 -11.149   3.789  0.00  0.00    -0.106 NA
ATOM      4  C   UNL     1       2.110 -11.300   3.909  0.00  0.00    +0.270 A 
ATOM      5  N   UNL     1       2.702 -10.267   3.230  0.00  0.00    -0.208 N 
ATOM      6  N   UNL     1       2.764 -12.323   4.596  0.00  0.00    -0.201 N 
ATOM      7  C   UNL     1       2.171 -13.350   5.258  0.00  0.00    +0.045 A 
ATOM      8  C   UNL     1       3.152 -14.119   5.785  0.00  0.00    +0.048 A 
ATOM      9  C   UNL     1       4.381 -13.549   5.437  0.00  0.00    +0.061 A 
ATOM     10  N   UNL     1       4.151 -12.478   4.721  0.00  0.00    -0.169 NA
ATOM     11  C   UNL     1       5.739 -14.081   5.817  0.00  0.00    +0.067 C 
ATOM     12  C   UNL     1       0.688 -13.589   5.384  0.00  0.00    +0.066 C 
ENDROOT
BRANCH   5  13
ATOM     13  N   UNL     1       4.040 -10.033   3.088  0.00  0.00    -0.293 N 
ATOM     14  H   UNL     1       4.387  -9.451   3.837  0.00  0.00    +0.163 HD
ATOM     15  H   UNL     1       4.556 -10.899   3.034  0.00  0.00    +0.163 HD
ENDBRANCH   5  13
BRANCH   1  16
ATOM     16  S   UNL     1       1.822  -8.054   1.758  0.00  0.00    -0.075 S 
BRANCH  16  17
ATOM     17  C   UNL     1       0.105  -7.574   1.424  0.00  0.00    +0.175 C 
BRANCH  17  21
ATOM     18  C   UNL     1       0.059  -4.251  -0.021  0.00  0.00    +0.248 A 
ATOM     19  N   UNL     1       0.070  -5.024  -1.082  0.00  0.00    -0.107 NA
ATOM     20  N   UNL     1       0.087  -6.255  -0.710  0.00  0.00    -0.111 NA
ATOM     21  C   UNL     1       0.087  -6.317   0.592  0.00  0.00    +0.228 A 
ATOM     22  O   UNL     1       0.075  -5.057   1.060  0.00  0.00    -0.419 OA
BRANCH  18  27
ATOM     23  C   UNL     1      -0.018   1.503   0.010  0.00  0.00    +0.044 C 
ATOM     24  C   UNL     1       0.002  -0.004   0.002  0.00  0.00    -0.050 A 
ATOM     25  C   UNL     1       0.006  -0.686  -1.202  0.00  0.00    +0.004 A 
ATOM     26  C   UNL     1       0.024  -2.066  -1.216  0.00  0.00    +0.013 A 
ATOM     27  C   UNL     1       0.040  -2.773  -0.013  0.00  0.00    +0.038 A 
ATOM     28  C   UNL     1       0.036  -2.079   1.198  0.00  0.00    +0.013 A 
ATOM     29  C   UNL     1       0.023  -0.699   1.198  0.00  0.00    +0.004 A 
ENDBRANCH  18  27
ENDBRANCH  17  21
ENDBRANCH  16  17
ENDBRANCH   1  16
TORSDOF 5
