REMARK  Name = ZINC61969177
REMARK  7 active torsions:
REMARK  status: ('A' for Active; 'I' for Inactive)
REMARK    1  A    between atoms: C_1  and  C_2
REMARK    2  A    between atoms: C_2  and  C_4
REMARK    3  A    between atoms: C_4  and  N_5
REMARK    4  A    between atoms: N_13  and  C_14
REMARK    5  A    between atoms: C_15  and  C_25
REMARK    6  A    between atoms: C_21  and  C_23
REMARK    7  A    between atoms: C_21  and  C_24
REMARK                            x       y       z     vdW  Elec       q    Type
REMARK                         _______ _______ _______ _____ _____    ______ ____
ROOT
ATOM      1  C   UNL     1      -4.388  -1.583  -7.138  0.00  0.00    +0.086 A 
ATOM      2  C   UNL     1      -4.450  -2.491  -8.186  0.00  0.00    +0.069 A 
ATOM      3  C   UNL     1      -5.072  -2.041  -9.415  0.00  0.00    -0.018 A 
ATOM      4  C   UNL     1      -5.521  -0.765  -9.375  0.00  0.00    +0.021 A 
ATOM      5  S   UNL     1      -5.125  -0.202  -7.748  0.00  0.00    -0.075 S 
ATOM      6  C   UNL     1      -6.200  -0.038 -10.493  0.00  0.00    +0.203 C 
ATOM      7  O   UNL     1      -6.005  -0.799 -11.695  0.00  0.00    -0.368 OA
ATOM      8  C   UNL     1      -6.305  -2.190 -11.550  0.00  0.00    +0.068 C 
ATOM      9  C   UNL     1      -5.245  -2.872 -10.678  0.00  0.00    +0.071 C 
ATOM     10  C   UNL     1      -6.328  -2.850 -12.930  0.00  0.00    +0.041 C 
ATOM     11  C   UNL     1      -7.678  -2.346 -10.894  0.00  0.00    +0.041 C 
ENDROOT
BRANCH   1  20
ATOM     12  N   UNL     1      -1.214  -0.914  -1.893  0.00  0.00    -0.296 NA
ATOM     13  C   UNL     1      -1.731   0.367  -2.391  0.00  0.00    +0.104 C 
ATOM     14  C   UNL     1      -3.190   0.191  -2.825  0.00  0.00    +0.124 C 
ATOM     15  N   UNL     1      -3.262  -0.923  -3.783  0.00  0.00    -0.283 N 
ATOM     16  C   UNL     1      -2.642  -2.204  -3.408  0.00  0.00    +0.124 C 
ATOM     17  C   UNL     1      -1.204  -1.933  -2.951  0.00  0.00    +0.104 C 
ATOM     18  C   UNL     1      -3.879  -0.776  -4.971  0.00  0.00    +0.307 C 
ATOM     19  O   UNL     1      -4.465   0.259  -5.228  0.00  0.00    -0.252 OA
ATOM     20  N   UNL     1      -3.848  -1.774  -5.876  0.00  0.00    -0.263 N 
ATOM     21  H   UNL     1      -3.447  -2.626  -5.644  0.00  0.00    +0.157 HD
BRANCH  12  22
ATOM     22  C   UNL     1       0.124  -0.750  -1.308  0.00  0.00    +0.114 C 
BRANCH  22  24
ATOM     23  C   UNL     1      -0.317  -0.762   1.265  0.00  0.00    +0.040 C 
ATOM     24  C   UNL     1       0.013  -0.011   0.000  0.00  0.00    -0.066 C 
ATOM     25  C   UNL     1       0.202   1.285   0.039  0.00  0.00    +0.008 C 
ENDBRANCH  22  24
ENDBRANCH  12  22
ENDBRANCH   1  20
BRANCH   2  26
ATOM     26  C   UNL     1      -3.908  -3.847  -8.056  0.00  0.00    +0.244 C 
ATOM     27  O   UNL     1      -4.618  -4.750  -7.652  0.00  0.00    -0.270 OA
ATOM     28  N   UNL     1      -2.624  -4.094  -8.382  0.00  0.00    -0.325 N 
ATOM     29  H   UNL     1      -2.058  -3.374  -8.703  0.00  0.00    +0.145 HD
ATOM     30  H   UNL     1      -2.265  -4.991  -8.296  0.00  0.00    +0.145 HD
ENDBRANCH   2  26
TORSDOF 4
