REMARK  Name = ZINC39765127
REMARK  6 active torsions:
REMARK  status: ('A' for Active; 'I' for Inactive)
REMARK    1  A    between atoms: C_1  and  C_2
REMARK    2  A    between atoms: C_5  and  C_8
REMARK    3  A    between atoms: C_8  and  S_9
REMARK    4  A    between atoms: S_9  and  C_10
REMARK    5  A    between atoms: C_16  and  C_28
REMARK    6  A    between atoms: C_31  and  C_34
REMARK                            x       y       z     vdW  Elec       q    Type
REMARK                         _______ _______ _______ _____ _____    ______ ____
ROOT
ATOM      1  C   UNL     1       1.632  -6.614  -0.043  0.00  0.00    +0.182 C 
ATOM      2  N   UNL     1       0.420  -7.155  -0.045  0.00  0.00    -0.154 NA
ATOM      3  C   UNL     1       0.244  -8.466   0.041  0.00  0.00    +0.250 C 
ATOM      4  O   UNL     1      -0.881  -8.923  -0.014  0.00  0.00    -0.273 OA
ATOM      5  C   UNL     1       1.408  -9.391   0.203  0.00  0.00    +0.156 C 
ATOM      6  C   UNL     1       1.339 -10.570  -0.761  0.00  0.00    +0.073 C 
ATOM      7  C   UNL     1       2.638 -11.343  -0.656  0.00  0.00    +0.025 C 
ATOM      8  C   UNL     1       3.826 -10.657  -0.390  0.00  0.00    +0.050 C 
ATOM      9  C   UNL     1       5.135 -11.410  -0.322  0.00  0.00    +0.056 C 
ATOM     10  C   UNL     1       4.872 -12.827   0.194  0.00  0.00    +0.014 C 
ATOM     11  C   UNL     1       3.869 -13.512  -0.740  0.00  0.00    +0.080 C 
ATOM     12  C   UNL     1       2.616 -12.685  -0.821  0.00  0.00    +0.162 C 
ATOM     13  O   UNL     1       1.442 -13.296  -1.064  0.00  0.00    -0.292 OA
ATOM     14  N   UNL     1       3.829  -9.357  -0.166  0.00  0.00    -0.236 NA
ATOM     15  C   UNL     1       2.710  -8.666   0.004  0.00  0.00    +0.145 C 
ATOM     16  N   UNL     1       2.743  -7.350  -0.053  0.00  0.00    -0.208 NA
ENDROOT
BRANCH   6  17
ATOM     17  C   UNL     1       1.160 -10.065  -2.170  0.00  0.00    -0.039 A 
ATOM     18  C   UNL     1       2.116  -9.238  -2.731  0.00  0.00    +0.005 A 
ATOM     19  C   UNL     1       1.958  -8.772  -4.020  0.00  0.00    +0.019 A 
ATOM     20  C   UNL     1       0.831  -9.138  -4.758  0.00  0.00    +0.052 A 
ATOM     21  C   UNL     1      -0.130  -9.973  -4.185  0.00  0.00    +0.019 A 
ATOM     22  C   UNL     1       0.043 -10.436  -2.897  0.00  0.00    +0.005 A 
BRANCH  20  23
ATOM     23  C   UNL     1       0.660  -8.657  -6.096  0.00  0.00    +0.099 C 
ATOM     24  N   UNL     1       0.525  -8.276  -7.158  0.00  0.00    -0.191 NA
ENDBRANCH  20  23
ENDBRANCH   6  17
BRANCH   1  25
ATOM     25  S   UNL     1       1.777  -4.858  -0.034  0.00  0.00    -0.084 S 
BRANCH  25  26
ATOM     26  C   UNL     1       0.059  -4.275  -0.021  0.00  0.00    +0.112 C 
BRANCH  26  31
ATOM     27  C   UNL     1      -0.018   1.503   0.010  0.00  0.00    +0.044 C 
ATOM     28  C   UNL     1       0.002  -0.004   0.002  0.00  0.00    -0.050 A 
ATOM     29  C   UNL     1       0.006  -0.689  -1.199  0.00  0.00    +0.003 A 
ATOM     30  C   UNL     1       0.025  -2.071  -1.206  0.00  0.00    +0.005 A 
ATOM     31  C   UNL     1       0.040  -2.768  -0.013  0.00  0.00    -0.037 A 
ATOM     32  C   UNL     1       0.037  -2.084   1.188  0.00  0.00    +0.005 A 
ATOM     33  C   UNL     1       0.023  -0.702   1.195  0.00  0.00    +0.003 A 
ENDBRANCH  26  31
ENDBRANCH  25  26
ENDBRANCH   1  25
TORSDOF 5
