REMARK  Name = ZINC39665138
REMARK  10 active torsions:
REMARK  status: ('A' for Active; 'I' for Inactive)
REMARK    1  A    between atoms: C_1  and  C_2
REMARK    2  A    between atoms: C_2  and  C_3
REMARK    3  A    between atoms: C_3  and  C_5
REMARK    4  A    between atoms: C_3  and  C_6
REMARK    5  A    between atoms: C_10  and  C_19
REMARK    6  A    between atoms: N_21  and  C_22
REMARK    7  A    between atoms: C_22  and  C_23
REMARK    8  A    between atoms: C_23  and  C_25
REMARK    9  A    between atoms: C_23  and  O_26
REMARK   10  A    between atoms: O_26  and  C_27
REMARK                            x       y       z     vdW  Elec       q    Type
REMARK                         _______ _______ _______ _____ _____    ______ ____
ROOT
ATOM      1  C   UNL     1       0.750  -2.142   1.274  0.00  0.00    +0.218 C 
ATOM      2  O   UNL     1       0.416  -2.740   0.274  0.00  0.00    -0.275 OA
ATOM      3  N   UNL     1       1.205  -2.822   2.346  0.00  0.00    -0.300 N 
ATOM      4  C   UNL     1       1.551  -2.285   3.683  0.00  0.00    +0.121 C 
ATOM      5  C   UNL     1       1.035  -3.349   4.677  0.00  0.00    +0.100 C 
ATOM      6  C   UNL     1       0.986  -4.654   3.864  0.00  0.00    -0.004 C 
ATOM      7  C   UNL     1       1.465  -4.278   2.455  0.00  0.00    +0.115 C 
ATOM      8  C   UNL     1       1.917  -5.695   4.479  0.00  0.00    -0.010 C 
ATOM      9  C   UNL     1       1.807  -7.002   3.689  0.00  0.00    -0.082 C 
ATOM     10  N   UNL     1       0.419  -7.479   3.719  0.00  0.00    +0.379 N 
ATOM     11  C   UNL     1      -0.457  -6.514   3.043  0.00  0.00    -0.082 C 
ATOM     12  C   UNL     1      -0.443  -5.187   3.806  0.00  0.00    -0.010 C 
ATOM     13  H   UNL     1       0.361  -8.370   3.250  0.00  0.00    -0.086 HD
ATOM     14  H   UNL     1       0.123  -7.587   4.677  0.00  0.00    -0.086 HD
ENDROOT
BRANCH   5  15
ATOM     15  C   UNL     1      -0.342  -2.983   5.169  0.00  0.00    +0.218 C 
ATOM     16  O   UNL     1      -1.062  -2.281   4.491  0.00  0.00    -0.275 OA
ATOM     17  N   UNL     1      -0.773  -3.436   6.363  0.00  0.00    -0.312 N 
ATOM     18  H   UNL     1      -0.197  -3.998   6.905  0.00  0.00    +0.149 HD
BRANCH  17  19
ATOM     19  C   UNL     1      -2.111  -3.080   6.842  0.00  0.00    +0.148 C 
BRANCH  19  20
ATOM     20  C   UNL     1      -2.349  -3.718   8.212  0.00  0.00    +0.187 C 
ATOM     21  C   UNL     1      -3.747  -3.346   8.712  0.00  0.00    +0.053 C 
BRANCH  20  22
ATOM     22  O   UNL     1      -2.245  -5.139   8.100  0.00  0.00    -0.488 OA
BRANCH  22  23
ATOM     23  C   UNL     1      -1.910  -5.824   9.225  0.00  0.00    +0.121 A 
ATOM     24  C   UNL     1      -1.675  -7.189   9.163  0.00  0.00    +0.045 A 
ATOM     25  C   UNL     1      -1.334  -7.883  10.308  0.00  0.00    +0.004 A 
ATOM     26  C   UNL     1      -1.227  -7.217  11.515  0.00  0.00    +0.000 A 
ATOM     27  C   UNL     1      -1.461  -5.856  11.580  0.00  0.00    +0.004 A 
ATOM     28  C   UNL     1      -1.797  -5.157  10.436  0.00  0.00    +0.045 A 
ENDBRANCH  22  23
ENDBRANCH  20  22
ENDBRANCH  19  20
ENDBRANCH  17  19
ENDBRANCH   5  15
BRANCH   1  29
ATOM     29  C   UNL     1       0.658  -0.639   1.321  0.00  0.00    +0.072 C 
ATOM     30  C   UNL     1      -0.561  -0.178   0.518  0.00  0.00    +0.017 C 
BRANCH  29  32
ATOM     31  C   UNL     1       1.887   1.490   0.876  0.00  0.00    +0.004 C 
ATOM     32  C   UNL     1       1.925  -0.031   0.717  0.00  0.00    +0.009 C 
ENDBRANCH  29  32
ENDBRANCH   1  29
TORSDOF 7
