REMARK  Name = ZINC08254311
REMARK  8 active torsions:
REMARK  status: ('A' for Active; 'I' for Inactive)
REMARK    1  A    between atoms: C_1  and  C_2
REMARK    2  A    between atoms: C_2  and  C_3
REMARK    3  A    between atoms: C_2  and  N_4
REMARK    4  A    between atoms: C_5  and  C_7
REMARK    5  A    between atoms: C_15  and  C_17
REMARK    6  A    between atoms: C_17  and  N_18
REMARK    7  A    between atoms: C_20  and  C_23
REMARK    8  A    between atoms: C_27  and  N_29
REMARK                            x       y       z     vdW  Elec       q    Type
REMARK                         _______ _______ _______ _____ _____    ______ ____
ROOT
ATOM      1  C   UNL     1      -4.205  -0.362   2.494  0.00  0.00    +0.061 C 
ATOM      2  C   UNL     1      -2.736   0.070   2.523  0.00  0.00    -0.065 C 
ATOM      3  C   UNL     1      -3.310   2.147   3.626  0.00  0.00    -0.078 C 
ATOM      4  C   UNL     1      -4.796   1.776   3.629  0.00  0.00    -0.015 C 
ATOM      5  C   UNL     1      -5.087   0.890   2.411  0.00  0.00    -0.004 C 
ATOM      6  C   UNL     1      -4.717   1.667   1.141  0.00  0.00    -0.010 C 
ATOM      7  C   UNL     1      -3.233   2.042   1.207  0.00  0.00    -0.046 C 
ATOM      8  N   UNL     1      -2.629   1.543   2.461  0.00  0.00    +0.383 N 
ATOM      9  H   UNL     1      -1.637   1.807   2.482  0.00  0.00    -0.081 HD
ENDROOT
BRANCH   1  11
ATOM     10  N   UNL     1      -3.771  -2.392   1.148  0.00  0.00    -0.313 N 
ATOM     11  C   UNL     1      -4.450  -1.237   1.292  0.00  0.00    +0.215 C 
ATOM     12  O   UNL     1      -5.260  -0.901   0.453  0.00  0.00    -0.276 OA
ATOM     13  H   UNL     1      -3.123  -2.660   1.819  0.00  0.00    +0.149 HD
BRANCH  10  15
ATOM     14  C   UNL     1      -2.770  -4.098  -0.290  0.00  0.00    +0.027 C 
ATOM     15  C   UNL     1      -4.010  -3.242  -0.020  0.00  0.00    +0.067 C 
ATOM     16  C   UNL     1      -5.210  -4.152   0.248  0.00  0.00    +0.027 C 
ENDBRANCH  10  15
ENDBRANCH   1  11
BRANCH   7  17
ATOM     17  C   UNL     1      -2.497   1.420   0.019  0.00  0.00    +0.130 C 
BRANCH  17  18
ATOM     18  N   UNL     1      -1.104   1.874   0.017  0.00  0.00    -0.253 N 
ATOM     19  C   UNL     1      -0.013   1.076   0.008  0.00  0.00    +0.138 A 
ATOM     20  C   UNL     1       1.067   1.911   0.002  0.00  0.00    +0.113 A 
ATOM     21  N   UNL     1       0.572   3.162   0.014  0.00  0.00    -0.130 NA
ATOM     22  N   UNL     1      -0.712   3.100   0.025  0.00  0.00    -0.065 NA
BRANCH  20  23
ATOM     23  C   UNL     1       2.498   1.519  -0.014  0.00  0.00    +0.005 A 
ATOM     24  C   UNL     1       2.853   0.171  -0.018  0.00  0.00    +0.010 A 
ATOM     25  C   UNL     1       4.184  -0.193  -0.037  0.00  0.00    +0.002 A 
ATOM     26  C   UNL     1       5.170   0.776  -0.042  0.00  0.00    +0.023 A 
ATOM     27  C   UNL     1       4.825   2.122  -0.032  0.00  0.00    +0.025 A 
ATOM     28  C   UNL     1       3.489   2.496  -0.018  0.00  0.00    +0.032 A 
BRANCH  27  29
ATOM     29  N   UNL     1       5.824   3.099  -0.036  0.00  0.00    -0.358 N 
ATOM     30  H   UNL     1       5.583   4.039  -0.029  0.00  0.00    +0.142 HD
ATOM     31  H   UNL     1       6.758   2.838  -0.046  0.00  0.00    +0.142 HD
ENDBRANCH  27  29
ENDBRANCH  20  23
ENDBRANCH  17  18
ENDBRANCH   7  17
TORSDOF 6
