REMARK  Name = ZINC08978194
REMARK  6 active torsions:
REMARK  status: ('A' for Active; 'I' for Inactive)
REMARK    1  A    between atoms: C_1  and  C_2
REMARK    2  A    between atoms: C_5  and  C_9
REMARK    3  A    between atoms: C_7  and  C_8
REMARK    4  A    between atoms: C_15  and  C_17
REMARK    5  A    between atoms: N_22  and  S_23
REMARK    6  A    between atoms: S_23  and  C_26
REMARK                            x       y       z     vdW  Elec       q    Type
REMARK                         _______ _______ _______ _____ _____    ______ ____
ROOT
ATOM      1  C   UNL     1       7.518  -0.212  -1.753  0.00  0.00    +0.250 A 
ATOM      2  N   UNL     1       6.778  -1.284  -1.897  0.00  0.00    -0.106 NA
ATOM      3  N   UNL     1       5.627  -1.085  -1.358  0.00  0.00    -0.092 NA
ATOM      4  C   UNL     1       5.588   0.123  -0.848  0.00  0.00    +0.314 A 
ATOM      5  O   UNL     1       6.778   0.703  -1.090  0.00  0.00    -0.405 OA
ATOM      6  N   UNL     1       4.515   0.699  -0.187  0.00  0.00    -0.237 N 
ATOM      7  C   UNL     1       3.374   0.001  -0.018  0.00  0.00    +0.239 C 
ATOM      8  O   UNL     1       3.286  -1.130  -0.446  0.00  0.00    -0.274 OA
ATOM      9  H   UNL     1       4.585   1.604   0.155  0.00  0.00    +0.159 HD
ENDROOT
BRANCH   1  14
ATOM     10  C   UNL     1      12.917   0.480  -3.620  0.00  0.00    +0.044 C 
ATOM     11  C   UNL     1      11.503   0.298  -3.131  0.00  0.00    -0.047 A 
ATOM     12  C   UNL     1      10.870   1.329  -2.458  0.00  0.00    +0.004 A 
ATOM     13  C   UNL     1       9.574   1.171  -2.012  0.00  0.00    +0.013 A 
ATOM     14  C   UNL     1       8.905  -0.034  -2.232  0.00  0.00    +0.039 A 
ATOM     15  C   UNL     1       9.550  -1.069  -2.912  0.00  0.00    +0.016 A 
ATOM     16  C   UNL     1      10.844  -0.897  -3.357  0.00  0.00    -0.047 A 
ATOM     17  C   UNL     1      11.541  -2.013  -4.091  0.00  0.00    +0.044 C 
ENDBRANCH   1  14
BRANCH   7  18
ATOM     18  C   UNL     1       2.207   0.627   0.701  0.00  0.00    +0.166 C 
ATOM     19  C   UNL     1       1.317   1.388  -0.305  0.00  0.00    +0.031 C 
ATOM     20  C   UNL     1      -0.117   1.093   0.208  0.00  0.00    +0.019 C 
ATOM     21  C   UNL     1       0.029  -0.362   0.719  0.00  0.00    +0.110 C 
ATOM     22  N   UNL     1       1.377  -0.420   1.313  0.00  0.00    -0.165 NA
BRANCH  22  23
ATOM     23  S   UNL     1       1.873  -1.488   2.478  0.00  0.00    +0.062 S 
ATOM     24  O   UNL     1       1.110  -2.672   2.295  0.00  0.00    -0.153 OA
ATOM     25  O   UNL     1       3.294  -1.485   2.452  0.00  0.00    -0.153 OA
BRANCH  23  26
ATOM     26  C   UNL     1       1.397  -0.817   4.036  0.00  0.00    +0.106 A 
ATOM     27  C   UNL     1       2.214   0.098   4.673  0.00  0.00    +0.030 A 
ATOM     28  C   UNL     1       1.838   0.629   5.893  0.00  0.00    +0.022 A 
ATOM     29  C   UNL     1       0.649   0.235   6.482  0.00  0.00    +0.041 A 
ATOM     30  C   UNL     1      -0.165  -0.686   5.846  0.00  0.00    +0.022 A 
ATOM     31  C   UNL     1       0.209  -1.212   4.624  0.00  0.00    +0.030 A 
ATOM     32 CL   UNL     1       0.181   0.895   8.017  0.00  0.00    -0.084 Cl
ENDBRANCH  23  26
ENDBRANCH  22  23
ENDBRANCH   7  18
TORSDOF 4
