REMARK  Name = ZINC20201426
REMARK  6 active torsions:
REMARK  status: ('A' for Active; 'I' for Inactive)
REMARK    1  A    between atoms: C_3  and  C_11
REMARK    2  A    between atoms: C_4  and  N_8
REMARK    3  A    between atoms: N_13  and  C_14
REMARK    4  A    between atoms: C_14  and  C_15
REMARK    5  A    between atoms: C_15  and  C_16
REMARK    6  A    between atoms: C_16  and  C_17
REMARK                            x       y       z     vdW  Elec       q    Type
REMARK                         _______ _______ _______ _____ _____    ______ ____
ROOT
ATOM      1  C   UNL     1       3.564   2.199   0.573  0.00  0.00    +0.246 C 
ATOM      2  O   UNL     1       4.636   1.631   0.658  0.00  0.00    -0.270 OA
ATOM      3  N   UNL     1       3.492   3.533   0.750  0.00  0.00    -0.311 N 
ATOM      4  H   UNL     1       2.637   3.986   0.682  0.00  0.00    +0.149 HD
ENDROOT
BRANCH   1   7
ATOM      5  C   UNL     1      -0.005   1.361  -0.238  0.00  0.00    +0.021 A 
ATOM      6  C   UNL     1       1.134   2.088   0.040  0.00  0.00    +0.017 A 
ATOM      7  C   UNL     1       2.340   1.426   0.275  0.00  0.00    +0.067 A 
ATOM      8  C   UNL     1       2.386   0.031   0.228  0.00  0.00    +0.140 A 
ATOM      9  C   UNL     1       1.241  -0.684  -0.050  0.00  0.00    +0.053 A 
ATOM     10  C   UNL     1       0.046  -0.022  -0.283  0.00  0.00    +0.043 A 
ATOM     11 CL   UNL     1      -1.391  -0.930  -0.633  0.00  0.00    -0.083 Cl
BRANCH   8  12
ATOM     12  N   UNL     1       3.661  -0.678   0.476  0.00  0.00    +0.057 N 
ATOM     13  O   UNL     1       4.052  -1.512  -0.307  0.00  0.00    -0.126 OA
ATOM     14  O   UNL     1       4.313  -0.422   1.462  0.00  0.00    -0.126 OA
ENDBRANCH   8  12
ENDBRANCH   1   7
BRANCH   3  15
ATOM     15  C   UNL     1       4.706   4.299   1.045  0.00  0.00    +0.105 C 
BRANCH  15  16
ATOM     16  C   UNL     1       4.350   5.779   1.199  0.00  0.00    +0.025 C 
BRANCH  16  17
ATOM     17  C   UNL     1       5.617   6.579   1.507  0.00  0.00    +0.066 C 
BRANCH  17  18
ATOM     18  C   UNL     1       5.266   8.037   1.659  0.00  0.00    +0.104 A 
ATOM     19  N   UNL     1       4.923   8.718   2.733  0.00  0.00    -0.145 NA
ATOM     20  N   UNL     1       4.657   9.950   2.692  0.00  0.00    -0.126 NA
ATOM     21  C   UNL     1       4.707  10.638   1.559  0.00  0.00    +0.179 A 
ATOM     22  S   UNL     1       5.205   9.339   0.431  0.00  0.00    -0.036 S 
ATOM     23  N   UNL     1       4.453  11.980   1.318  0.00  0.00    -0.336 N 
ATOM     24  H   UNL     1       4.193  12.563   2.048  0.00  0.00    +0.144 HD
ATOM     25  H   UNL     1       4.535  12.336   0.419  0.00  0.00    +0.144 HD
ENDBRANCH  17  18
ENDBRANCH  16  17
ENDBRANCH  15  16
ENDBRANCH   3  15
TORSDOF 6
