REMARK  Name = ZINC05464459
REMARK  13 active torsions:
REMARK  status: ('A' for Active; 'I' for Inactive)
REMARK    1  A    between atoms: C_1  and  C_2
REMARK    2  A    between atoms: C_2  and  C_3
REMARK    3  A    between atoms: C_4  and  C_5
REMARK    4  A    between atoms: C_5  and  C_7
REMARK    5  A    between atoms: C_5  and  O_34
REMARK    6  A    between atoms: C_7  and  C_9
REMARK    7  A    between atoms: C_7  and  O_33
REMARK    8  A    between atoms: C_10  and  C_32
REMARK    9  A    between atoms: C_15  and  O_31
REMARK   10  A    between atoms: C_17  and  C_21
REMARK   11  A    between atoms: C_17  and  O_29
REMARK   12  A    between atoms: C_21  and  C_23
REMARK   13  A    between atoms: O_29  and  C_30
REMARK                            x       y       z     vdW  Elec       q    Type
REMARK                         _______ _______ _______ _____ _____    ______ ____
ROOT
ATOM      1  C   UNL     1       2.178   0.692  -1.153  0.00  0.00    +0.137 C 
ATOM      2  C   UNL     1       1.923  -0.190  -2.134  0.00  0.00    +0.037 C 
ATOM      3  C   UNL     1       2.947  -0.141  -3.104  0.00  0.00    +0.217 C 
ATOM      4  O   UNL     1       3.040  -0.798  -4.122  0.00  0.00    -0.287 OA
ATOM      5  C   UNL     1       3.899   0.909  -2.594  0.00  0.00    +0.276 C 
ATOM      6  O   UNL     1       3.316   1.379  -1.355  0.00  0.00    -0.467 OA
ATOM      7  C   UNL     1       5.303   0.324  -2.373  0.00  0.00    +0.233 C 
ATOM      8  C   UNL     1       6.017   0.731  -3.684  0.00  0.00    +0.231 C 
ATOM      9  N   UNL     1       5.291   1.908  -4.177  0.00  0.00    -0.275 N 
ATOM     10  C   UNL     1       4.086   2.022  -3.586  0.00  0.00    +0.270 C 
ATOM     11  O   UNL     1       3.274   2.893  -3.819  0.00  0.00    -0.271 OA
ATOM     12  C   UNL     1       0.722  -1.098  -2.190  0.00  0.00    +0.051 C 
ATOM     13  H   UNL     1       5.635   2.524  -4.843  0.00  0.00    +0.152 HD
ENDROOT
BRANCH   8  14
ATOM     14  C   UNL     1       7.456   1.082  -3.406  0.00  0.00    +0.216 C 
ATOM     15  O   UNL     1       7.869   2.192  -3.662  0.00  0.00    -0.287 OA
BRANCH  14  16
ATOM     16  C   UNL     1       8.359   0.077  -2.823  0.00  0.00    +0.022 A 
ATOM     17  C   UNL     1       7.919  -1.237  -2.632  0.00  0.00    +0.011 A 
ATOM     18  C   UNL     1       8.774  -2.174  -2.090  0.00  0.00    +0.001 A 
ATOM     19  C   UNL     1      10.059  -1.815  -1.726  0.00  0.00    +0.000 A 
ATOM     20  C   UNL     1      10.501  -0.516  -1.907  0.00  0.00    +0.001 A 
ATOM     21  C   UNL     1       9.660   0.432  -2.452  0.00  0.00    +0.011 A 
ENDBRANCH  14  16
ENDBRANCH   8  14
BRANCH   8  22
ATOM     22  O   UNL     1       5.943  -0.331  -4.637  0.00  0.00    -0.350 OA
ATOM     23  C   UNL     1       6.473   0.003  -5.921  0.00  0.00    +0.197 C 
ENDBRANCH   8  22
BRANCH   7  24
ATOM     24  O   UNL     1       5.934   0.920  -1.239  0.00  0.00    -0.382 OA
ATOM     25  H   UNL     1       6.822   0.583  -1.060  0.00  0.00    +0.210 HD
ENDBRANCH   7  24
BRANCH   1  26
ATOM     26  C   UNL     1       1.282   0.895   0.041  0.00  0.00    +0.212 C 
BRANCH  26  27
ATOM     27  O   UNL     1       2.039   0.719   1.240  0.00  0.00    -0.381 OA
ATOM     28  H   UNL     1       2.823   1.282   1.296  0.00  0.00    +0.210 HD
ENDBRANCH  26  27
BRANCH  26  29
ATOM     29  C   UNL     1       0.700   2.309   0.008  0.00  0.00    +0.173 C 
BRANCH  29  31
ATOM     30  C   UNL     1       0.071   3.457   2.069  0.00  0.00    -0.029 C 
ATOM     31  C   UNL     1      -0.197   2.512   1.202  0.00  0.00    +0.003 C 
BRANCH  30  33
ATOM     32  C   UNL     1       0.009   3.594   4.544  0.00  0.00    +0.008 C 
ATOM     33  C   UNL     1      -0.826   3.659   3.264  0.00  0.00    +0.023 C 
ENDBRANCH  30  33
ENDBRANCH  29  31
BRANCH  29  34
ATOM     34  O   UNL     1      -0.057   2.485  -1.191  0.00  0.00    -0.385 OA
ATOM     35  H   UNL     1      -0.798   1.870  -1.283  0.00  0.00    +0.210 HD
ENDBRANCH  29  34
ENDBRANCH  26  29
ENDBRANCH   1  26
TORSDOF 10
