REMARK  Name = ZINC65181997
REMARK  9 active torsions:
REMARK  status: ('A' for Active; 'I' for Inactive)
REMARK    1  A    between atoms: C_1  and  C_2
REMARK    2  A    between atoms: C_7  and  C_8
REMARK    3  A    between atoms: N_10  and  C_11
REMARK    4  A    between atoms: N_10  and  C_12
REMARK    5  A    between atoms: C_12  and  C_13
REMARK    6  A    between atoms: C_13  and  C_14
REMARK    7  A    between atoms: C_17  and  C_20
REMARK    8  A    between atoms: C_26  and  O_30
REMARK    9  A    between atoms: O_30  and  C_31
REMARK                            x       y       z     vdW  Elec       q    Type
REMARK                         _______ _______ _______ _____ _____    ______ ____
ROOT
ATOM      1  C   UNL     1      -1.232   1.194   6.614  0.00  0.00    +0.139 C 
ATOM      2  N   UNL     1      -0.221   1.779   7.146  0.00  0.00    -0.072 NA
ATOM      3  O   UNL     1      -0.594   2.461   8.329  0.00  0.00    -0.367 OA
ATOM      4  C   UNL     1      -2.003   2.237   8.497  0.00  0.00    +0.318 C 
ATOM      5  N   UNL     1      -2.379   1.405   7.344  0.00  0.00    -0.291 N 
ATOM      6  H   UNL     1      -3.265   1.067   7.138  0.00  0.00    +0.151 HD
ENDROOT
BRANCH   4   7
ATOM      7  C   UNL     1      -2.275   1.500   9.810  0.00  0.00    +0.165 C 
ATOM      8  C   UNL     1      -3.761   1.290   9.991  0.00  0.00    +0.012 C 
ATOM      9  C   UNL     1      -4.097   1.938  11.128  0.00  0.00    -0.004 A 
ATOM     10  C   UNL     1      -5.374   2.108  11.833  0.00  0.00    +0.013 A 
ATOM     11  C   UNL     1      -5.402   2.828  12.975  0.00  0.00    +0.046 A 
ATOM     12  C   UNL     1      -4.239   3.419  13.504  0.00  0.00    +0.122 A 
ATOM     13  C   UNL     1      -3.026   3.305  12.906  0.00  0.00    +0.071 A 
ATOM     14  C   UNL     1      -2.887   2.569  11.703  0.00  0.00    +0.046 A 
ATOM     15  N   UNL     1      -1.841   2.318  10.948  0.00  0.00    -0.373 N 
ATOM     16  H   UNL     1      -0.934   2.621  11.115  0.00  0.00    +0.160 HD
BRANCH  12  17
ATOM     17  O   UNL     1      -4.335   4.130  14.655  0.00  0.00    -0.495 OA
ATOM     18  C   UNL     1      -5.629   4.227  15.252  0.00  0.00    +0.277 C 
ENDBRANCH  12  17
ENDBRANCH   4   7
BRANCH   1  19
ATOM     19  C   UNL     1      -1.172   0.384   5.345  0.00  0.00    +0.094 C 
BRANCH  19  20
ATOM     20  C   UNL     1       0.264   0.371   4.816  0.00  0.00    +0.115 C 
BRANCH  20  23
ATOM     21  C   UNL     1       0.129   0.182   2.391  0.00  0.00    +0.247 C 
ATOM     22  O   UNL     1      -0.011   1.388   2.332  0.00  0.00    -0.270 OA
ATOM     23  N   UNL     1       0.323  -0.417   3.583  0.00  0.00    -0.300 N 
ATOM     24  C   UNL     1       0.593  -1.856   3.644  0.00  0.00    +0.132 C 
BRANCH  21  31
ATOM     25  C   UNL     1      -2.060   0.524   0.530  0.00  0.00    +0.044 C 
ATOM     26  C   UNL     1      -0.965  -0.472   0.250  0.00  0.00    -0.038 A 
ATOM     27  C   UNL     1      -0.996  -1.227  -0.904  0.00  0.00    +0.004 A 
ATOM     28  C   UNL     1       0.009  -2.142  -1.163  0.00  0.00    +0.000 A 
ATOM     29  C   UNL     1       1.051  -2.306  -0.268  0.00  0.00    +0.001 A 
ATOM     30  C   UNL     1       1.094  -1.557   0.890  0.00  0.00    +0.013 A 
ATOM     31  C   UNL     1       0.086  -0.628   1.155  0.00  0.00    +0.040 A 
ENDBRANCH  21  31
ENDBRANCH  20  23
ENDBRANCH  19  20
ENDBRANCH   1  19
TORSDOF 6
