REMARK  Name = ZINC09047788
REMARK  8 active torsions:
REMARK  status: ('A' for Active; 'I' for Inactive)
REMARK    1  A    between atoms: C_1  and  O_2
REMARK    2  A    between atoms: O_2  and  C_3
REMARK    3  A    between atoms: C_5  and  C_12
REMARK    4  A    between atoms: C_7  and  O_10
REMARK    5  A    between atoms: C_8  and  O_9
REMARK    6  A    between atoms: O_10  and  C_11
REMARK    7  A    between atoms: C_12  and  C_13
REMARK    8  A    between atoms: C_15  and  O_27
REMARK                            x       y       z     vdW  Elec       q    Type
REMARK                         _______ _______ _______ _____ _____    ______ ____
ROOT
ATOM      1  C   UNL     1       3.069  -2.942   1.393  0.00  0.00    +0.114 C 
ATOM      2  C   UNL     1       2.201  -3.932   2.152  0.00  0.00    +0.165 C 
ATOM      3  C   UNL     1       2.229  -5.324   1.589  0.00  0.00    +0.009 A 
ATOM      4  C   UNL     1       1.123  -6.134   1.834  0.00  0.00    +0.008 A 
ATOM      5  C   UNL     1       1.084  -7.431   1.371  0.00  0.00    +0.000 A 
ATOM      6  C   UNL     1       2.149  -7.945   0.655  0.00  0.00    +0.002 A 
ATOM      7  C   UNL     1       3.245  -7.145   0.401  0.00  0.00    +0.029 A 
ATOM      8  C   UNL     1       3.280  -5.841   0.863  0.00  0.00    +0.111 A 
ATOM      9  S   UNL     1       4.697  -4.846   0.502  0.00  0.00    +0.059 S 
ATOM     10  O   UNL     1       4.625  -4.506  -0.876  0.00  0.00    -0.153 OA
ATOM     11  O   UNL     1       5.821  -5.500   1.075  0.00  0.00    -0.153 OA
ATOM     12  N   UNL     1       4.459  -3.439   1.364  0.00  0.00    -0.184 NA
ATOM     13  H   UNL     1       5.184  -2.979   1.816  0.00  0.00    +0.148 HD
ENDROOT
BRANCH   2  14
ATOM     14  O   UNL     1       2.645  -3.981   3.509  0.00  0.00    -0.386 OA
ATOM     15  H   UNL     1       2.142  -4.591   4.066  0.00  0.00    +0.210 HD
ENDBRANCH   2  14
BRANCH   1  16
ATOM     16  C   UNL     1       2.548  -2.797  -0.038  0.00  0.00    +0.058 C 
BRANCH  16  19
ATOM     17  C   UNL     1      -0.173  -0.176   0.068  0.00  0.00    +0.165 A 
ATOM     18  C   UNL     1       1.078  -0.774   0.046  0.00  0.00    +0.053 A 
ATOM     19  C   UNL     1       1.187  -2.151  -0.013  0.00  0.00    -0.039 A 
ATOM     20  C   UNL     1       0.050  -2.937  -0.051  0.00  0.00    +0.053 A 
ATOM     21  C   UNL     1      -1.204  -2.346  -0.029  0.00  0.00    +0.165 A 
ATOM     22  C   UNL     1      -1.318  -0.963   0.036  0.00  0.00    +0.201 A 
BRANCH  17  24
ATOM     23  C   UNL     1       0.940   1.924   0.162  0.00  0.00    +0.277 C 
ATOM     24  O   UNL     1      -0.279   1.179   0.126  0.00  0.00    -0.491 OA
ENDBRANCH  17  24
BRANCH  22  25
ATOM     25  O   UNL     1      -2.547  -0.380   0.064  0.00  0.00    -0.501 OA
ATOM     26  H   UNL     1      -2.904  -0.173  -0.811  0.00  0.00    +0.292 HD
ENDBRANCH  22  25
BRANCH  21  27
ATOM     27  O   UNL     1      -2.322  -3.120  -0.065  0.00  0.00    -0.491 OA
ATOM     28  C   UNL     1      -2.129  -4.535  -0.125  0.00  0.00    +0.277 C 
ENDBRANCH  21  27
ENDBRANCH  16  19
ENDBRANCH   1  16
TORSDOF 6
