REMARK  Name = ZINC32994562
REMARK  7 active torsions:
REMARK  status: ('A' for Active; 'I' for Inactive)
REMARK    1  A    between atoms: C_1  and  C_2
REMARK    2  A    between atoms: C_4  and  O_5
REMARK    3  A    between atoms: C_14  and  C_16
REMARK    4  A    between atoms: C_16  and  C_17
REMARK    5  A    between atoms: C_17  and  N_18
REMARK    6  A    between atoms: N_18  and  S_19
REMARK    7  A    between atoms: S_19  and  C_22
REMARK                            x       y       z     vdW  Elec       q    Type
REMARK                         _______ _______ _______ _____ _____    ______ ____
ROOT
ATOM      1  C   UNL     1      -7.205  -0.424  -1.145  0.00  0.00    +0.045 C 
ATOM      2  C   UNL     1      -6.020  -0.988  -0.405  0.00  0.00    -0.033 A 
ATOM      3  C   UNL     1      -6.083  -2.210   0.185  0.00  0.00    +0.091 A 
ATOM      4  C   UNL     1      -4.961  -2.716   0.872  0.00  0.00    +0.285 A 
ATOM      5  O   UNL     1      -3.817  -2.020   0.962  0.00  0.00    -0.425 OA
ATOM      6  C   UNL     1      -3.687  -0.800   0.399  0.00  0.00    +0.141 A 
ATOM      7  C   UNL     1      -4.769  -0.234  -0.302  0.00  0.00    +0.021 A 
ATOM      8  C   UNL     1      -4.640   1.030  -0.888  0.00  0.00    +0.013 A 
ATOM      9  C   UNL     1      -3.465   1.715  -0.774  0.00  0.00    +0.024 A 
ATOM     10  C   UNL     1      -2.388   1.157  -0.086  0.00  0.00    +0.037 A 
ATOM     11  C   UNL     1      -2.498  -0.095   0.501  0.00  0.00    +0.070 A 
ATOM     12  N   UNL     1      -1.191   1.867   0.018  0.00  0.00    -0.285 N 
ATOM     13  C   UNL     1      -0.014   1.209   0.005  0.00  0.00    +0.218 C 
ATOM     14  O   UNL     1       0.003  -0.004  -0.013  0.00  0.00    -0.275 OA
ATOM     15  H   UNL     1      -1.207   2.962   0.110  0.00  0.00    +0.155 HD
ENDROOT
BRANCH   4  16
ATOM     16  O   UNL     1      -5.031  -3.813   1.396  0.00  0.00    -0.480 OA
ATOM     17  H   UNL     1      -4.163  -4.222   1.936  0.00  0.00    +0.295 HD
ENDBRANCH   4  16
BRANCH  13  18
ATOM     18  C   UNL     1       1.280   1.980   0.007  0.00  0.00    +0.113 C 
BRANCH  18  19
ATOM     19  C   UNL     1       2.457   1.002  -0.017  0.00  0.00    +0.115 C 
BRANCH  19  20
ATOM     20  N   UNL     1       3.715   1.752  -0.015  0.00  0.00    -0.189 NA
ATOM     21  H   UNL     1       3.743   2.781  -0.402  0.00  0.00    +0.148 HD
BRANCH  20  22
ATOM     22  S   UNL     1       5.138   0.981   0.334  0.00  0.00    +0.065 S 
ATOM     23  O   UNL     1       6.166   1.957   0.230  0.00  0.00    -0.153 OA
ATOM     24  O   UNL     1       4.915   0.234   1.523  0.00  0.00    -0.153 OA
BRANCH  22  25
ATOM     25  C   UNL     1       5.425  -0.191  -0.950  0.00  0.00    +0.142 A 
ATOM     26  C   UNL     1       6.087  -0.029  -2.121  0.00  0.00    +0.036 A 
ATOM     27  C   UNL     1       6.192  -1.101  -2.987  0.00  0.00    +0.010 A 
ATOM     28  C   UNL     1       5.619  -2.281  -2.643  0.00  0.00    +0.047 A 
ATOM     29  S   UNL     1       4.910  -1.897  -1.050  0.00  0.00    -0.077 S 
ENDBRANCH  22  25
ENDBRANCH  20  22
ENDBRANCH  19  20
ENDBRANCH  18  19
ENDBRANCH  13  18
TORSDOF 6
