REMARK  Name = ZINC67305632
REMARK  8 active torsions:
REMARK  status: ('A' for Active; 'I' for Inactive)
REMARK    1  A    between atoms: C_1  and  C_2
REMARK    2  A    between atoms: C_10  and  C_11
REMARK    3  A    between atoms: N_13  and  C_14
REMARK    4  A    between atoms: C_14  and  C_16
REMARK    5  A    between atoms: C_14  and  C_17
REMARK    6  A    between atoms: C_18  and  C_24
REMARK    7  A    between atoms: N_20  and  C_23
REMARK    8  A    between atoms: C_21  and  C_22
REMARK                            x       y       z     vdW  Elec       q    Type
REMARK                         _______ _______ _______ _____ _____    ______ ____
ROOT
ATOM      1  C   UNL     1       0.301  -0.465   2.457  0.00  0.00    +0.280 C 
ATOM      2  O   UNL     1       0.504   0.709   2.700  0.00  0.00    -0.267 OA
ATOM      3  N   UNL     1       0.055  -1.329   3.462  0.00  0.00    -0.302 N 
ATOM      4  H   UNL     1      -0.107  -2.265   3.268  0.00  0.00    +0.150 HD
ENDROOT
BRANCH   1  14
ATOM      5  C   UNL     1       0.842   1.314  -0.036  0.00  0.00    +0.048 C 
ATOM      6  C   UNL     1       0.559  -0.166  -0.022  0.00  0.00    +0.008 A 
ATOM      7  C   UNL     1       0.489  -1.058  -1.179  0.00  0.00    +0.025 A 
ATOM      8  C   UNL     1       0.641  -0.881  -2.557  0.00  0.00    +0.012 A 
ATOM      9  C   UNL     1       0.510  -1.950  -3.396  0.00  0.00    +0.002 A 
ATOM     10  C   UNL     1       0.227  -3.212  -2.890  0.00  0.00    +0.024 A 
ATOM     11  C   UNL     1       0.073  -3.408  -1.534  0.00  0.00    +0.084 A 
ATOM     12  C   UNL     1       0.202  -2.334  -0.660  0.00  0.00    +0.154 A 
ATOM     13  O   UNL     1       0.109  -2.217   0.679  0.00  0.00    -0.448 OA
ATOM     14  C   UNL     1       0.323  -0.942   1.067  0.00  0.00    +0.193 A 
ATOM     15 CL   UNL     1      -0.282  -4.993  -0.919  0.00  0.00    -0.080 Cl
ENDBRANCH   1  14
BRANCH   3  16
ATOM     16  C   UNL     1       0.033  -0.854   4.847  0.00  0.00    +0.104 C 
ATOM     17  C   UNL     1       1.467  -0.631   5.333  0.00  0.00    +0.033 C 
BRANCH  16  18
ATOM     18  C   UNL     1      -0.639  -1.881   5.720  0.00  0.00    +0.016 A 
ATOM     19  C   UNL     1      -0.362  -3.252   5.740  0.00  0.00    +0.065 A 
ATOM     20  N   UNL     1      -1.146  -3.815   6.624  0.00  0.00    -0.176 NA
ATOM     21  N   UNL     1      -1.948  -2.818   7.195  0.00  0.00    -0.271 N 
ATOM     22  C   UNL     1      -1.614  -1.640   6.628  0.00  0.00    +0.041 A 
ATOM     23  C   UNL     1      -2.220  -0.297   6.945  0.00  0.00    +0.065 C 
ATOM     24  C   UNL     1      -2.965  -3.018   8.230  0.00  0.00    +0.172 C 
ATOM     25  C   UNL     1       0.662  -3.959   4.891  0.00  0.00    +0.068 C 
ENDBRANCH  16  18
ENDBRANCH   3  16
TORSDOF 3
