REMARK  Name = ZINC40376090
REMARK  5 active torsions:
REMARK  status: ('A' for Active; 'I' for Inactive)
REMARK    1  A    between atoms: C_4  and  N_11
REMARK    2  A    between atoms: C_5  and  C_7
REMARK    3  A    between atoms: N_8  and  O_9
REMARK    4  A    between atoms: N_11  and  S_12
REMARK    5  A    between atoms: S_12  and  C_15
REMARK                            x       y       z     vdW  Elec       q    Type
REMARK                         _______ _______ _______ _____ _____    ______ ____
ROOT
ATOM      1  C   UNL     1      -0.275   1.088   0.415  0.00  0.00    +0.001 A 
ATOM      2  C   UNL     1       0.860   1.881   0.382  0.00  0.00    +0.002 A 
ATOM      3  C   UNL     1       2.111   1.305   0.292  0.00  0.00    +0.025 A 
ATOM      4  C   UNL     1       2.239  -0.076   0.233  0.00  0.00    +0.059 A 
ATOM      5  C   UNL     1       1.092  -0.881   0.266  0.00  0.00    +0.040 A 
ATOM      6  C   UNL     1      -0.167  -0.286   0.357  0.00  0.00    +0.013 A 
ENDROOT
BRANCH   5   7
ATOM      7  C   UNL     1       1.214  -2.353   0.204  0.00  0.00    +0.164 C 
ATOM      8  N   UNL     1       0.573  -3.022  -0.711  0.00  0.00    -0.071 NA
ATOM      9  N   UNL     1       2.013  -3.021   1.118  0.00  0.00    -0.340 N 
ATOM     10  H   UNL     1       2.491  -2.523   1.799  0.00  0.00    +0.144 HD
ATOM     11  H   UNL     1       2.093  -3.986   1.077  0.00  0.00    +0.144 HD
BRANCH   8  12
ATOM     12  O   UNL     1      -0.153  -2.333  -1.713  0.00  0.00    -0.408 OA
ATOM     13  H   UNL     1      -0.533  -2.910  -2.390  0.00  0.00    +0.328 HD
ENDBRANCH   8  12
ENDBRANCH   5   7
BRANCH   4  14
ATOM     14  N   UNL     1       3.500  -0.659   0.141  0.00  0.00    -0.215 N 
ATOM     15  H   UNL     1       3.625  -1.464  -0.385  0.00  0.00    +0.174 HD
BRANCH  14  16
ATOM     16  S   UNL     1       4.786   0.022   0.931  0.00  0.00    +0.079 S 
ATOM     17  O   UNL     1       5.882  -0.867   0.764  0.00  0.00    -0.149 OA
ATOM     18  O   UNL     1       4.839   1.382   0.523  0.00  0.00    -0.149 OA
BRANCH  16  19
ATOM     19  C   UNL     1       4.399   0.027   2.650  0.00  0.00    +0.147 A 
ATOM     20  C   UNL     1       4.657  -0.919   3.586  0.00  0.00    +0.038 A 
ATOM     21  C   UNL     1       4.256  -0.699   4.890  0.00  0.00    +0.030 A 
ATOM     22  C   UNL     1       3.616   0.458   5.195  0.00  0.00    +0.080 A 
ATOM     23  S   UNL     1       3.571   1.283   3.612  0.00  0.00    -0.057 S 
ATOM     24 CL   UNL     1       3.005   0.999   6.727  0.00  0.00    -0.076 Cl
ENDBRANCH  16  19
ENDBRANCH  14  16
ENDBRANCH   4  14
TORSDOF 5
