REMARK  Name = ZINC37985269
REMARK  4 active torsions:
REMARK  status: ('A' for Active; 'I' for Inactive)
REMARK    1  A    between atoms: C_1  and  C_2
REMARK    2  A    between atoms: C_3  and  S_8
REMARK    3  A    between atoms: S_8  and  N_11
REMARK    4  A    between atoms: N_11  and  C_12
REMARK                            x       y       z     vdW  Elec       q    Type
REMARK                         _______ _______ _______ _____ _____    ______ ____
ROOT
ATOM      1  N   UNL     1       0.867  -1.171  -3.657  0.00  0.00    -0.182 NA
ATOM      2  H   UNL     1       1.726  -0.975  -3.252  0.00  0.00    +0.149 HD
ENDROOT
BRANCH   1   3
ATOM      3  C   UNL     1       0.436  -2.562  -3.823  0.00  0.00    +0.108 C 
ATOM      4  C   UNL     1       0.943  -3.070  -5.161  0.00  0.00    +0.036 C 
ATOM      5  C   UNL     1       0.454  -4.511  -5.368  0.00  0.00    +0.076 C 
ATOM      6  S   UNL     1       1.402  -5.566  -4.232  0.00  0.00    -0.125 S 
ATOM      7  C   UNL     1       1.356  -4.669  -2.712  0.00  0.00    +0.013 A 
ATOM      8  C   UNL     1       0.927  -3.358  -2.650  0.00  0.00    -0.015 A 
ATOM      9  C   UNL     1       0.935  -2.711  -1.417  0.00  0.00    +0.006 A 
ATOM     10  C   UNL     1       1.356  -3.360  -0.277  0.00  0.00    +0.000 A 
ATOM     11  C   UNL     1       1.779  -4.675  -0.344  0.00  0.00    +0.001 A 
ATOM     12  C   UNL     1       1.775  -5.325  -1.554  0.00  0.00    +0.015 A 
ENDBRANCH   1   3
BRANCH   1  13
ATOM     13  S   UNL     1      -0.113   0.065  -4.162  0.00  0.00    +0.067 S 
ATOM     14  O   UNL     1      -0.540  -0.266  -5.476  0.00  0.00    -0.152 OA
ATOM     15  O   UNL     1       0.573   1.274  -3.865  0.00  0.00    -0.152 OA
BRANCH  13  18
ATOM     16  C   UNL     1      -2.226   2.434  -3.376  0.00  0.00    +0.068 C 
ATOM     17  C   UNL     1      -2.412   1.040  -2.834  0.00  0.00    +0.074 A 
ATOM     18  C   UNL     1      -1.551   0.038  -3.143  0.00  0.00    +0.166 A 
ATOM     19  S   UNL     1      -2.278  -1.314  -2.232  0.00  0.00    -0.036 S 
ATOM     20  C   UNL     1      -3.577  -0.474  -1.568  0.00  0.00    +0.169 A 
ATOM     21  N   UNL     1      -3.417   0.740  -2.034  0.00  0.00    -0.231 NA
ATOM     22 CL   UNL     1      -4.823  -1.071  -0.517  0.00  0.00    -0.054 Cl
ENDBRANCH  13  18
ENDBRANCH   1  13
TORSDOF 3
