REMARK  Name = ZINC06557808
REMARK  3 active torsions:
REMARK  status: ('A' for Active; 'I' for Inactive)
REMARK    1  A    between atoms: C_8  and  C_12
REMARK    2  A    between atoms: C_16  and  C_18
REMARK    3  A    between atoms: C_22  and  N_24
REMARK                            x       y       z     vdW  Elec       q    Type
REMARK                         _______ _______ _______ _____ _____    ______ ____
ROOT
ATOM      1  C   UNL     1       2.657  -4.207   0.278  0.00  0.00    +0.164 A 
ATOM      2  N   UNL     1       3.808  -4.887   0.527  0.00  0.00    -0.258 N 
ATOM      3  H   UNL     1       4.678  -4.506   0.722  0.00  0.00    +0.191 HD
ATOM      4  N   UNL     1       3.485  -6.252   0.449  0.00  0.00    -0.152 NA
ATOM      5  C   UNL     1       2.203  -6.328   0.166  0.00  0.00    +0.182 A 
ATOM      6  N   UNL     1       1.702  -5.091   0.068  0.00  0.00    -0.207 NA
ENDROOT
BRANCH   1  14
ATOM      7  C   UNL     1      -0.017   1.362   0.009  0.00  0.00    +0.001 A 
ATOM      8  C   UNL     1       1.169   2.084   0.002  0.00  0.00    +0.004 A 
ATOM      9  C   UNL     1       2.387   1.436  -0.015  0.00  0.00    +0.047 A 
ATOM     10  C   UNL     1       2.431   0.049  -0.024  0.00  0.00    +0.139 A 
ATOM     11  C   UNL     1       1.227  -0.681  -0.011  0.00  0.00    +0.018 A 
ATOM     12  C   UNL     1       0.002  -0.004   0.002  0.00  0.00    +0.011 A 
ATOM     13  C   UNL     1       1.277  -2.145  -0.009  0.00  0.00    +0.030 A 
ATOM     14  C   UNL     1       2.503  -2.739   0.252  0.00  0.00    +0.104 A 
ATOM     15  C   UNL     1       3.645  -1.842   0.503  0.00  0.00    +0.348 A 
ATOM     16  O   UNL     1       4.588  -2.203   1.183  0.00  0.00    -0.244 OA
ATOM     17  O   UNL     1       3.616  -0.606  -0.046  0.00  0.00    -0.422 OA
ENDBRANCH   1  14
BRANCH   5  18
ATOM     18  C   UNL     1       1.433  -7.584  -0.011  0.00  0.00    +0.023 A 
ATOM     19  C   UNL     1       0.075  -7.535  -0.317  0.00  0.00    +0.012 A 
ATOM     20  C   UNL     1      -0.636  -8.706  -0.480  0.00  0.00    +0.003 A 
ATOM     21  C   UNL     1      -0.002  -9.928  -0.342  0.00  0.00    +0.033 A 
ATOM     22  C   UNL     1       1.346  -9.983  -0.038  0.00  0.00    +0.127 A 
ATOM     23  C   UNL     1       2.068  -8.817   0.122  0.00  0.00    +0.044 A 
BRANCH  22  24
ATOM     24  N   UNL     1       2.017 -11.294   0.110  0.00  0.00    +0.056 N 
ATOM     25  O   UNL     1       1.387 -12.315  -0.035  0.00  0.00    -0.126 OA
ATOM     26  O   UNL     1       3.196 -11.343   0.375  0.00  0.00    -0.126 OA
ENDBRANCH  22  24
ENDBRANCH   5  18
TORSDOF 3
