REMARK  Name = ZINC59505711
REMARK  2 active torsions:
REMARK  status: ('A' for Active; 'I' for Inactive)
REMARK    1  A    between atoms: C_6  and  N_12
REMARK    2  A    between atoms: C_7  and  N_11
REMARK                            x       y       z     vdW  Elec       q    Type
REMARK                         _______ _______ _______ _____ _____    ______ ____
ROOT
ATOM      1  C   UNL     1      -0.016   1.357   0.009  0.00  0.00    +0.001 A 
ATOM      2  C   UNL     1       1.168   2.091   0.002  0.00  0.00    +0.001 A 
ATOM      3  C   UNL     1       2.378   1.467  -0.013  0.00  0.00    +0.008 A 
ATOM      4  C   UNL     1       2.438   0.063  -0.021  0.00  0.00    -0.016 A 
ATOM      5  C   UNL     1       3.670  -0.613  -0.036  0.00  0.00    +0.034 A 
ATOM      6  C   UNL     1       3.694  -1.977  -0.043  0.00  0.00    +0.066 A 
ATOM      7  C   UNL     1       2.499  -2.717  -0.036  0.00  0.00    +0.047 A 
ATOM      8  C   UNL     1       1.287  -2.087  -0.021  0.00  0.00    +0.033 A 
ATOM      9  C   UNL     1       1.232  -0.683  -0.013  0.00  0.00    -0.016 A 
ATOM     10  C   UNL     1       0.002  -0.004   0.002  0.00  0.00    +0.008 A 
ENDROOT
BRANCH   6  11
ATOM     11  N   UNL     1       4.925  -2.648  -0.059  0.00  0.00    -0.201 N 
ATOM     12  C   UNL     1       5.585  -3.002  -1.176  0.00  0.00    +0.258 C 
ATOM     13  O   UNL     1       5.215  -2.793  -2.314  0.00  0.00    -0.269 OA
ATOM     14  C   UNL     1       6.836  -3.687  -0.787  0.00  0.00    +0.050 A 
ATOM     15  C   UNL     1       7.886  -4.256  -1.489  0.00  0.00    +0.014 A 
ATOM     16  C   UNL     1       8.940  -4.836  -0.799  0.00  0.00    +0.001 A 
ATOM     17  C   UNL     1       8.950  -4.849   0.583  0.00  0.00    +0.001 A 
ATOM     18  C   UNL     1       7.906  -4.283   1.298  0.00  0.00    +0.014 A 
ATOM     19  C   UNL     1       6.846  -3.700   0.623  0.00  0.00    +0.050 A 
ATOM     20  C   UNL     1       5.604  -3.018   1.042  0.00  0.00    +0.258 C 
ATOM     21  O   UNL     1       5.253  -2.826   2.189  0.00  0.00    -0.269 OA
ENDBRANCH   6  11
BRANCH   7  22
ATOM     22  N   UNL     1       2.552  -4.113  -0.045  0.00  0.00    -0.357 N 
ATOM     23  H   UNL     1       3.409  -4.566  -0.056  0.00  0.00    +0.142 HD
ATOM     24  H   UNL     1       1.730  -4.630  -0.040  0.00  0.00    +0.142 HD
ENDBRANCH   7  22
TORSDOF 2
