REMARK  Name = ZINC63130695
REMARK  8 active torsions:
REMARK  status: ('A' for Active; 'I' for Inactive)
REMARK    1  A    between atoms: C_1  and  C_2
REMARK    2  A    between atoms: C_4  and  N_19
REMARK    3  A    between atoms: C_7  and  N_8
REMARK    4  A    between atoms: N_8  and  C_9
REMARK    5  A    between atoms: C_9  and  C_10
REMARK    6  A    between atoms: C_10  and  O_11
REMARK    7  A    between atoms: O_11  and  C_12
REMARK    8  A    between atoms: C_15  and  N_18
REMARK                            x       y       z     vdW  Elec       q    Type
REMARK                         _______ _______ _______ _____ _____    ______ ____
ROOT
ATOM      1  N   UNL     1       0.025  -0.016   2.415  0.00  0.00    -0.340 N 
ATOM      2  H   UNL     1       0.012   0.954   2.422  0.00  0.00    +0.146 HD
ENDROOT
BRANCH   1   9
ATOM      3  C   UNL     1      -0.018   1.503   0.010  0.00  0.00    +0.046 C 
ATOM      4  C   UNL     1       0.002  -0.004   0.002  0.00  0.00    -0.027 A 
ATOM      5  C   UNL     1       0.006  -0.689  -1.198  0.00  0.00    +0.038 A 
ATOM      6  C   UNL     1       0.025  -2.071  -1.206  0.00  0.00    +0.127 A 
ATOM      7  C   UNL     1       0.040  -2.773  -0.014  0.00  0.00    +0.034 A 
ATOM      8  C   UNL     1       0.036  -2.095   1.188  0.00  0.00    +0.025 A 
ATOM      9  C   UNL     1       0.023  -0.706   1.200  0.00  0.00    +0.030 A 
BRANCH   6  10
ATOM     10  N   UNL     1       0.028  -2.802  -2.493  0.00  0.00    +0.056 N 
ATOM     11  O   UNL     1       0.014  -2.190  -3.536  0.00  0.00    -0.126 OA
ATOM     12  O   UNL     1       0.044  -4.011  -2.502  0.00  0.00    -0.126 OA
ENDBRANCH   6  10
ENDBRANCH   1   9
BRANCH   1  13
ATOM     13  C   UNL     1       0.047  -0.758   3.678  0.00  0.00    +0.142 C 
BRANCH  13  14
ATOM     14  C   UNL     1       0.045   0.228   4.849  0.00  0.00    +0.247 C 
BRANCH  14  15
ATOM     15  O   UNL     1      -1.186   0.953   4.858  0.00  0.00    -0.490 OA
BRANCH  15  16
ATOM     16  C   UNL     1      -1.351   1.877   5.842  0.00  0.00    +0.121 A 
ATOM     17  C   UNL     1      -0.345   2.083   6.775  0.00  0.00    +0.047 A 
ATOM     18  C   UNL     1      -0.512   3.021   7.775  0.00  0.00    +0.026 A 
ATOM     19  C   UNL     1      -1.687   3.758   7.846  0.00  0.00    +0.025 A 
ATOM     20  C   UNL     1      -2.693   3.551   6.912  0.00  0.00    +0.026 A 
ATOM     21  C   UNL     1      -2.522   2.617   5.909  0.00  0.00    +0.047 A 
BRANCH  19  22
ATOM     22  N   UNL     1      -1.856   4.709   8.859  0.00  0.00    -0.358 N 
ATOM     23  H   UNL     1      -1.153   4.853   9.512  0.00  0.00    +0.142 HD
ATOM     24  H   UNL     1      -2.677   5.223   8.909  0.00  0.00    +0.142 HD
ENDBRANCH  19  22
ENDBRANCH  15  16
ENDBRANCH  14  15
ENDBRANCH  13  14
ENDBRANCH   1  13
TORSDOF 7
