REMARK  Name = ZINC41094514
REMARK  7 active torsions:
REMARK  status: ('A' for Active; 'I' for Inactive)
REMARK    1  A    between atoms: C_1  and  C_2
REMARK    2  A    between atoms: C_2  and  C_4
REMARK    3  A    between atoms: C_2  and  O_11
REMARK    4  A    between atoms: N_9  and  C_10
REMARK    5  A    between atoms: O_11  and  C_12
REMARK    6  A    between atoms: C_12  and  C_14
REMARK    7  A    between atoms: C_16  and  N_22
REMARK                            x       y       z     vdW  Elec       q    Type
REMARK                         _______ _______ _______ _____ _____    ______ ____
ROOT
ATOM      1  C   UNL     1      -0.088  -0.673  -2.267  0.00  0.00    +0.340 C 
ATOM      2  O   UNL     1      -1.285  -0.469  -2.224  0.00  0.00    -0.245 OA
ENDROOT
BRANCH   1   3
ATOM      3  C   UNL     1       0.535  -1.149  -3.519  0.00  0.00    +0.062 A 
ATOM      4  C   UNL     1      -0.248  -1.360  -4.655  0.00  0.00    +0.039 A 
ATOM      5  C   UNL     1       0.342  -1.807  -5.825  0.00  0.00    +0.045 A 
ATOM      6  C   UNL     1       1.713  -2.045  -5.867  0.00  0.00    +0.080 A 
ATOM      7  C   UNL     1       2.490  -1.836  -4.740  0.00  0.00    +0.062 A 
ATOM      8  C   UNL     1       1.911  -1.385  -3.571  0.00  0.00    +0.036 A 
ATOM      9 CL   UNL     1       4.199  -2.135  -4.800  0.00  0.00    -0.082 Cl
ATOM     10 CL   UNL     1       2.450  -2.605  -7.335  0.00  0.00    -0.080 Cl
BRANCH   5  11
ATOM     11  N   UNL     1      -0.439  -2.020  -6.965  0.00  0.00    -0.357 N 
ATOM     12  H   UNL     1      -1.394  -1.855  -6.936  0.00  0.00    +0.142 HD
ATOM     13  H   UNL     1      -0.025  -2.333  -7.785  0.00  0.00    +0.142 HD
ENDBRANCH   5  11
ENDBRANCH   1   3
BRANCH   1  14
ATOM     14  O   UNL     1       0.671  -0.465  -1.174  0.00  0.00    -0.449 OA
BRANCH  14  16
ATOM     15  C   UNL     1      -0.019   1.526   0.010  0.00  0.00    +0.062 C 
ATOM     16  C   UNL     1       0.002  -0.004   0.002  0.00  0.00    +0.259 C 
BRANCH  16  17
ATOM     17  C   UNL     1       0.731  -0.503   1.223  0.00  0.00    +0.261 C 
ATOM     18  O   UNL     1       1.774  -1.109   1.101  0.00  0.00    -0.271 OA
ATOM     19  N   UNL     1       0.223  -0.277   2.451  0.00  0.00    -0.237 N 
ATOM     20  C   UNL     1       0.875  -0.723   3.542  0.00  0.00    +0.306 C 
ATOM     21  O   UNL     1       1.921  -1.330   3.420  0.00  0.00    -0.252 OA
ATOM     22  N   UNL     1       0.367  -0.496   4.770  0.00  0.00    -0.302 N 
ATOM     23  C   UNL     1       1.076  -0.981   5.957  0.00  0.00    +0.129 C 
ATOM     24  H   UNL     1      -0.611   0.208   2.548  0.00  0.00    +0.159 HD
ATOM     25  H   UNL     1      -0.467  -0.011   4.868  0.00  0.00    +0.150 HD
ENDBRANCH  16  17
ENDBRANCH  14  16
ENDBRANCH   1  14
TORSDOF 5
