REMARK  Name = ZINC00519818
REMARK  5 active torsions:
REMARK  status: ('A' for Active; 'I' for Inactive)
REMARK    1  A    between atoms: C_1  and  C_2
REMARK    2  A    between atoms: C_6  and  C_20
REMARK    3  A    between atoms: N_8  and  C_19
REMARK    4  A    between atoms: C_9  and  O_18
REMARK    5  A    between atoms: N_13  and  C_17
REMARK                            x       y       z     vdW  Elec       q    Type
REMARK                         _______ _______ _______ _____ _____    ______ ____
ROOT
ATOM      1  C   UNL     1      -0.019   1.526   0.010  0.00  0.00    +0.028 C 
ATOM      2  C   UNL     1       0.002  -0.004   0.002  0.00  0.00    +0.080 C 
ATOM      3  C   UNL     1       0.729  -0.503  -1.246  0.00  0.00    +0.070 C 
ATOM      4  C   UNL     1       0.114   0.073  -2.524  0.00  0.00    +0.083 C 
ATOM      5  N   UNL     1       0.916  -0.439  -3.649  0.00  0.00    -0.287 N 
ATOM      6  C   UNL     1       2.277  -0.553  -3.514  0.00  0.00    +0.257 C 
ATOM      7  N   UNL     1       2.891  -0.380  -2.387  0.00  0.00    -0.325 N 
ATOM      8  C   UNL     1       2.188  -0.038  -1.161  0.00  0.00    +0.181 C 
ATOM      9  N   UNL     1       2.789  -0.608   0.040  0.00  0.00    -0.268 N 
ATOM     10  C   UNL     1       2.034  -0.785   1.142  0.00  0.00    +0.304 C 
ATOM     11  O   UNL     1       2.562  -1.228   2.144  0.00  0.00    -0.253 OA
ATOM     12  N   UNL     1       0.723  -0.496   1.182  0.00  0.00    -0.296 N 
ATOM     13  C   UNL     1       4.205  -0.985   0.049  0.00  0.00    +0.135 C 
ATOM     14  C   UNL     1       0.265  -0.825  -4.903  0.00  0.00    +0.134 C 
ATOM     15  C   UNL     1      -1.338  -0.390  -2.660  0.00  0.00    +0.028 C 
ATOM     16  H   UNL     1       0.239  -0.615   2.014  0.00  0.00    +0.151 HD
ATOM     17  H   UNL     1       3.854  -0.491  -2.355  0.00  0.00    +0.166 HD
ENDROOT
BRANCH   6  18
ATOM     18  O   UNL     1       3.010  -0.860  -4.607  0.00  0.00    -0.483 OA
ATOM     19  H   UNL     1       3.960  -0.923  -4.438  0.00  0.00    +0.295 HD
ENDBRANCH   6  18
TORSDOF 1
