REMARK  Name = ZINC44416487
REMARK  4 active torsions:
REMARK  status: ('A' for Active; 'I' for Inactive)
REMARK    1  A    between atoms: C_4  and  C_7
REMARK    2  A    between atoms: C_10  and  N_12
REMARK    3  A    between atoms: N_12  and  C_13
REMARK    4  A    between atoms: C_16  and  N_19
REMARK                            x       y       z     vdW  Elec       q    Type
REMARK                         _______ _______ _______ _____ _____    ______ ____
ROOT
ATOM      1  N   UNL     1       5.398  -1.752   1.581  0.00  0.00    -0.340 N 
ATOM      2  H   UNL     1       6.123  -1.549   0.970  0.00  0.00    +0.146 HD
ENDROOT
BRANCH   1   3
ATOM      3  C   UNL     1       5.679  -2.142   2.893  0.00  0.00    +0.027 A 
ATOM      4  C   UNL     1       4.642  -2.439   3.768  0.00  0.00    +0.025 A 
ATOM      5  C   UNL     1       4.924  -2.825   5.064  0.00  0.00    +0.034 A 
ATOM      6  C   UNL     1       6.236  -2.914   5.491  0.00  0.00    +0.126 A 
ATOM      7  C   UNL     1       7.271  -2.618   4.622  0.00  0.00    +0.034 A 
ATOM      8  C   UNL     1       6.996  -2.238   3.323  0.00  0.00    +0.025 A 
BRANCH   6   9
ATOM      9  N   UNL     1       6.534  -3.326   6.880  0.00  0.00    +0.056 N 
ATOM     10  O   UNL     1       5.630  -3.585   7.641  0.00  0.00    -0.126 OA
ATOM     11  O   UNL     1       7.681  -3.405   7.255  0.00  0.00    -0.126 OA
ENDBRANCH   6   9
ENDBRANCH   1   3
BRANCH   1  14
ATOM     12  C   UNL     1       3.711  -0.707  -0.038  0.00  0.00    +0.041 C 
ATOM     13  C   UNL     1       3.671  -2.222  -0.251  0.00  0.00    +0.032 C 
ATOM     14  C   UNL     1       4.008  -1.652   1.129  0.00  0.00    +0.078 C 
BRANCH  12  18
ATOM     15  C   UNL     1      -0.017   1.378   0.010  0.00  0.00    +0.000 A 
ATOM     16  C   UNL     1       1.171   2.086   0.002  0.00  0.00    +0.000 A 
ATOM     17  C   UNL     1       2.377   1.411  -0.013  0.00  0.00    +0.004 A 
ATOM     18  C   UNL     1       2.396   0.029  -0.020  0.00  0.00    -0.042 A 
ATOM     19  C   UNL     1       1.208  -0.679  -0.012  0.00  0.00    +0.004 A 
ATOM     20  C   UNL     1       0.002  -0.004   0.002  0.00  0.00    +0.000 A 
ENDBRANCH  12  18
ENDBRANCH   1  14
TORSDOF 4
