REMARK  Name = ZINC08708256
REMARK  7 active torsions:
REMARK  status: ('A' for Active; 'I' for Inactive)
REMARK    1  A    between atoms: C_1  and  C_2
REMARK    2  A    between atoms: C_2  and  C_4
REMARK    3  A    between atoms: C_2  and  N_7
REMARK    4  A    between atoms: C_4  and  C_5
REMARK    5  A    between atoms: C_4  and  C_6
REMARK    6  A    between atoms: C_8  and  C_10
REMARK    7  A    between atoms: C_10  and  N_11
REMARK                            x       y       z     vdW  Elec       q    Type
REMARK                         _______ _______ _______ _____ _____    ______ ____
ROOT
ATOM      1  N   UNL     1       4.223  -1.127   2.126  0.00  0.00    -0.215 N 
ATOM      2  C   UNL     1       4.877  -2.187   1.608  0.00  0.00    +0.252 C 
ATOM      3  O   UNL     1       4.404  -3.257   1.289  0.00  0.00    -0.272 OA
ATOM      4  C   UNL     1       6.323  -1.760   1.509  0.00  0.00    +0.144 C 
ATOM      5  C   UNL     1       6.786  -1.783   0.056  0.00  0.00    +0.081 C 
ATOM      6  C   UNL     1       7.005  -3.246  -0.356  0.00  0.00    +0.232 C 
ATOM      7  O   UNL     1       8.060  -3.787   0.438  0.00  0.00    -0.492 OA
ATOM      8  C   UNL     1       8.005  -3.610   1.784  0.00  0.00    +0.126 A 
ATOM      9  C   UNL     1       7.190  -2.647   2.357  0.00  0.00    +0.027 A 
ATOM     10  C   UNL     1       7.170  -2.494   3.733  0.00  0.00    +0.010 A 
ATOM     11  C   UNL     1       7.954  -3.299   4.536  0.00  0.00    +0.001 A 
ATOM     12  C   UNL     1       8.764  -4.265   3.967  0.00  0.00    +0.004 A 
ATOM     13  C   UNL     1       8.790  -4.421   2.596  0.00  0.00    +0.046 A 
ATOM     14  N   UNL     1       6.326  -0.387   2.028  0.00  0.00    -0.281 N 
ATOM     15  C   UNL     1       5.052  -0.102   2.359  0.00  0.00    +0.310 C 
ATOM     16  O   UNL     1       4.695   0.964   2.821  0.00  0.00    -0.252 OA
ATOM     17  H   UNL     1       7.093   0.201   2.113  0.00  0.00    +0.152 HD
ENDROOT
BRANCH   1  18
ATOM     18  C   UNL     1       2.783  -1.099   2.395  0.00  0.00    +0.213 C 
BRANCH  18  20
ATOM     19  N   UNL     1       0.711  -0.489   1.189  0.00  0.00    -0.311 N 
ATOM     20  C   UNL     1       2.054  -0.600   1.174  0.00  0.00    +0.231 C 
ATOM     21  O   UNL     1       2.676  -0.297   0.177  0.00  0.00    -0.274 OA
ATOM     22  H   UNL     1       0.213  -0.731   1.986  0.00  0.00    +0.149 HD
BRANCH  19  24
ATOM     23  C   UNL     1      -0.019   1.526   0.010  0.00  0.00    +0.028 C 
ATOM     24  C   UNL     1       0.002  -0.004   0.002  0.00  0.00    +0.072 C 
BRANCH  24  25
ATOM     25  C   UNL     1      -1.433  -0.534   0.013  0.00  0.00    +0.003 C 
ATOM     26  C   UNL     1      -2.173  -0.027  -1.227  0.00  0.00    +0.009 C 
ATOM     27  C   UNL     1      -1.413  -2.063   0.004  0.00  0.00    +0.009 C 
ENDBRANCH  24  25
ENDBRANCH  19  24
ENDBRANCH  18  20
ENDBRANCH   1  18
TORSDOF 4
