REMARK  Name = ZINC28580146
REMARK  9 active torsions:
REMARK  status: ('A' for Active; 'I' for Inactive)
REMARK    1  A    between atoms: C_1  and  C_2
REMARK    2  A    between atoms: C_2  and  C_4
REMARK    3  A    between atoms: C_2  and  N_21
REMARK    4  A    between atoms: N_6  and  N_7
REMARK    5  A    between atoms: C_8  and  C_10
REMARK    6  A    between atoms: C_10  and  C_11
REMARK    7  A    between atoms: N_21  and  S_22
REMARK    8  A    between atoms: S_22  and  C_25
REMARK    9  A    between atoms: C_30  and  C_31
REMARK                            x       y       z     vdW  Elec       q    Type
REMARK                         _______ _______ _______ _____ _____    ______ ____
ROOT
ATOM      1  C   UNL     1      -3.523   1.338   1.683  0.00  0.00    +0.247 C 
ATOM      2  O   UNL     1      -3.379   2.470   2.095  0.00  0.00    -0.273 OA
ATOM      3  N   UNL     1      -4.728   0.740   1.762  0.00  0.00    -0.233 N 
ATOM      4  H   UNL     1      -4.859  -0.286   1.389  0.00  0.00    +0.173 HD
ENDROOT
BRANCH   3   5
ATOM      5  N   UNL     1      -5.815   1.425   2.321  0.00  0.00    -0.234 N 
ATOM      6  C   UNL     1      -7.020   0.828   2.401  0.00  0.00    +0.230 C 
ATOM      7  O   UNL     1      -7.164  -0.304   1.989  0.00  0.00    -0.274 OA
ATOM      8  H   UNL     1      -5.684   2.452   2.695  0.00  0.00    +0.173 HD
BRANCH   6   9
ATOM      9  C   UNL     1      -8.189   1.565   3.002  0.00  0.00    +0.104 C 
BRANCH   9  10
ATOM     10  C   UNL     1      -9.428   0.668   2.972  0.00  0.00    -0.020 C 
ATOM     11  C   UNL     1      -9.751   0.293   1.524  0.00  0.00    +0.011 C 
ATOM     12  C   UNL     1     -10.990  -0.604   1.494  0.00  0.00    -0.010 C 
ATOM     13  C   UNL     1     -12.177   0.145   2.104  0.00  0.00    +0.007 C 
ATOM     14  C   UNL     1     -11.854   0.520   3.552  0.00  0.00    -0.010 C 
ATOM     15  C   UNL     1     -10.615   1.417   3.582  0.00  0.00    +0.011 C 
ATOM     16  C   UNL     1     -11.583  -0.751   4.359  0.00  0.00    +0.007 C 
ATOM     17  C   UNL     1     -10.396  -1.500   3.749  0.00  0.00    -0.010 C 
ATOM     18  C   UNL     1     -10.720  -1.875   2.301  0.00  0.00    +0.007 C 
ATOM     19  C   UNL     1      -9.157  -0.603   3.779  0.00  0.00    +0.011 C 
ENDBRANCH   9  10
ENDBRANCH   6   9
ENDBRANCH   3   5
BRANCH   1  21
ATOM     20  C   UNL     1      -2.084  -0.671   1.889  0.00  0.00    +0.035 C 
ATOM     21  C   UNL     1      -2.354   0.601   1.082  0.00  0.00    +0.160 C 
BRANCH  21  22
ATOM     22  N   UNL     1      -1.168   1.459   1.111  0.00  0.00    -0.178 NA
ATOM     23  H   UNL     1      -1.091   2.267   1.854  0.00  0.00    +0.149 HD
BRANCH  22  24
ATOM     24  S   UNL     1      -0.060   1.383  -0.118  0.00  0.00    +0.060 S 
ATOM     25  O   UNL     1       0.235   0.006  -0.314  0.00  0.00    -0.153 OA
ATOM     26  O   UNL     1       0.945   2.342   0.181  0.00  0.00    -0.153 OA
BRANCH  24  27
ATOM     27  C   UNL     1      -0.867   1.938  -1.583  0.00  0.00    +0.117 A 
ATOM     28  C   UNL     1      -1.095   1.056  -2.623  0.00  0.00    +0.029 A 
ATOM     29  C   UNL     1      -1.733   1.490  -3.770  0.00  0.00    +0.002 A 
ATOM     30  C   UNL     1      -2.133   2.809  -3.881  0.00  0.00    +0.001 A 
ATOM     31  C   UNL     1      -1.900   3.692  -2.843  0.00  0.00    +0.014 A 
ATOM     32  C   UNL     1      -1.267   3.256  -1.694  0.00  0.00    +0.081 A 
BRANCH  32  33
ATOM     33  C   UNL     1      -1.013   4.219  -0.563  0.00  0.00    +0.419 C 
ATOM     34  F   UNL     1      -1.624   5.445  -0.848  0.00  0.00    -0.166 F 
ATOM     35  F   UNL     1      -1.544   3.697   0.622  0.00  0.00    -0.166 F 
ATOM     36  F   UNL     1       0.365   4.408  -0.412  0.00  0.00    -0.166 F 
ENDBRANCH  32  33
ENDBRANCH  24  27
ENDBRANCH  22  24
ENDBRANCH  21  22
ENDBRANCH   1  21
TORSDOF 8
