REMARK  Name = ZINC66269994
REMARK  10 active torsions:
REMARK  status: ('A' for Active; 'I' for Inactive)
REMARK    1  A    between atoms: C_1  and  C_2
REMARK    2  A    between atoms: C_2  and  C_3
REMARK    3  A    between atoms: C_3  and  C_4
REMARK    4  A    between atoms: C_4  and  N_5
REMARK    5  A    between atoms: C_6  and  N_28
REMARK    6  A    between atoms: C_7  and  N_14
REMARK    7  A    between atoms: N_14  and  C_15
REMARK    8  A    between atoms: C_16  and  C_18
REMARK    9  A    between atoms: C_19  and  C_20
REMARK   10  A    between atoms: C_19  and  C_21
REMARK                            x       y       z     vdW  Elec       q    Type
REMARK                         _______ _______ _______ _____ _____    ______ ____
ROOT
ATOM      1  N   UNL     1       1.375  -3.531  -2.429  0.00  0.00    -0.280 N 
ATOM      2  C   UNL     1       0.841  -3.784  -3.671  0.00  0.00    +0.127 A 
ATOM      3  C   UNL     1       1.287  -3.057  -4.757  0.00  0.00    +0.140 A 
ATOM      4  C   UNL     1       2.277  -2.077  -4.558  0.00  0.00    +0.277 A 
ATOM      5  O   UNL     1       2.689  -1.420  -5.499  0.00  0.00    -0.266 OA
ATOM      6  N   UNL     1       2.767  -1.869  -3.320  0.00  0.00    -0.273 N 
ATOM      7  H   UNL     1       3.449  -1.193  -3.182  0.00  0.00    +0.173 HD
ATOM      8  C   UNL     1       2.317  -2.583  -2.273  0.00  0.00    +0.331 A 
ATOM      9  O   UNL     1       2.772  -2.371  -1.166  0.00  0.00    -0.246 OA
ENDROOT
BRANCH   3  10
ATOM     10  N   UNL     1       0.759  -3.293  -6.043  0.00  0.00    -0.264 N 
ATOM     11  C   UNL     1      -0.649  -3.002  -6.322  0.00  0.00    +0.139 C 
ATOM     12  C   UNL     1       1.551  -3.787  -7.016  0.00  0.00    +0.244 C 
ATOM     13  O   UNL     1       2.740  -3.948  -6.810  0.00  0.00    -0.270 OA
BRANCH  12  14
ATOM     14  C   UNL     1       0.982  -4.129  -8.320  0.00  0.00    +0.071 C 
ATOM     15  C   UNL     1       1.774  -4.622  -9.293  0.00  0.00    -0.037 C 
ATOM     16  C   UNL     1       1.187  -4.975 -10.636  0.00  0.00    +0.044 C 
BRANCH  15  17
ATOM     17  C   UNL     1       3.211  -4.817  -9.044  0.00  0.00    -0.004 A 
ATOM     18  C   UNL     1       3.650  -5.890  -8.261  0.00  0.00    +0.009 A 
ATOM     19  C   UNL     1       4.998  -6.066  -8.032  0.00  0.00    +0.001 A 
ATOM     20  C   UNL     1       5.917  -5.184  -8.574  0.00  0.00    +0.001 A 
ATOM     21  C   UNL     1       5.492  -4.120  -9.350  0.00  0.00    +0.020 A 
ATOM     22  C   UNL     1       4.146  -3.933  -9.594  0.00  0.00    +0.048 A 
ATOM     23 CL   UNL     1       3.615  -2.602 -10.574  0.00  0.00    -0.083 Cl
ENDBRANCH  15  17
ENDBRANCH  12  14
ENDBRANCH   3  10
BRANCH   2  24
ATOM     24  N   UNL     1      -0.125  -4.749  -3.830  0.00  0.00    -0.343 N 
ATOM     25  H   UNL     1      -0.383  -5.305  -3.078  0.00  0.00    +0.144 HD
ATOM     26  H   UNL     1      -0.548  -4.874  -4.693  0.00  0.00    +0.144 HD
ENDBRANCH   2  24
BRANCH   1  27
ATOM     27  C   UNL     1       0.911  -4.294  -1.268  0.00  0.00    +0.128 C 
BRANCH  27  28
ATOM     28  C   UNL     1      -0.280  -3.576  -0.629  0.00  0.00    +0.021 C 
BRANCH  28  30
ATOM     29  C   UNL     1      -1.955  -3.656   1.223  0.00  0.00    +0.004 C 
ATOM     30  C   UNL     1      -0.765  -4.373   0.584  0.00  0.00    -0.002 C 
ENDBRANCH  28  30
ENDBRANCH  27  28
ENDBRANCH   1  27
TORSDOF 7
