REMARK  Name = ZINC01755167
REMARK  9 active torsions:
REMARK  status: ('A' for Active; 'I' for Inactive)
REMARK    1  A    between atoms: C_1  and  C_2
REMARK    2  A    between atoms: C_2  and  C_3
REMARK    3  A    between atoms: C_2  and  C_4
REMARK    4  A    between atoms: C_2  and  O_24
REMARK    5  A    between atoms: C_4  and  C_6
REMARK    6  A    between atoms: C_4  and  O_23
REMARK    7  A    between atoms: C_6  and  C_7
REMARK    8  A    between atoms: C_15  and  O_21
REMARK    9  A    between atoms: O_21  and  C_22
REMARK                            x       y       z     vdW  Elec       q    Type
REMARK                         _______ _______ _______ _____ _____    ______ ____
ROOT
ATOM      1  C   UNL     1       1.206   4.484   0.014  0.00  0.00    -0.023 A 
ATOM      2  C   UNL     1       0.424   5.640   0.027  0.00  0.00    +0.025 A 
ATOM      3  C   UNL     1       1.047   6.967   0.028  0.00  0.00    +0.019 A 
ATOM      4  C   UNL     1       0.237   8.056   0.041  0.00  0.00    +0.092 A 
ATOM      5  C   UNL     1      -1.164   7.889   0.053  0.00  0.00    +0.337 A 
ATOM      6  O   UNL     1      -1.879   8.875   0.066  0.00  0.00    -0.245 OA
ATOM      7  O   UNL     1      -1.730   6.673   0.053  0.00  0.00    -0.418 OA
ATOM      8  C   UNL     1      -0.983   5.545   0.040  0.00  0.00    +0.184 A 
ATOM      9  C   UNL     1      -1.594   4.298   0.040  0.00  0.00    +0.206 A 
ATOM     10  C   UNL     1      -0.819   3.144   0.027  0.00  0.00    +0.180 A 
ATOM     11  C   UNL     1       0.586   3.242   0.014  0.00  0.00    +0.028 A 
ATOM     12  C   UNL     1       1.075   1.856   0.002  0.00  0.00    +0.050 A 
ATOM     13  C   UNL     1      -0.013   1.076   0.008  0.00  0.00    +0.196 A 
ATOM     14  O   UNL     1      -1.126   1.829   0.017  0.00  0.00    -0.459 OA
ENDROOT
BRANCH   9  15
ATOM     15  O   UNL     1      -2.951   4.206   0.052  0.00  0.00    -0.488 OA
ATOM     16  C   UNL     1      -3.586   4.156   1.331  0.00  0.00    +0.277 C 
ENDBRANCH   9  15
BRANCH   1  17
ATOM     17  C   UNL     1       2.709   4.584   0.001  0.00  0.00    +0.070 C 
BRANCH  17  18
ATOM     18  C   UNL     1       3.205   4.625  -1.446  0.00  0.00    +0.150 C 
BRANCH  18  20
ATOM     19  C   UNL     1       5.232   4.767  -2.900  0.00  0.00    +0.043 C 
ATOM     20  C   UNL     1       4.735   4.600  -1.462  0.00  0.00    +0.087 C 
ATOM     21  C   UNL     1       5.272   5.745  -0.601  0.00  0.00    +0.043 C 
BRANCH  20  22
ATOM     22  O   UNL     1       5.197   3.353  -0.940  0.00  0.00    -0.387 OA
ATOM     23  H   UNL     1       4.894   2.582  -1.438  0.00  0.00    +0.210 HD
ENDBRANCH  20  22
ENDBRANCH  18  20
BRANCH  18  24
ATOM     24  O   UNL     1       2.741   5.821  -2.075  0.00  0.00    -0.389 OA
ATOM     25  H   UNL     1       3.044   6.634  -1.647  0.00  0.00    +0.210 HD
ENDBRANCH  18  24
ENDBRANCH  17  18
ENDBRANCH   1  17
TORSDOF 6
