REMARK  Name = ZINC40321032
REMARK  4 active torsions:
REMARK  status: ('A' for Active; 'I' for Inactive)
REMARK    1  A    between atoms: C_2  and  C_9
REMARK    2  A    between atoms: C_4  and  N_8
REMARK    3  A    between atoms: C_6  and  N_7
REMARK    4  A    between atoms: C_17  and  C_19
REMARK                            x       y       z     vdW  Elec       q    Type
REMARK                         _______ _______ _______ _____ _____    ______ ____
ROOT
ATOM      1  C   UNL     1       1.166   3.574   0.010  0.00  0.00    +0.247 C 
ATOM      2  O   UNL     1       0.112   4.170  -0.085  0.00  0.00    -0.270 OA
ATOM      3  N   UNL     1       2.323   4.260   0.104  0.00  0.00    -0.295 N 
ATOM      4  C   UNL     1       3.613   3.557   0.084  0.00  0.00    +0.127 C 
ATOM      5  C   UNL     1       4.476   4.149  -1.038  0.00  0.00    +0.127 C 
ATOM      6  N   UNL     1       4.469   5.613  -0.914  0.00  0.00    -0.298 N 
ATOM      7  C   UNL     1       3.178   6.316  -0.893  0.00  0.00    +0.127 C 
ATOM      8  C   UNL     1       2.316   5.725   0.223  0.00  0.00    +0.127 C 
ATOM      9  C   UNL     1       5.625   6.299  -0.819  0.00  0.00    +0.219 C 
ATOM     10  O   UNL     1       6.684   5.708  -0.837  0.00  0.00    -0.275 OA
ENDROOT
BRANCH   1  12
ATOM     11  C   UNL     1       0.364   1.381  -0.855  0.00  0.00    +0.036 A 
ATOM     12  C   UNL     1       1.181   2.095   0.021  0.00  0.00    +0.040 A 
ATOM     13  C   UNL     1       2.013   1.411   0.908  0.00  0.00    +0.036 A 
ATOM     14  C   UNL     1       2.024   0.024   0.916  0.00  0.00    +0.027 A 
ATOM     15  C   UNL     1       1.209  -0.683   0.043  0.00  0.00    +0.045 A 
ATOM     16  C   UNL     1       0.380  -0.006  -0.841  0.00  0.00    +0.027 A 
BRANCH  16  17
ATOM     17  N   UNL     1      -0.438  -0.722  -1.718  0.00  0.00    -0.358 N 
ATOM     18  H   UNL     1      -1.018  -0.249  -2.336  0.00  0.00    +0.142 HD
ATOM     19  H   UNL     1      -0.427  -1.692  -1.709  0.00  0.00    +0.142 HD
ENDBRANCH  16  17
BRANCH  14  20
ATOM     20  N   UNL     1       2.857  -0.661   1.804  0.00  0.00    -0.358 N 
ATOM     21  H   UNL     1       3.426  -0.168   2.415  0.00  0.00    +0.142 HD
ATOM     22  H   UNL     1       2.865  -1.631   1.810  0.00  0.00    +0.142 HD
ENDBRANCH  14  20
ENDBRANCH   1  12
BRANCH   9  23
ATOM     23  C   UNL     1       5.602   7.801  -0.692  0.00  0.00    +0.075 C 
ATOM     24  C   UNL     1       6.125   8.618  -1.875  0.00  0.00    +0.013 C 
ATOM     25  C   UNL     1       6.947   8.521  -0.589  0.00  0.00    +0.013 C 
ENDBRANCH   9  23
TORSDOF 4
