REMARK  Name = ZINC40170312
REMARK  10 active torsions:
REMARK  status: ('A' for Active; 'I' for Inactive)
REMARK    1  A    between atoms: C_1  and  C_2
REMARK    2  A    between atoms: C_2  and  C_3
REMARK    3  A    between atoms: C_3  and  C_5
REMARK    4  A    between atoms: C_3  and  S_16
REMARK    5  A    between atoms: N_7  and  C_8
REMARK    6  A    between atoms: C_10  and  C_15
REMARK    7  A    between atoms: C_13  and  C_14
REMARK    8  A    between atoms: S_16  and  C_17
REMARK    9  A    between atoms: C_23  and  C_31
REMARK   10  A    between atoms: C_28  and  C_30
REMARK                            x       y       z     vdW  Elec       q    Type
REMARK                         _______ _______ _______ _____ _____    ______ ____
ROOT
ATOM      1  S   UNL     1      -0.542   0.593  -2.807  0.00  0.00    -0.073 S 
ENDROOT
BRANCH   1   2
ATOM      2  C   UNL     1       0.229   0.046  -4.294  0.00  0.00    +0.197 A 
ATOM      3  N   UNL     1       1.192  -0.855  -4.351  0.00  0.00    -0.122 NA
ATOM      4  N   UNL     1       1.470  -1.125  -5.572  0.00  0.00    -0.129 NA
ATOM      5  C   UNL     1       0.667  -0.442  -6.364  0.00  0.00    +0.162 A 
ATOM      6  N   UNL     1      -0.011   0.466  -5.567  0.00  0.00    -0.270 N 
ATOM      7  C   UNL     1      -0.688   1.512  -6.165  0.00  0.00    +0.061 A 
ATOM      8  C   UNL     1      -0.939   2.725  -5.544  0.00  0.00    -0.026 A 
ATOM      9  C   UNL     1      -1.813   3.633  -6.113  0.00  0.00    +0.005 A 
ATOM     10  C   UNL     1      -2.368   3.396  -7.359  0.00  0.00    +0.001 A 
ATOM     11  C   UNL     1      -1.983   2.284  -8.077  0.00  0.00    +0.010 A 
ATOM     12  C   UNL     1      -1.078   1.381  -7.519  0.00  0.00    +0.002 A 
ATOM     13  C   UNL     1      -0.454   0.336  -8.335  0.00  0.00    -0.038 A 
ATOM     14  C   UNL     1       0.426  -0.509  -7.754  0.00  0.00    +0.052 A 
ATOM     15  C   UNL     1      -0.774   0.194  -9.801  0.00  0.00    +0.044 C 
ATOM     16  C   UNL     1      -0.215   3.140  -4.288  0.00  0.00    +0.046 C 
ENDBRANCH   1   2
BRANCH   1  17
ATOM     17  C   UNL     1       0.362  -0.278  -1.498  0.00  0.00    +0.140 C 
BRANCH  17  18
ATOM     18  C   UNL     1       0.121  -1.761  -1.622  0.00  0.00    +0.231 C 
ATOM     19  O   UNL     1      -0.840  -2.169  -2.239  0.00  0.00    -0.274 OA
ATOM     20  N   UNL     1       0.972  -2.632  -1.046  0.00  0.00    -0.284 N 
ATOM     21  H   UNL     1       1.781  -2.310  -0.618  0.00  0.00    +0.155 HD
BRANCH  20  22
ATOM     22  C   UNL     1       0.689  -4.003  -1.065  0.00  0.00    +0.037 A 
ATOM     23  C   UNL     1      -0.621  -4.441  -1.207  0.00  0.00    +0.027 A 
ATOM     24  C   UNL     1      -0.897  -5.794  -1.225  0.00  0.00    -0.049 A 
ATOM     25  C   UNL     1       0.130  -6.712  -1.102  0.00  0.00    +0.004 A 
ATOM     26  C   UNL     1       1.436  -6.279  -0.960  0.00  0.00    +0.005 A 
ATOM     27  C   UNL     1       1.719  -4.927  -0.948  0.00  0.00    -0.029 A 
ATOM     28  C   UNL     1       3.143  -4.456  -0.800  0.00  0.00    +0.045 C 
ATOM     29  C   UNL     1      -2.318  -6.271  -1.379  0.00  0.00    +0.044 C 
ENDBRANCH  20  22
ENDBRANCH  17  18
BRANCH  17  31
ATOM     30  C   UNL     1       0.221   1.686   0.040  0.00  0.00    +0.005 C 
ATOM     31  C   UNL     1      -0.127   0.206  -0.131  0.00  0.00    +0.020 C 
ENDBRANCH  17  31
ENDBRANCH   1  17
TORSDOF 5
