REMARK  Name = ZINC43736917
REMARK  6 active torsions:
REMARK  status: ('A' for Active; 'I' for Inactive)
REMARK    1  A    between atoms: C_1  and  C_2
REMARK    2  A    between atoms: C_5  and  O_32
REMARK    3  A    between atoms: C_18  and  C_31
REMARK    4  A    between atoms: C_19  and  O_30
REMARK    5  A    between atoms: C_22  and  C_24
REMARK    6  A    between atoms: O_32  and  N_33
REMARK                            x       y       z     vdW  Elec       q    Type
REMARK                         _______ _______ _______ _____ _____    ______ ____
ROOT
ATOM      1  C   UNL     1       0.048   1.377   0.042  0.00  0.00    +0.012 C 
ATOM      2  C   UNL     1       0.029  -0.153   0.045  0.00  0.00    -0.026 C 
ATOM      3  C   UNL     1       0.742  -0.675  -1.204  0.00  0.00    +0.011 C 
ATOM      4  C   UNL     1       0.728  -2.205  -1.199  0.00  0.00    +0.048 C 
ATOM      5  C   UNL     1       1.446  -2.718   0.051  0.00  0.00    +0.209 C 
ATOM      6  C   UNL     1       0.730  -2.198   1.299  0.00  0.00    +0.051 C 
ATOM      7  C   UNL     1       0.744  -0.669   1.295  0.00  0.00    -0.001 C 
ATOM      8  C   UNL     1       0.030  -0.148   2.543  0.00  0.00    +0.004 C 
ATOM      9  C   UNL     1      -1.419  -0.640   2.545  0.00  0.00    +0.007 C 
ATOM     10  C   UNL     1      -2.134  -0.124   1.294  0.00  0.00    +0.025 C 
ATOM     11  C   UNL     1      -1.420  -0.644   0.046  0.00  0.00    +0.001 C 
ATOM     12  C   UNL     1      -2.141  -0.095  -1.190  0.00  0.00    +0.005 C 
ATOM     13  C   UNL     1      -3.564  -0.647  -1.210  0.00  0.00    +0.010 C 
ATOM     14  C   UNL     1      -4.345  -0.176   0.019  0.00  0.00    +0.004 C 
ATOM     15  C   UNL     1      -3.583  -0.547   1.302  0.00  0.00    +0.075 C 
ATOM     16  C   UNL     1      -3.755  -2.073   1.414  0.00  0.00    +0.036 C 
ATOM     17  C   UNL     1      -5.212  -2.306   0.954  0.00  0.00    +0.011 C 
ATOM     18  C   UNL     1      -5.617  -1.062   0.105  0.00  0.00    +0.027 C 
ATOM     19  C   UNL     1      -4.694   1.311  -0.070  0.00  0.00    +0.014 C 
ENDROOT
BRANCH  18  20
ATOM     20  C   UNL     1      -6.015  -1.531  -1.270  0.00  0.00    -0.022 C 
ATOM     21  C   UNL     1      -5.819  -2.744  -1.782  0.00  0.00    +0.094 C 
ATOM     22  C   UNL     1      -6.357  -2.780  -3.146  0.00  0.00    +0.332 C 
ATOM     23  O   UNL     1      -6.333  -3.747  -3.882  0.00  0.00    -0.246 OA
ATOM     24  O   UNL     1      -6.880  -1.581  -3.460  0.00  0.00    -0.457 OA
ATOM     25  C   UNL     1      -6.718  -0.717  -2.331  0.00  0.00    +0.264 C 
ENDBRANCH  18  20
BRANCH  15  26
ATOM     26  O   UNL     1      -4.244   0.065   2.411  0.00  0.00    -0.388 OA
ATOM     27  H   UNL     1      -3.864  -0.162   3.271  0.00  0.00    +0.210 HD
ENDBRANCH  15  26
BRANCH   5  28
ATOM     28  O   UNL     1       1.433  -4.147   0.054  0.00  0.00    -0.348 OA
BRANCH  28  29
ATOM     29  N   UNL     1       2.486  -4.734  -0.687  0.00  0.00    +0.218 N 
ATOM     30  O   UNL     1       3.293  -4.033  -1.251  0.00  0.00    -0.090 OA
ATOM     31  O   UNL     1       2.579  -5.938  -0.757  0.00  0.00    -0.090 OA
ENDBRANCH  28  29
ENDBRANCH   5  28
TORSDOF 4
