REMARK  Name = ZINC15416793
REMARK  12 active torsions:
REMARK  status: ('A' for Active; 'I' for Inactive)
REMARK    1  A    between atoms: C_1  and  C_2
REMARK    2  A    between atoms: C_11  and  C_12
REMARK    3  A    between atoms: C_11  and  N_67
REMARK    4  A    between atoms: N_14  and  C_15
REMARK    5  A    between atoms: N_14  and  C_20
REMARK    6  A    between atoms: C_15  and  C_16
REMARK    7  A    between atoms: C_16  and  C_17
REMARK    8  A    between atoms: C_17  and  O_18
REMARK    9  A    between atoms: O_18  and  C_19
REMARK   10  A    between atoms: C_21  and  N_36
REMARK   11  A    between atoms: N_22  and  C_29
REMARK   12  A    between atoms: C_29  and  C_30
REMARK                            x       y       z     vdW  Elec       q    Type
REMARK                         _______ _______ _______ _____ _____    ______ ____
ROOT
ATOM      1  C   UNL     1       6.232   2.018  -3.369  0.00  0.00    +0.203 C 
ATOM      2  O   UNL     1       6.089   2.099  -2.167  0.00  0.00    -0.277 OA
ATOM      3  N   UNL     1       5.843   0.902  -4.021  0.00  0.00    -0.266 N 
ENDROOT
BRANCH   3   4
ATOM      4  C   UNL     1       5.168  -0.122  -3.325  0.00  0.00    +0.140 A 
ATOM      5  C   UNL     1       5.754  -1.360  -3.155  0.00  0.00    +0.128 A 
ATOM      6  N   UNL     1       5.071  -2.339  -2.471  0.00  0.00    -0.276 N 
ATOM      7  C   UNL     1       3.843  -2.094  -1.979  0.00  0.00    +0.331 A 
ATOM      8  O   UNL     1       3.253  -2.974  -1.382  0.00  0.00    -0.246 OA
ATOM      9  N   UNL     1       3.258  -0.893  -2.131  0.00  0.00    -0.273 N 
ATOM     10  H   UNL     1       2.348  -0.734  -1.748  0.00  0.00    +0.173 HD
ATOM     11  C   UNL     1       3.884   0.100  -2.792  0.00  0.00    +0.277 A 
ATOM     12  O   UNL     1       3.343   1.184  -2.927  0.00  0.00    -0.266 OA
BRANCH   5  13
ATOM     13  N   UNL     1       7.006  -1.612  -3.663  0.00  0.00    -0.343 N 
ATOM     14  H   UNL     1       7.441  -2.460  -3.484  0.00  0.00    +0.144 HD
ATOM     15  H   UNL     1       7.455  -0.941  -4.200  0.00  0.00    +0.144 HD
ENDBRANCH   5  13
BRANCH   6  16
ATOM     16  C   UNL     1       5.681  -3.657  -2.284  0.00  0.00    +0.163 C 
BRANCH  16  17
ATOM     17  C   UNL     1       6.474  -3.666  -1.002  0.00  0.00    -0.028 A 
ATOM     18  C   UNL     1       5.866  -4.035   0.184  0.00  0.00    +0.005 A 
ATOM     19  C   UNL     1       6.593  -4.043   1.359  0.00  0.00    +0.000 A 
ATOM     20  C   UNL     1       7.927  -3.682   1.350  0.00  0.00    +0.000 A 
ATOM     21  C   UNL     1       8.535  -3.313   0.164  0.00  0.00    +0.000 A 
ATOM     22  C   UNL     1       7.808  -3.305  -1.012  0.00  0.00    +0.005 A 
ENDBRANCH  16  17
ENDBRANCH   6  16
ENDBRANCH   3   4
BRANCH   1  23
ATOM     23  C   UNL     1       6.845   3.163  -4.134  0.00  0.00    +0.020 C 
BRANCH  23  33
ATOM     24  C   UNL     1       9.356   4.703  -4.249  0.00  0.00    -0.007 C 
ATOM     25  C   UNL     1       7.992   5.283  -3.869  0.00  0.00    -0.023 C 
ATOM     26  C   UNL     1       8.176   6.427  -2.902  0.00  0.00    +0.005 A 
ATOM     27  C   UNL     1       9.061   7.433  -2.966  0.00  0.00    +0.021 A 
ATOM     28  C   UNL     1       8.849   8.251  -1.835  0.00  0.00    +0.019 A 
ATOM     29  C   UNL     1       7.837   7.707  -1.125  0.00  0.00    +0.086 A 
ATOM     30  N   UNL     1       7.417   6.591  -1.773  0.00  0.00    -0.354 N 
ATOM     31  C   UNL     1       6.339   5.673  -1.386  0.00  0.00    +0.103 C 
ATOM     32  C   UNL     1       5.966   4.828  -2.611  0.00  0.00    -0.055 C 
ATOM     33  N   UNL     1       7.196   4.237  -3.181  0.00  0.00    +0.392 N 
ATOM     34  H   UNL     1       7.758   3.838  -2.420  0.00  0.00    -0.080 HD
ENDBRANCH  23  33
ENDBRANCH   1  23
BRANCH   3  35
ATOM     35  C   UNL     1       6.122   0.755  -5.452  0.00  0.00    +0.116 C 
BRANCH  35  36
ATOM     36  C   UNL     1       4.908   1.219  -6.258  0.00  0.00    +0.047 C 
BRANCH  36  37
ATOM     37  C   UNL     1       5.199   1.066  -7.753  0.00  0.00    +0.161 C 
BRANCH  37  38
ATOM     38  O   UNL     1       4.065   1.499  -8.506  0.00  0.00    -0.383 OA
ATOM     39  C   UNL     1       4.234   1.396  -9.921  0.00  0.00    +0.193 C 
ENDBRANCH  37  38
ENDBRANCH  36  37
ENDBRANCH  35  36
ENDBRANCH   3  35
TORSDOF 10
