REMARK  Name = ZINC33597559
REMARK  7 active torsions:
REMARK  status: ('A' for Active; 'I' for Inactive)
REMARK    1  A    between atoms: C_1  and  C_2
REMARK    2  A    between atoms: C_5  and  O_8
REMARK    3  A    between atoms: O_8  and  C_9
REMARK    4  A    between atoms: C_13  and  C_15
REMARK    5  A    between atoms: N_23  and  C_26
REMARK    6  A    between atoms: N_33  and  C_34
REMARK    7  A    between atoms: C_34  and  C_35
REMARK                            x       y       z     vdW  Elec       q    Type
REMARK                         _______ _______ _______ _____ _____    ______ ____
ROOT
ATOM      1  C   UNL     1       0.045  -8.466   2.842  0.00  0.00    +0.130 C 
ATOM      2  C   UNL     1       1.423  -8.926   3.300  0.00  0.00    +0.139 C 
ATOM      3  C   UNL     1       0.969 -10.172   4.151  0.00  0.00    +0.242 C 
ATOM      4  C   UNL     1       2.210 -10.915   4.259  0.00  0.00    +0.258 C 
ATOM      5  O   UNL     1       2.578 -11.600   5.190  0.00  0.00    -0.272 OA
ATOM      6  N   UNL     1       2.878 -10.679   3.087  0.00  0.00    -0.208 N 
ATOM      7  C   UNL     1       2.341  -9.641   2.359  0.00  0.00    +0.234 C 
ATOM      8  O   UNL     1       2.556  -9.363   1.199  0.00  0.00    -0.274 OA
ATOM      9  O   UNL     1      -0.021  -9.657   4.944  0.00  0.00    -0.282 OA
ATOM     10  N   UNL     1      -0.856  -8.864   3.968  0.00  0.00    -0.170 NA
ENDROOT
BRANCH   1  15
ATOM     11  C   UNL     1       0.525  -4.766   3.441  0.00  0.00    +0.129 A 
ATOM     12  C   UNL     1      -0.022  -4.228   2.285  0.00  0.00    +0.046 A 
ATOM     13  C   UNL     1      -0.543  -5.062   1.315  0.00  0.00    +0.004 A 
ATOM     14  C   UNL     1      -0.520  -6.433   1.496  0.00  0.00    +0.005 A 
ATOM     15  C   UNL     1       0.023  -6.972   2.648  0.00  0.00    -0.024 A 
ATOM     16  C   UNL     1       0.551  -6.142   3.618  0.00  0.00    +0.051 A 
BRANCH  11  17
ATOM     17  O   UNL     1       1.038  -3.947   4.396  0.00  0.00    -0.456 OA
BRANCH  17  22
ATOM     18  C   UNL     1      -2.565  -1.257   7.788  0.00  0.00    +0.044 C 
ATOM     19  C   UNL     1      -1.601  -1.977   6.881  0.00  0.00    -0.050 A 
ATOM     20  C   UNL     1      -2.080  -2.749   5.838  0.00  0.00    +0.007 A 
ATOM     21  C   UNL     1      -1.198  -3.409   5.005  0.00  0.00    +0.046 A 
ATOM     22  C   UNL     1       0.169  -3.298   5.215  0.00  0.00    +0.128 A 
ATOM     23  C   UNL     1       0.647  -2.523   6.261  0.00  0.00    +0.046 A 
ATOM     24  C   UNL     1      -0.239  -1.860   7.089  0.00  0.00    +0.007 A 
ENDBRANCH  17  22
ENDBRANCH  11  17
ENDBRANCH   1  15
BRANCH   6  25
ATOM     25  C   UNL     1       4.001 -11.409   2.673  0.00  0.00    +0.044 A 
ATOM     26  C   UNL     1       4.626 -11.103   1.471  0.00  0.00    +0.024 A 
ATOM     27  C   UNL     1       5.732 -11.824   1.066  0.00  0.00    +0.002 A 
ATOM     28  C   UNL     1       6.217 -12.850   1.856  0.00  0.00    +0.000 A 
ATOM     29  C   UNL     1       5.597 -13.158   3.053  0.00  0.00    +0.002 A 
ATOM     30  C   UNL     1       4.494 -12.436   3.466  0.00  0.00    +0.024 A 
ENDBRANCH   6  25
BRANCH  10  31
ATOM     31  C   UNL     1      -1.437  -7.683   4.620  0.00  0.00    +0.210 C 
BRANCH  31  32
ATOM     32  C   UNL     1      -2.543  -8.114   5.549  0.00  0.00    +0.227 C 
ATOM     33  O   UNL     1      -2.820  -9.290   5.657  0.00  0.00    -0.275 OA
ATOM     34  N   UNL     1      -3.224  -7.193   6.259  0.00  0.00    -0.328 N 
ATOM     35  H   UNL     1      -3.002  -6.252   6.173  0.00  0.00    +0.145 HD
ATOM     36  H   UNL     1      -3.935  -7.470   6.857  0.00  0.00    +0.145 HD
ENDBRANCH  31  32
ENDBRANCH  10  31
TORSDOF 6
