REMARK  Name = ZINC11910692
REMARK  11 active torsions:
REMARK  status: ('A' for Active; 'I' for Inactive)
REMARK    1  A    between atoms: C_1  and  C_2
REMARK    2  A    between atoms: C_4  and  C_33
REMARK    3  A    between atoms: C_5  and  C_9
REMARK    4  A    between atoms: C_7  and  C_8
REMARK    5  A    between atoms: C_9  and  N_66
REMARK    6  A    between atoms: C_15  and  C_19
REMARK    7  A    between atoms: C_19  and  C_21
REMARK    8  A    between atoms: C_19  and  N_22
REMARK    9  A    between atoms: C_23  and  C_25
REMARK   10  A    between atoms: C_25  and  O_26
REMARK   11  A    between atoms: O_26  and  C_27
REMARK                            x       y       z     vdW  Elec       q    Type
REMARK                         _______ _______ _______ _____ _____    ______ ____
ROOT
ATOM      1  C   UNL     1      -0.383   1.823   0.227  0.00  0.00    -0.071 C 
ATOM      2  C   UNL     1       1.027   2.396   0.404  0.00  0.00    +0.058 C 
ATOM      3  C   UNL     1       1.295   2.582   1.875  0.00  0.00    +0.132 A 
ATOM      4  N   UNL     1       1.823   3.615   2.464  0.00  0.00    -0.134 NA
ATOM      5  N   UNL     1       1.923   3.385   3.728  0.00  0.00    -0.132 NA
ATOM      6  C   UNL     1       1.455   2.195   3.999  0.00  0.00    +0.154 A 
ATOM      7  N   UNL     1       1.032   1.659   2.834  0.00  0.00    -0.315 N 
ATOM      8  C   UNL     1       0.405   0.355   2.623  0.00  0.00    +0.106 C 
ATOM      9  C   UNL     1       0.705  -0.124   1.200  0.00  0.00    -0.056 C 
ATOM     10  N   UNL     1      -0.365   0.345   0.290  0.00  0.00    +0.384 N 
ATOM     11  H   UNL     1      -1.270   0.018   0.648  0.00  0.00    -0.081 HD
ENDROOT
BRANCH   6  12
ATOM     12  C   UNL     1       1.398   1.544   5.356  0.00  0.00    +0.138 C 
ATOM     13  C   UNL     1       0.269   2.172   6.176  0.00  0.00    +0.036 C 
BRANCH  12  14
ATOM     14  N   UNL     1       2.673   1.744   6.048  0.00  0.00    -0.303 N 
ATOM     15  C   UNL     1       3.063   0.880   7.006  0.00  0.00    +0.251 C 
ATOM     16  O   UNL     1       2.357  -0.063   7.296  0.00  0.00    -0.272 OA
ATOM     17  H   UNL     1       3.237   2.498   5.817  0.00  0.00    +0.149 HD
BRANCH  15  18
ATOM     18  C   UNL     1       4.375   1.086   7.718  0.00  0.00    +0.324 C 
BRANCH  18  19
ATOM     19  O   UNL     1       4.562   0.047   8.682  0.00  0.00    -0.483 OA
BRANCH  19  20
ATOM     20  C   UNL     1       5.705   0.086   9.416  0.00  0.00    +0.121 A 
ATOM     21  C   UNL     1       6.630   1.098   9.209  0.00  0.00    +0.045 A 
ATOM     22  C   UNL     1       7.789   1.138   9.961  0.00  0.00    +0.004 A 
ATOM     23  C   UNL     1       8.032   0.163  10.910  0.00  0.00    +0.000 A 
ATOM     24  C   UNL     1       7.114  -0.851  11.115  0.00  0.00    +0.004 A 
ATOM     25  C   UNL     1       5.952  -0.892  10.370  0.00  0.00    +0.045 A 
ENDBRANCH  19  20
ENDBRANCH  18  19
ENDBRANCH  15  18
ENDBRANCH  12  14
ENDBRANCH   6  12
BRANCH  10  26
ATOM     26  C   UNL     1      -0.157  -0.211  -1.059  0.00  0.00    -0.043 C 
BRANCH  26  31
ATOM     27  C   UNL     1      -5.159   0.066  -3.939  0.00  0.00    +0.044 C 
ATOM     28  C   UNL     1      -3.855  -0.006  -3.188  0.00  0.00    -0.047 A 
ATOM     29  C   UNL     1      -3.688  -0.938  -2.181  0.00  0.00    +0.007 A 
ATOM     30  C   UNL     1      -2.489  -1.008  -1.496  0.00  0.00    -0.049 A 
ATOM     31  C   UNL     1      -1.462  -0.138  -1.810  0.00  0.00    -0.061 A 
ATOM     32  C   UNL     1      -1.629   0.794  -2.817  0.00  0.00    +0.005 A 
ATOM     33  C   UNL     1      -2.825   0.860  -3.506  0.00  0.00    -0.047 A 
ATOM     34  C   UNL     1      -3.008   1.876  -4.604  0.00  0.00    +0.044 C 
ATOM     35  C   UNL     1      -2.305  -2.029  -0.402  0.00  0.00    +0.044 C 
ENDBRANCH  26  31
ENDBRANCH  10  26
TORSDOF 7
