REMARK  Name = ZINC65364078
REMARK  2 active torsions:
REMARK  status: ('A' for Active; 'I' for Inactive)
REMARK    1  A    between atoms: C_1  and  C_2
REMARK    2  A    between atoms: C_23  and  C_25
REMARK                            x       y       z     vdW  Elec       q    Type
REMARK                         _______ _______ _______ _____ _____    ______ ____
ROOT
ATOM      1  C   UNL     1      -0.236   1.476  -0.041  0.00  0.00    +0.068 C 
ATOM      2  C   UNL     1      -0.069  -0.022  -0.029  0.00  0.00    +0.066 A 
ATOM      3  C   UNL     1       0.187  -0.820  -1.134  0.00  0.00    +0.023 A 
ATOM      4  C   UNL     1       0.274  -2.118  -0.708  0.00  0.00    +0.134 A 
ATOM      5  N   UNL     1       0.068  -2.124   0.626  0.00  0.00    -0.198 N 
ATOM      6  N   UNL     1      -0.136  -0.794   1.030  0.00  0.00    -0.168 NA
ATOM      7  C   UNL     1       0.062  -3.250   1.456  0.00  0.00    +0.178 A 
ATOM      8  C   UNL     1       0.351  -3.118   2.815  0.00  0.00    +0.053 A 
ATOM      9  C   UNL     1       0.333  -4.261   3.596  0.00  0.00    +0.049 A 
ATOM     10  C   UNL     1       0.028  -5.473   2.976  0.00  0.00    +0.144 A 
ATOM     11  N   UNL     1      -0.233  -5.501   1.679  0.00  0.00    -0.132 NA
ATOM     12  N   UNL     1      -0.222  -4.441   0.956  0.00  0.00    -0.128 NA
ATOM     13  N   UNL     1      -0.002  -6.649   3.720  0.00  0.00    -0.314 N 
ATOM     14  C   UNL     1      -0.534  -7.889   3.138  0.00  0.00    +0.106 C 
ATOM     15  C   UNL     1       0.517  -8.994   3.289  0.00  0.00    +0.019 C 
ATOM     16  C   UNL     1       0.920  -9.112   4.761  0.00  0.00    +0.003 C 
ATOM     17  C   UNL     1       1.536  -7.793   5.230  0.00  0.00    +0.019 C 
ATOM     18  C   UNL     1       0.503  -6.676   5.099  0.00  0.00    +0.106 C 
ATOM     19  N   UNL     1       0.546  -3.166  -1.586  0.00  0.00    -0.270 N 
ATOM     20  C   UNL     1       0.925  -2.858  -2.845  0.00  0.00    +0.219 C 
ATOM     21  O   UNL     1       0.982  -3.742  -3.673  0.00  0.00    -0.275 OA
ATOM     22  C   UNL     1       1.277  -1.456  -3.251  0.00  0.00    +0.109 C 
ATOM     23  C   UNL     1       0.352  -0.434  -2.582  0.00  0.00    +0.063 C 
ATOM     24  H   UNL     1       0.466  -4.090  -1.300  0.00  0.00    +0.156 HD
ENDROOT
BRANCH  23  25
ATOM     25  C   UNL     1       0.962   0.941  -2.675  0.00  0.00    -0.039 A 
ATOM     26  C   UNL     1       2.209   1.181  -2.130  0.00  0.00    +0.005 A 
ATOM     27  C   UNL     1       2.770   2.442  -2.215  0.00  0.00    +0.020 A 
ATOM     28  C   UNL     1       2.082   3.463  -2.846  0.00  0.00    +0.041 A 
ATOM     29  C   UNL     1       0.834   3.222  -3.392  0.00  0.00    +0.020 A 
ATOM     30  C   UNL     1       0.277   1.960  -3.311  0.00  0.00    +0.005 A 
ATOM     31 CL   UNL     1       2.785   5.047  -2.953  0.00  0.00    -0.084 Cl
ENDBRANCH  23  25
TORSDOF 1
