REMARK  Name = ZINC13071949
REMARK  9 active torsions:
REMARK  status: ('A' for Active; 'I' for Inactive)
REMARK    1  A    between atoms: C_1  and  C_2
REMARK    2  A    between atoms: C_5  and  S_10
REMARK    3  A    between atoms: C_7  and  C_8
REMARK    4  A    between atoms: S_10  and  N_13
REMARK    5  A    between atoms: N_13  and  C_14
REMARK    6  A    between atoms: N_13  and  C_15
REMARK    7  A    between atoms: C_15  and  C_16
REMARK    8  A    between atoms: N_18  and  C_19
REMARK    9  A    between atoms: C_24  and  C_25
REMARK                            x       y       z     vdW  Elec       q    Type
REMARK                         _______ _______ _______ _____ _____    ______ ____
ROOT
ATOM      1  N   UNL     1      -3.401   3.960  -1.584  0.00  0.00    -0.171 NA
ATOM      2  C   UNL     1      -4.230   2.799  -1.919  0.00  0.00    +0.132 C 
ENDROOT
BRANCH   1   3
ATOM      3  S   UNL     1      -2.756   4.107  -0.066  0.00  0.00    +0.061 S 
ATOM      4  O   UNL     1      -3.581   3.342   0.801  0.00  0.00    -0.153 OA
ATOM      5  O   UNL     1      -2.514   5.492   0.139  0.00  0.00    -0.153 OA
BRANCH   3  10
ATOM      6  C   UNL     1       2.633   1.373  -0.142  0.00  0.00    +0.044 C 
ATOM      7  C   UNL     1       1.291   2.058  -0.124  0.00  0.00    -0.036 A 
ATOM      8  C   UNL     1       0.155   1.346   0.202  0.00  0.00    +0.006 A 
ATOM      9  C   UNL     1      -1.078   1.972   0.213  0.00  0.00    +0.029 A 
ATOM     10  C   UNL     1      -1.181   3.318  -0.090  0.00  0.00    +0.106 A 
ATOM     11  C   UNL     1      -0.054   4.043  -0.417  0.00  0.00    +0.044 A 
ATOM     12  C   UNL     1       1.194   3.416  -0.436  0.00  0.00    +0.068 A 
BRANCH  12  13
ATOM     13  C   UNL     1       2.406   4.185  -0.786  0.00  0.00    +0.387 C 
ATOM     14  O   UNL     1       3.470   3.615  -0.918  0.00  0.00    -0.241 OA
ATOM     15  O   UNL     1       2.331   5.519  -0.957  0.00  0.00    -0.241 OA
ENDBRANCH  12  13
ENDBRANCH   3  10
ENDBRANCH   1   3
BRANCH   1  16
ATOM     16  C   UNL     1      -3.143   4.990  -2.593  0.00  0.00    +0.205 C 
BRANCH  16  17
ATOM     17  C   UNL     1      -1.968   4.578  -3.443  0.00  0.00    +0.233 C 
ATOM     18  O   UNL     1      -1.403   3.527  -3.227  0.00  0.00    -0.274 OA
ATOM     19  N   UNL     1      -1.546   5.377  -4.443  0.00  0.00    -0.284 N 
ATOM     20  H   UNL     1      -1.952   6.248  -4.572  0.00  0.00    +0.155 HD
BRANCH  19  21
ATOM     21  C   UNL     1      -0.522   4.950  -5.295  0.00  0.00    +0.036 A 
ATOM     22  C   UNL     1       0.490   4.130  -4.811  0.00  0.00    +0.024 A 
ATOM     23  C   UNL     1       1.499   3.710  -5.655  0.00  0.00    +0.017 A 
ATOM     24  C   UNL     1       1.503   4.104  -6.981  0.00  0.00    +0.018 A 
ATOM     25  C   UNL     1       0.497   4.921  -7.466  0.00  0.00    +0.020 A 
ATOM     26  C   UNL     1      -0.518   5.340  -6.628  0.00  0.00    -0.028 A 
ATOM     27  C   UNL     1      -1.617   6.224  -7.158  0.00  0.00    +0.046 C 
ATOM     28 BR   UNL     1       2.887   3.526  -8.133  0.00  0.00    -0.050 Br
ENDBRANCH  19  21
ENDBRANCH  16  17
ENDBRANCH   1  16
TORSDOF 6
