REMARK  Name = ZINC44930464
REMARK  5 active torsions:
REMARK  status: ('A' for Active; 'I' for Inactive)
REMARK    1  A    between atoms: C_1  and  C_2
REMARK    2  A    between atoms: C_2  and  C_4
REMARK    3  A    between atoms: C_2  and  N_9
REMARK    4  A    between atoms: N_9  and  S_10
REMARK    5  A    between atoms: S_10  and  C_13
REMARK                            x       y       z     vdW  Elec       q    Type
REMARK                         _______ _______ _______ _____ _____    ______ ____
ROOT
ATOM      1  S   UNL     1      -2.050  -1.039   1.429  0.00  0.00    +0.061 S 
ATOM      2  O   UNL     1      -2.005  -0.027   2.425  0.00  0.00    -0.153 OA
ATOM      3  O   UNL     1      -3.269  -1.612   0.979  0.00  0.00    -0.153 OA
ENDROOT
BRANCH   1   4
ATOM      4  C   UNL     1      -1.055  -2.369   2.018  0.00  0.00    +0.127 A 
ATOM      5  C   UNL     1      -0.440  -2.292   3.254  0.00  0.00    +0.052 A 
ATOM      6  C   UNL     1       0.318  -3.333   3.677  0.00  0.00    +0.058 A 
ATOM      7  S   UNL     1       0.178  -4.472   2.309  0.00  0.00    -0.073 S 
ATOM      8  C   UNL     1      -0.886  -3.486   1.268  0.00  0.00    +0.082 A 
ATOM      9 BR   UNL     1      -1.592  -3.894  -0.438  0.00  0.00    -0.041 Br
ATOM     10 BR   UNL     1       1.276  -3.529   5.295  0.00  0.00    -0.042 Br
ENDBRANCH   1   4
BRANCH   1  11
ATOM     11  N   UNL     1      -1.296  -0.420   0.090  0.00  0.00    -0.180 NA
ATOM     12  H   UNL     1      -1.723  -0.481  -0.779  0.00  0.00    +0.149 HD
BRANCH  11  14
ATOM     13  C   UNL     1      -0.167   1.736   0.332  0.00  0.00    +0.034 C 
ATOM     14  C   UNL     1       0.015   0.221   0.219  0.00  0.00    +0.145 C 
BRANCH  14  15
ATOM     15  C   UNL     1       0.850  -0.095  -0.996  0.00  0.00    +0.195 A 
ATOM     16  N   UNL     1       2.121  -0.470  -1.005  0.00  0.00    -0.109 NA
ATOM     17  N   UNL     1       2.467  -0.643  -2.235  0.00  0.00    -0.021 NA
ATOM     18  N   UNL     1       1.458  -0.390  -2.994  0.00  0.00    -0.021 NA
ATOM     19  N   UNL     1       0.453  -0.057  -2.259  0.00  0.00    -0.109 NA
ENDBRANCH  14  15
ENDBRANCH  11  14
ENDBRANCH   1  11
TORSDOF 4
