REMARK  Name = ZINC38150049
REMARK  10 active torsions:
REMARK  status: ('A' for Active; 'I' for Inactive)
REMARK    1  A    between atoms: C_1  and  C_2
REMARK    2  A    between atoms: C_7  and  C_37
REMARK    3  A    between atoms: N_9  and  C_10
REMARK    4  A    between atoms: C_10  and  C_11
REMARK    5  A    between atoms: C_11  and  N_12
REMARK    6  A    between atoms: C_13  and  C_15
REMARK    7  A    between atoms: C_15  and  N_16
REMARK    8  A    between atoms: C_19  and  S_27
REMARK    9  A    between atoms: S_27  and  N_30
REMARK   10  A    between atoms: C_33  and  C_36
REMARK                            x       y       z     vdW  Elec       q    Type
REMARK                         _______ _______ _______ _____ _____    ______ ____
ROOT
ATOM      1  N   UNL     1       6.976   0.225   4.875  0.00  0.00    -0.261 N 
ATOM      2  C   UNL     1       6.815   1.075   5.966  0.00  0.00    +0.052 A 
ATOM      3  C   UNL     1       5.731   1.946   6.002  0.00  0.00    +0.053 A 
ATOM      4  C   UNL     1       5.560   2.799   7.074  0.00  0.00    +0.107 A 
ATOM      5  C   UNL     1       6.462   2.798   8.123  0.00  0.00    +0.030 A 
ATOM      6  C   UNL     1       7.543   1.935   8.101  0.00  0.00    +0.018 A 
ATOM      7  C   UNL     1       7.718   1.076   7.030  0.00  0.00    +0.030 A 
ATOM      8  S   UNL     1       9.088  -0.037   6.995  0.00  0.00    -0.114 S 
ATOM      9  C   UNL     1       8.433  -1.438   6.040  0.00  0.00    +0.170 C 
ATOM     10  C   UNL     1       7.673  -0.907   4.855  0.00  0.00    +0.230 C 
ATOM     11  O   UNL     1       7.703  -1.544   3.823  0.00  0.00    -0.274 OA
ENDROOT
BRANCH   4  12
ATOM     12  S   UNL     1       4.183   3.898   7.106  0.00  0.00    +0.061 S 
ATOM     13  O   UNL     1       4.544   4.977   7.957  0.00  0.00    -0.153 OA
ATOM     14  O   UNL     1       3.787   4.092   5.755  0.00  0.00    -0.153 OA
BRANCH  12  15
ATOM     15  N   UNL     1       2.938   3.101   7.854  0.00  0.00    -0.177 NA
ATOM     16  C   UNL     1       1.995   2.287   7.075  0.00  0.00    +0.110 C 
ATOM     17  C   UNL     1       0.569   2.748   7.390  0.00  0.00    +0.020 C 
ATOM     18  C   UNL     1       0.342   2.698   8.902  0.00  0.00    -0.012 C 
ATOM     19  C   UNL     1       1.321   3.646   9.598  0.00  0.00    +0.020 C 
ATOM     20  C   UNL     1       2.760   3.190   9.309  0.00  0.00    +0.110 C 
ATOM     21  C   UNL     1      -1.092   3.125   9.218  0.00  0.00    +0.007 C 
ENDBRANCH  12  15
ENDBRANCH   4  12
BRANCH   1  22
ATOM     22  C   UNL     1       6.306   0.613   3.630  0.00  0.00    +0.209 C 
BRANCH  22  24
ATOM     23  N   UNL     1       4.113   0.250   2.546  0.00  0.00    -0.316 N 
ATOM     24  C   UNL     1       4.919   0.025   3.602  0.00  0.00    +0.231 C 
ATOM     25  O   UNL     1       4.528  -0.651   4.530  0.00  0.00    -0.274 OA
ATOM     26  H   UNL     1       4.426   0.791   1.803  0.00  0.00    +0.149 HD
BRANCH  23  27
ATOM     27  C   UNL     1       2.764  -0.321   2.518  0.00  0.00    +0.086 C 
BRANCH  27  28
ATOM     28  C   UNL     1       2.066   0.083   1.218  0.00  0.00    -0.059 C 
BRANCH  28  35
ATOM     29  C   UNL     1      -0.019   1.526   0.010  0.00  0.00    -0.013 C 
ATOM     30  C   UNL     1       0.002  -0.004   0.002  0.00  0.00    -0.071 C 
ATOM     31  C   UNL     1      -1.434  -0.533   0.011  0.00  0.00    -0.016 C 
ATOM     32  C   UNL     1      -1.408  -2.064   0.003  0.00  0.00    -0.003 C 
ATOM     33  C   UNL     1      -0.600  -2.558   1.206  0.00  0.00    -0.016 C 
ATOM     34  C   UNL     1       0.805  -1.954   1.152  0.00  0.00    -0.071 C 
ATOM     35  N   UNL     1       0.713  -0.490   1.191  0.00  0.00    +0.384 N 
ATOM     36  C   UNL     1       1.497  -2.387  -0.142  0.00  0.00    -0.013 C 
ATOM     37  H   UNL     1       0.213  -0.206   2.020  0.00  0.00    -0.081 HD
ENDBRANCH  28  35
ENDBRANCH  27  28
ENDBRANCH  23  27
ENDBRANCH  22  24
ENDBRANCH   1  22
TORSDOF 7
