REMARK  Name = ZINC16273811
REMARK  10 active torsions:
REMARK  status: ('A' for Active; 'I' for Inactive)
REMARK    1  A    between atoms: C_1  and  O_2
REMARK    2  A    between atoms: O_2  and  C_3
REMARK    3  A    between atoms: C_3  and  C_4
REMARK    4  A    between atoms: C_4  and  C_5
REMARK    5  A    between atoms: C_5  and  N_6
REMARK    6  A    between atoms: N_6  and  C_7
REMARK    7  A    between atoms: C_7  and  N_9
REMARK    8  A    between atoms: N_9  and  N_10
REMARK    9  A    between atoms: C_11  and  C_13
REMARK   10  A    between atoms: C_15  and  N_21
REMARK                            x       y       z     vdW  Elec       q    Type
REMARK                         _______ _______ _______ _____ _____    ______ ____
ROOT
ATOM      1  N   UNL     1      -0.011   0.966   0.007  0.00  0.00    -0.230 N 
ATOM      2  C   UNL     1      -1.187   1.624   0.017  0.00  0.00    +0.280 C 
ATOM      3  O   UNL     1      -1.204   2.839   0.023  0.00  0.00    -0.267 OA
ATOM      4  H   UNL     1       0.004  -0.134   0.006  0.00  0.00    +0.173 HD
ENDROOT
BRANCH   2   5
ATOM      5  C   UNL     1      -2.459   0.866   0.018  0.00  0.00    +0.149 A 
ATOM      6  C   UNL     1      -3.670   1.552   0.034  0.00  0.00    +0.094 A 
ATOM      7  C   UNL     1      -4.860   0.824   0.030  0.00  0.00    +0.067 A 
ATOM      8  C   UNL     1      -4.784  -0.568   0.023  0.00  0.00    +0.100 A 
ATOM      9  C   UNL     1      -3.539  -1.178   0.013  0.00  0.00    +0.150 A 
ATOM     10  N   UNL     1      -2.434  -0.463   0.011  0.00  0.00    -0.228 NA
ATOM     11 CL   UNL     1      -3.436  -2.911   0.002  0.00  0.00    -0.060 Cl
ATOM     12 CL   UNL     1      -6.231  -1.527   0.025  0.00  0.00    -0.078 Cl
ATOM     13 CL   UNL     1      -3.699   3.288   0.050  0.00  0.00    -0.079 Cl
BRANCH   7  14
ATOM     14  N   UNL     1      -6.094   1.471   0.041  0.00  0.00    -0.356 N 
ATOM     15  H   UNL     1      -7.024   0.883   0.038  0.00  0.00    +0.142 HD
ATOM     16  H   UNL     1      -6.138   2.570   0.052  0.00  0.00    +0.142 HD
ENDBRANCH   7  14
ENDBRANCH   2   5
BRANCH   1  17
ATOM     17  N   UNL     1       1.193   1.683  -0.000  0.00  0.00    -0.246 N 
ATOM     18  H   UNL     1       1.178   2.783   0.006  0.00  0.00    +0.172 HD
BRANCH  17  19
ATOM     19  C   UNL     1       2.369   1.025  -0.015  0.00  0.00    +0.147 C 
ATOM     20  S   UNL     1       3.840   1.901  -0.024  0.00  0.00    -0.017 S 
BRANCH  19  21
ATOM     21  N   UNL     1       2.387  -0.323  -0.022  0.00  0.00    -0.325 N 
ATOM     22  H   UNL     1       1.442  -0.886  -0.017  0.00  0.00    +0.148 HD
BRANCH  21  23
ATOM     23  C   UNL     1       3.666  -1.038  -0.038  0.00  0.00    +0.105 C 
BRANCH  23  24
ATOM     24  C   UNL     1       3.406  -2.546  -0.044  0.00  0.00    +0.047 C 
BRANCH  24  25
ATOM     25  C   UNL     1       4.742  -3.293  -0.061  0.00  0.00    +0.161 C 
BRANCH  25  27
ATOM     26  C   UNL     1       5.688  -5.495  -0.082  0.00  0.00    +0.193 C 
ATOM     27  O   UNL     1       4.500  -4.701  -0.066  0.00  0.00    -0.383 OA
ENDBRANCH  25  27
ENDBRANCH  24  25
ENDBRANCH  23  24
ENDBRANCH  21  23
ENDBRANCH  19  21
ENDBRANCH  17  19
ENDBRANCH   1  17
TORSDOF 9
