REMARK  Name = ZINC39630580
REMARK  14 active torsions:
REMARK  status: ('A' for Active; 'I' for Inactive)
REMARK    1  A    between atoms: C_1  and  C_2
REMARK    2  A    between atoms: C_2  and  C_3
REMARK    3  A    between atoms: C_2  and  C_4
REMARK    4  A    between atoms: C_2  and  C_31
REMARK    5  A    between atoms: C_4  and  N_5
REMARK    6  A    between atoms: C_6  and  C_8
REMARK    7  A    between atoms: C_19  and  C_21
REMARK    8  A    between atoms: C_23  and  O_29
REMARK    9  A    between atoms: C_25  and  O_27
REMARK   10  A    between atoms: O_27  and  C_28
REMARK   11  A    between atoms: O_29  and  C_30
REMARK   12  A    between atoms: C_31  and  N_32
REMARK   13  A    between atoms: N_32  and  C_33
REMARK   14  A    between atoms: N_32  and  C_34
REMARK                            x       y       z     vdW  Elec       q    Type
REMARK                         _______ _______ _______ _____ _____    ______ ____
ROOT
ATOM      1  C   UNL     1      -5.479  -0.275   2.116  0.00  0.00    +0.100 C 
ATOM      2  C   UNL     1      -5.305  -0.404   3.646  0.00  0.00    +0.121 C 
ATOM      3  N   UNL     1      -6.681  -0.581   4.165  0.00  0.00    -0.296 N 
ATOM      4  C   UNL     1      -7.339  -1.465   3.173  0.00  0.00    +0.115 C 
ATOM      5  C   UNL     1      -6.814  -0.973   1.810  0.00  0.00    -0.004 C 
ATOM      6  C   UNL     1      -6.590  -2.157   0.874  0.00  0.00    -0.010 C 
ATOM      7  C   UNL     1      -7.938  -2.799   0.537  0.00  0.00    -0.082 C 
ATOM      8  N   UNL     1      -8.811  -1.805  -0.099  0.00  0.00    +0.379 N 
ATOM      9  C   UNL     1      -9.097  -0.715   0.842  0.00  0.00    -0.082 C 
ATOM     10  C   UNL     1      -7.797   0.015   1.191  0.00  0.00    -0.010 C 
ATOM     11  C   UNL     1      -7.215  -0.056   5.286  0.00  0.00    +0.247 C 
ATOM     12  O   UNL     1      -6.579   0.744   5.945  0.00  0.00    -0.270 OA
ATOM     13  H   UNL     1      -8.352  -1.431  -0.916  0.00  0.00    -0.086 HD
ATOM     14  H   UNL     1      -9.676  -2.245  -0.375  0.00  0.00    -0.086 HD
ENDROOT
BRANCH  11  15
ATOM     15  C   UNL     1      -8.574  -0.452   5.714  0.00  0.00    +0.044 A 
ATOM     16  C   UNL     1      -9.131  -1.646   5.255  0.00  0.00    +0.059 A 
ATOM     17  C   UNL     1     -10.404  -2.014   5.659  0.00  0.00    +0.124 A 
ATOM     18  C   UNL     1     -11.125  -1.196   6.517  0.00  0.00    +0.091 A 
ATOM     19  C   UNL     1     -10.574  -0.008   6.976  0.00  0.00    +0.124 A 
ATOM     20  C   UNL     1      -9.300   0.364   6.582  0.00  0.00    +0.059 A 
BRANCH  19  21
ATOM     21  O   UNL     1     -11.285   0.789   7.816  0.00  0.00    -0.495 OA
ATOM     22  C   UNL     1     -12.591   0.341   8.186  0.00  0.00    +0.277 C 
ENDBRANCH  19  21
BRANCH  17  23
ATOM     23  O   UNL     1     -10.948  -3.177   5.213  0.00  0.00    -0.495 OA
ATOM     24  C   UNL     1     -12.264  -3.494   5.669  0.00  0.00    +0.277 C 
ENDBRANCH  17  23
ENDBRANCH  11  15
BRANCH   1  26
ATOM     25  N   UNL     1      -3.982  -0.562   0.167  0.00  0.00    -0.315 N 
ATOM     26  C   UNL     1      -4.348  -0.968   1.399  0.00  0.00    +0.218 C 
ATOM     27  O   UNL     1      -3.768  -1.891   1.931  0.00  0.00    -0.275 OA
ATOM     28  H   UNL     1      -4.446   0.176  -0.258  0.00  0.00    +0.149 HD
BRANCH  25  29
ATOM     29  C   UNL     1      -2.883  -1.236  -0.529  0.00  0.00    +0.108 C 
BRANCH  29  31
ATOM     30  C   UNL     1      -3.954  -0.712  -2.725  0.00  0.00    +0.010 C 
ATOM     31  C   UNL     1      -2.673  -0.586  -1.899  0.00  0.00    -0.034 C 
ATOM     32  C   UNL     1      -2.329   0.894  -1.714  0.00  0.00    +0.010 C 
BRANCH  31  33
ATOM     33  C   UNL     1      -1.525  -1.289  -2.626  0.00  0.00    -0.072 C 
BRANCH  33  34
ATOM     34  N   UNL     1      -1.330  -0.672  -3.945  0.00  0.00    +0.376 N 
ATOM     35  C   UNL     1      -0.441   0.490  -3.815  0.00  0.00    -0.097 C 
ATOM     36  C   UNL     1      -0.727  -1.651  -4.859  0.00  0.00    -0.097 C 
ATOM     37  H   UNL     1      -2.222  -0.373  -4.312  0.00  0.00    -0.083 HD
ENDBRANCH  33  34
ENDBRANCH  31  33
ENDBRANCH  29  31
ENDBRANCH  25  29
ENDBRANCH   1  26
TORSDOF 8
