REMARK  Name = ZINC35474420
REMARK  7 active torsions:
REMARK  status: ('A' for Active; 'I' for Inactive)
REMARK    1  A    between atoms: C_1  and  C_2
REMARK    2  A    between atoms: C_2  and  O_3
REMARK    3  A    between atoms: O_3  and  C_4
REMARK    4  A    between atoms: C_6  and  C_11
REMARK    5  A    between atoms: C_9  and  O_10
REMARK    6  A    between atoms: N_12  and  N_13
REMARK    7  A    between atoms: C_14  and  C_16
REMARK                            x       y       z     vdW  Elec       q    Type
REMARK                         _______ _______ _______ _____ _____    ______ ____
ROOT
ATOM      1  N   UNL     1       0.454  -6.765  -0.887  0.00  0.00    -0.202 N 
ATOM      2  C   UNL     1       0.386  -8.084  -1.156  0.00  0.00    +0.284 C 
ATOM      3  O   UNL     1      -0.238  -8.823  -0.419  0.00  0.00    -0.267 OA
ATOM      4  H   UNL     1       0.951  -6.175  -1.475  0.00  0.00    +0.178 HD
ENDROOT
BRANCH   2   5
ATOM      5  C   UNL     1       1.069  -8.632  -2.345  0.00  0.00    +0.152 A 
ATOM      6  C   UNL     1       1.086  -9.974  -2.759  0.00  0.00    +0.005 A 
ATOM      7  C   UNL     1       1.832 -10.005  -3.891  0.00  0.00    +0.040 A 
ATOM      8  N   UNL     1       2.234  -8.747  -4.137  0.00  0.00    -0.281 N 
ATOM      9  H   UNL     1       2.783  -8.476  -4.889  0.00  0.00    +0.189 HD
ATOM     10  N   UNL     1       1.779  -7.953  -3.230  0.00  0.00    -0.169 NA
ATOM     11  C   UNL     1       2.117 -11.260  -4.675  0.00  0.00    +0.055 C 
ATOM     12  C   UNL     1       1.803 -12.468  -3.783  0.00  0.00    +0.006 C 
ATOM     13  C   UNL     1       0.410 -12.306  -3.169  0.00  0.00    +0.005 C 
ATOM     14  C   UNL     1       0.436 -11.176  -2.131  0.00  0.00    +0.039 C 
ENDBRANCH   2   5
BRANCH   1  16
ATOM     15  C   UNL     1      -0.237  -4.962   0.432  0.00  0.00    +0.138 C 
ATOM     16  N   UNL     1      -0.194  -6.245   0.241  0.00  0.00    -0.187 NA
BRANCH  15  19
ATOM     17  C   UNL     1       0.209  -1.830  -1.590  0.00  0.00    +0.162 A 
ATOM     18  C   UNL     1       0.123  -2.687  -0.509  0.00  0.00    +0.059 A 
ATOM     19  C   UNL     1      -0.144  -4.043  -0.717  0.00  0.00    -0.002 A 
ATOM     20  C   UNL     1      -0.321  -4.525  -2.016  0.00  0.00    +0.013 A 
ATOM     21  C   UNL     1      -0.234  -3.664  -3.089  0.00  0.00    +0.050 A 
ATOM     22  C   UNL     1       0.026  -2.317  -2.882  0.00  0.00    +0.158 A 
BRANCH  22  23
ATOM     23  O   UNL     1       0.106  -1.471  -3.943  0.00  0.00    -0.503 OA
ATOM     24  H   UNL     1       0.996  -1.386  -4.313  0.00  0.00    +0.292 HD
ENDBRANCH  22  23
BRANCH  17  25
ATOM     25  O   UNL     1       0.468  -0.509  -1.391  0.00  0.00    -0.489 OA
BRANCH  25  27
ATOM     26  C   UNL     1       0.925   1.425  -0.017  0.00  0.00    +0.048 C 
ATOM     27  C   UNL     1       0.645  -0.079  -0.040  0.00  0.00    +0.226 C 
ENDBRANCH  25  27
ENDBRANCH  17  25
ENDBRANCH  15  19
ENDBRANCH   1  16
TORSDOF 6
