REMARK  Name = ZINC16093956
REMARK  6 active torsions:
REMARK  status: ('A' for Active; 'I' for Inactive)
REMARK    1  A    between atoms: C_1  and  C_2
REMARK    2  A    between atoms: C_5  and  S_8
REMARK    3  A    between atoms: S_8  and  N_11
REMARK    4  A    between atoms: N_11  and  C_12
REMARK    5  A    between atoms: C_17  and  C_22
REMARK    6  A    between atoms: C_19  and  C_21
REMARK                            x       y       z     vdW  Elec       q    Type
REMARK                         _______ _______ _______ _____ _____    ______ ____
ROOT
ATOM      1  S   UNL     1       2.713   0.923  -0.018  0.00  0.00    +0.059 S 
ATOM      2  O   UNL     1       3.680   1.809   0.528  0.00  0.00    -0.153 OA
ATOM      3  O   UNL     1       2.464  -0.365   0.528  0.00  0.00    -0.153 OA
ENDROOT
BRANCH   1   8
ATOM      4  C   UNL     1      -2.553   3.869   0.045  0.00  0.00    +0.044 C 
ATOM      5  C   UNL     1      -1.238   3.133   0.029  0.00  0.00    -0.050 A 
ATOM      6  C   UNL     1      -1.219   1.751   0.017  0.00  0.00    +0.005 A 
ATOM      7  C   UNL     1      -0.013   1.076   0.008  0.00  0.00    +0.029 A 
ATOM      8  C   UNL     1       1.175   1.783   0.000  0.00  0.00    +0.105 A 
ATOM      9  C   UNL     1       1.156   3.165   0.008  0.00  0.00    +0.029 A 
ATOM     10  C   UNL     1      -0.050   3.840   0.022  0.00  0.00    +0.005 A 
ENDBRANCH   1   8
BRANCH   1  11
ATOM     11  N   UNL     1       3.125   0.692  -1.605  0.00  0.00    -0.187 NA
ATOM     12  H   UNL     1       3.171  -0.206  -1.969  0.00  0.00    +0.148 HD
BRANCH  11  13
ATOM     13  C   UNL     1       3.421   1.844  -2.461  0.00  0.00    +0.080 C 
ATOM     14  C   UNL     1       4.931   2.089  -2.483  0.00  0.00    +0.020 C 
ATOM     15  C   UNL     1       5.239   3.292  -3.377  0.00  0.00    +0.002 C 
ATOM     16  C   UNL     1       4.746   3.012  -4.798  0.00  0.00    +0.003 C 
ATOM     17  C   UNL     1       3.236   2.768  -4.775  0.00  0.00    -0.010 C 
ATOM     18  C   UNL     1       2.928   1.564  -3.882  0.00  0.00    +0.007 C 
ATOM     19  C   UNL     1       3.637   0.325  -4.433  0.00  0.00    +0.009 C 
ATOM     20  C   UNL     1       2.743   2.487  -6.196  0.00  0.00    +0.008 C 
ENDBRANCH  11  13
ENDBRANCH   1  11
TORSDOF 3
