REMARK  Name = ZINC41631172
REMARK  9 active torsions:
REMARK  status: ('A' for Active; 'I' for Inactive)
REMARK    1  A    between atoms: C_1  and  C_2
REMARK    2  A    between atoms: C_2  and  C_3
REMARK    3  A    between atoms: C_2  and  C_4
REMARK    4  A    between atoms: C_4  and  N_5
REMARK    5  A    between atoms: C_10  and  C_12
REMARK    6  A    between atoms: C_15  and  C_19
REMARK    7  A    between atoms: C_16  and  N_18
REMARK    8  A    between atoms: C_19  and  C_20
REMARK    9  A    between atoms: C_19  and  C_21
REMARK                            x       y       z     vdW  Elec       q    Type
REMARK                         _______ _______ _______ _____ _____    ______ ____
ROOT
ATOM      1  C   UNL     1      -4.095   2.664  -2.348  0.00  0.00    +0.004 A 
ATOM      2  C   UNL     1      -4.738   3.112  -3.502  0.00  0.00    +0.010 A 
ATOM      3  C   UNL     1      -5.373   4.338  -3.507  0.00  0.00    +0.006 A 
ATOM      4  C   UNL     1      -5.375   5.125  -2.371  0.00  0.00    -0.024 A 
ATOM      5  C   UNL     1      -4.737   4.687  -1.216  0.00  0.00    +0.029 A 
ATOM      6  C   UNL     1      -4.101   3.454  -1.201  0.00  0.00    +0.033 A 
ENDROOT
BRANCH   1  12
ATOM      7  N   UNL     1      -2.207  -0.203  -1.194  0.00  0.00    -0.229 N 
ATOM      8  C   UNL     1      -2.150  -1.031  -2.254  0.00  0.00    +0.267 A 
ATOM      9  O   UNL     1      -1.567  -2.100  -2.167  0.00  0.00    -0.266 OA
ATOM     10  C   UNL     1      -2.770  -0.655  -3.466  0.00  0.00    +0.074 A 
ATOM     11  C   UNL     1      -3.408   0.550  -3.509  0.00  0.00    +0.035 A 
ATOM     12  C   UNL     1      -3.412   1.348  -2.341  0.00  0.00    +0.092 A 
ATOM     13  N   UNL     1      -2.817   0.926  -1.250  0.00  0.00    -0.168 NA
BRANCH   7  14
ATOM     14  C   UNL     1      -1.561  -0.602   0.059  0.00  0.00    +0.150 C 
BRANCH  14  16
ATOM     15  C   UNL     1      -0.104   1.427   0.078  0.00  0.00    +0.009 C 
ATOM     16  C   UNL     1      -0.115  -0.102   0.069  0.00  0.00    +0.004 C 
ATOM     17  C   UNL     1       0.596  -0.625   1.319  0.00  0.00    +0.009 C 
ENDBRANCH  14  16
ENDBRANCH   7  14
ENDBRANCH   1  12
BRANCH   5  18
ATOM     18  N   UNL     1      -4.741   5.485  -0.070  0.00  0.00    -0.358 N 
ATOM     19  H   UNL     1      -5.266   6.300  -0.048  0.00  0.00    +0.142 HD
ATOM     20  H   UNL     1      -4.218   5.224   0.705  0.00  0.00    +0.142 HD
ENDBRANCH   5  18
BRANCH   4  21
ATOM     21  C   UNL     1      -6.070   6.462  -2.384  0.00  0.00    +0.015 C 
ATOM     22  C   UNL     1      -5.359   7.397  -3.364  0.00  0.00    +0.012 C 
ATOM     23  C   UNL     1      -7.525   6.276  -2.820  0.00  0.00    +0.012 C 
ENDBRANCH   4  21
TORSDOF 5
