REMARK  Name = ZINC06077013
REMARK  8 active torsions:
REMARK  status: ('A' for Active; 'I' for Inactive)
REMARK    1  A    between atoms: C_1  and  C_2
REMARK    2  A    between atoms: C_2  and  C_3
REMARK    3  A    between atoms: C_2  and  C_4
REMARK    4  A    between atoms: C_9  and  S_27
REMARK    5  A    between atoms: C_17  and  S_22
REMARK    6  A    between atoms: S_22  and  N_25
REMARK    7  A    between atoms: S_27  and  C_28
REMARK    8  A    between atoms: C_33  and  N_34
REMARK                            x       y       z     vdW  Elec       q    Type
REMARK                         _______ _______ _______ _____ _____    ______ ____
ROOT
ATOM      1  C   UNL     1       2.528   1.637  -1.915  0.00  0.00    +0.077 C 
ATOM      2  C   UNL     1       2.531   1.772  -0.405  0.00  0.00    +0.019 C 
ATOM      3  C   UNL     1       2.321   3.162   0.180  0.00  0.00    +0.022 C 
ATOM      4  C   UNL     1       1.558   2.932   1.510  0.00  0.00    +0.070 C 
ATOM      5  C   UNL     1       1.267   1.406   1.588  0.00  0.00    +0.101 C 
ATOM      6  C   UNL     1       1.302   0.981   0.120  0.00  0.00    +0.044 C 
ATOM      7  C   UNL     1       1.542  -0.458  -0.176  0.00  0.00    -0.020 A 
ATOM      8  C   UNL     1       1.091  -1.455   0.662  0.00  0.00    +0.034 A 
ATOM      9  C   UNL     1       1.321  -2.783   0.352  0.00  0.00    +0.105 A 
ATOM     10  C   UNL     1       2.004  -3.113  -0.804  0.00  0.00    +0.030 A 
ATOM     11  C   UNL     1       2.463  -2.122  -1.646  0.00  0.00    +0.025 A 
ATOM     12  C   UNL     1       2.244  -0.783  -1.338  0.00  0.00    +0.031 A 
ATOM     13  N   UNL     1       2.754   0.203  -2.192  0.00  0.00    -0.340 N 
ATOM     14 CL   UNL     1       2.549   0.558   2.530  0.00  0.00    -0.120 Cl
ATOM     15  H   UNL     1       3.263  -0.059  -2.975  0.00  0.00    +0.146 HD
ENDROOT
BRANCH   1  17
ATOM     16  C   UNL     1       1.056   3.599  -2.390  0.00  0.00    +0.009 C 
ATOM     17  C   UNL     1       1.176   2.077  -2.480  0.00  0.00    +0.003 C 
ATOM     18  C   UNL     1       1.070   1.643  -3.944  0.00  0.00    +0.009 C 
ENDBRANCH   1  17
BRANCH   9  19
ATOM     19  S   UNL     1       0.743  -4.053   1.428  0.00  0.00    +0.056 S 
ATOM     20  O   UNL     1       1.561  -5.190   1.190  0.00  0.00    -0.153 OA
ATOM     21  O   UNL     1       0.611  -3.465   2.715  0.00  0.00    -0.153 OA
BRANCH  19  22
ATOM     22  N   UNL     1      -0.785  -4.456   0.933  0.00  0.00    -0.204 NA
ATOM     23  H   UNL     1      -1.184  -4.004   0.173  0.00  0.00    +0.144 HD
ATOM     24  H   UNL     1      -1.281  -5.145   1.403  0.00  0.00    +0.144 HD
ENDBRANCH  19  22
ENDBRANCH   9  19
BRANCH   4  25
ATOM     25  S   UNL     1       2.586   3.443   2.914  0.00  0.00    -0.118 S 
BRANCH  25  26
ATOM     26  C   UNL     1       1.526   3.255   4.309  0.00  0.00    +0.038 A 
ATOM     27  C   UNL     1       0.224   2.800   4.138  0.00  0.00    +0.017 A 
ATOM     28  C   UNL     1      -0.604   2.654   5.233  0.00  0.00    +0.001 A 
ATOM     29  C   UNL     1      -0.139   2.960   6.500  0.00  0.00    +0.002 A 
ATOM     30  C   UNL     1       1.156   3.413   6.673  0.00  0.00    +0.034 A 
ATOM     31  C   UNL     1       1.991   3.556   5.583  0.00  0.00    +0.140 A 
BRANCH  31  32
ATOM     32  N   UNL     1       3.379   4.036   5.771  0.00  0.00    +0.058 N 
ATOM     33  O   UNL     1       3.786   4.300   6.888  0.00  0.00    -0.126 OA
ATOM     34  O   UNL     1       4.114   4.166   4.808  0.00  0.00    -0.126 OA
ENDBRANCH  31  32
ENDBRANCH  25  26
ENDBRANCH   4  25
TORSDOF 6
