REMARK  Name = ZINC45484669
REMARK  7 active torsions:
REMARK  status: ('A' for Active; 'I' for Inactive)
REMARK    1  A    between atoms: C_1  and  C_2
REMARK    2  A    between atoms: C_11  and  N_34
REMARK    3  A    between atoms: C_13  and  S_15
REMARK    4  A    between atoms: S_15  and  C_16
REMARK    5  A    between atoms: C_16  and  C_18
REMARK    6  A    between atoms: C_16  and  C_19
REMARK    7  A    between atoms: N_21  and  C_22
REMARK                            x       y       z     vdW  Elec       q    Type
REMARK                         _______ _______ _______ _____ _____    ______ ____
ROOT
ATOM      1  S   UNL     1       2.994  -8.001   1.020  0.00  0.00    -0.073 S 
ENDROOT
BRANCH   1  13
ATOM      2  C   UNL     1      -2.354   0.534  -0.575  0.00  0.00    +0.008 C 
ATOM      3  C   UNL     1      -1.838  -0.903  -0.482  0.00  0.00    -0.009 C 
ATOM      4  C   UNL     1      -0.866  -1.176  -1.634  0.00  0.00    +0.008 C 
ATOM      5  C   UNL     1      -0.539  -2.668  -1.694  0.00  0.00    +0.037 C 
ATOM      6  C   UNL     1      -0.068  -3.128  -0.317  0.00  0.00    -0.025 A 
ATOM      7  C   UNL     1      -0.342  -2.392   0.783  0.00  0.00    -0.004 A 
ATOM      8  S   UNL     1       0.380  -3.287   2.136  0.00  0.00    -0.073 S 
ATOM      9  C   UNL     1       1.048  -4.644   1.228  0.00  0.00    +0.115 A 
ATOM     10  C   UNL     1       0.684  -4.356  -0.111  0.00  0.00    +0.051 A 
ATOM     11  C   UNL     1       1.091  -5.290  -1.107  0.00  0.00    +0.129 A 
ATOM     12  N   UNL     1       1.775  -6.345  -0.671  0.00  0.00    -0.207 NA
ATOM     13  C   UNL     1       2.081  -6.553   0.601  0.00  0.00    +0.192 A 
ATOM     14  N   UNL     1       1.729  -5.716   1.580  0.00  0.00    -0.214 NA
ATOM     15  C   UNL     1      -1.098  -1.100   0.848  0.00  0.00    +0.046 C 
BRANCH  11  16
ATOM     16  N   UNL     1       0.792  -5.112  -2.446  0.00  0.00    -0.343 N 
ATOM     17  H   UNL     1       1.274  -5.615  -3.121  0.00  0.00    +0.144 HD
ATOM     18  H   UNL     1       0.101  -4.484  -2.709  0.00  0.00    +0.144 HD
ENDBRANCH  11  16
ENDBRANCH   1  13
BRANCH   1  19
ATOM     19  C   UNL     1       3.253  -8.832  -0.572  0.00  0.00    +0.137 C 
ATOM     20  C   UNL     1       4.141  -7.961  -1.463  0.00  0.00    +0.029 C 
BRANCH  19  21
ATOM     21  C   UNL     1       3.924 -10.161  -0.340  0.00  0.00    +0.230 C 
ATOM     22  O   UNL     1       4.522 -10.367   0.695  0.00  0.00    -0.274 OA
ATOM     23  N   UNL     1       3.861 -11.121  -1.284  0.00  0.00    -0.285 N 
ATOM     24  H   UNL     1       3.450 -10.932  -2.142  0.00  0.00    +0.155 HD
BRANCH  23  25
ATOM     25  C   UNL     1       4.388 -12.393  -1.026  0.00  0.00    +0.035 A 
ATOM     26  C   UNL     1       4.965 -13.127  -2.056  0.00  0.00    +0.025 A 
ATOM     27  C   UNL     1       5.487 -14.381  -1.808  0.00  0.00    +0.029 A 
ATOM     28  C   UNL     1       5.435 -14.911  -0.528  0.00  0.00    +0.067 A 
ATOM     29  C   UNL     1       4.856 -14.176   0.509  0.00  0.00    +0.069 A 
ATOM     30  C   UNL     1       4.339 -12.915   0.258  0.00  0.00    +0.051 A 
ATOM     31  N   UNL     1       4.952 -14.958   1.658  0.00  0.00    -0.306 N 
ATOM     32  H   UNL     1       4.634 -14.710   2.540  0.00  0.00    +0.170 HD
ATOM     33  C   UNL     1       5.561 -16.114   1.336  0.00  0.00    +0.325 A 
ATOM     34  O   UNL     1       5.800 -17.020   2.113  0.00  0.00    -0.247 OA
ATOM     35  N   UNL     1       5.865 -16.117   0.025  0.00  0.00    -0.306 N 
ATOM     36  H   UNL     1       6.307 -16.836  -0.454  0.00  0.00    +0.170 HD
ENDBRANCH  23  25
ENDBRANCH  19  21
ENDBRANCH   1  19
TORSDOF 5
