REMARK  Name = ZINC15947255
REMARK  9 active torsions:
REMARK  status: ('A' for Active; 'I' for Inactive)
REMARK    1  A    between atoms: C_1  and  C_2
REMARK    2  A    between atoms: C_2  and  C_3
REMARK    3  A    between atoms: C_3  and  N_4
REMARK    4  A    between atoms: C_13  and  C_15
REMARK    5  A    between atoms: N_17  and  N_18
REMARK    6  A    between atoms: C_19  and  C_21
REMARK    7  A    between atoms: C_21  and  C_22
REMARK    8  A    between atoms: C_22  and  N_23
REMARK    9  A    between atoms: N_26  and  C_27
REMARK                            x       y       z     vdW  Elec       q    Type
REMARK                         _______ _______ _______ _____ _____    ______ ____
ROOT
ATOM      1  N   UNL     1     -10.815   0.456   3.106  0.00  0.00    -0.234 N 
ATOM      2  C   UNL     1      -9.551   0.922   3.096  0.00  0.00    +0.231 C 
ATOM      3  O   UNL     1      -9.155   1.620   4.006  0.00  0.00    -0.274 OA
ATOM      4  H   UNL     1     -11.132  -0.102   2.378  0.00  0.00    +0.173 HD
ENDROOT
BRANCH   1   7
ATOM      5  C   UNL     1     -12.937   0.310   4.176  0.00  0.00    +0.281 C 
ATOM      6  O   UNL     1     -13.334  -0.389   3.264  0.00  0.00    -0.267 OA
ATOM      7  N   UNL     1     -11.672   0.777   4.166  0.00  0.00    -0.229 N 
ATOM      8  H   UNL     1     -11.356   1.335   4.894  0.00  0.00    +0.173 HD
BRANCH   5  18
ATOM      9  N   UNL     1     -14.138   1.740   7.284  0.00  0.00    -0.228 N 
ATOM     10  C   UNL     1     -15.422   1.358   7.444  0.00  0.00    +0.275 A 
ATOM     11  O   UNL     1     -16.059   1.709   8.420  0.00  0.00    -0.266 OA
ATOM     12  C   UNL     1     -16.032   0.507   6.414  0.00  0.00    +0.050 A 
ATOM     13  C   UNL     1     -17.348   0.059   6.485  0.00  0.00    +0.014 A 
ATOM     14  C   UNL     1     -17.846  -0.737   5.476  0.00  0.00    +0.001 A 
ATOM     15  C   UNL     1     -17.051  -1.093   4.394  0.00  0.00    +0.001 A 
ATOM     16  C   UNL     1     -15.745  -0.659   4.305  0.00  0.00    +0.011 A 
ATOM     17  C   UNL     1     -15.224   0.149   5.310  0.00  0.00    +0.020 A 
ATOM     18  C   UNL     1     -13.840   0.649   5.294  0.00  0.00    +0.155 A 
ATOM     19  N   UNL     1     -13.420   1.402   6.281  0.00  0.00    -0.163 NA
BRANCH   9  20
ATOM     20  C   UNL     1     -13.534   2.589   8.314  0.00  0.00    +0.147 C 
BRANCH  20  22
ATOM     21  C   UNL     1     -12.253   2.596  10.459  0.00  0.00    +0.005 C 
ATOM     22  C   UNL     1     -12.884   1.709   9.384  0.00  0.00    +0.020 C 
ENDBRANCH  20  22
ENDBRANCH   9  20
ENDBRANCH   5  18
ENDBRANCH   1   7
BRANCH   2  23
ATOM     23  C   UNL     1      -8.629   0.577   1.955  0.00  0.00    +0.116 C 
BRANCH  23  24
ATOM     24  C   UNL     1      -7.264   1.227   2.188  0.00  0.00    +0.115 C 
BRANCH  24  25
ATOM     25  N   UNL     1      -6.368   0.892   1.079  0.00  0.00    -0.299 N 
ATOM     26  C   UNL     1      -5.103   1.358   1.069  0.00  0.00    +0.300 C 
ATOM     27  O   UNL     1      -4.706   2.058   1.981  0.00  0.00    -0.253 OA
ATOM     28  N   UNL     1      -4.279   1.049   0.049  0.00  0.00    -0.294 N 
ATOM     29  H   UNL     1      -6.684   0.334   0.351  0.00  0.00    +0.150 HD
ATOM     30  H   UNL     1      -4.595   0.491  -0.679  0.00  0.00    +0.151 HD
BRANCH  28  31
ATOM     31  C   UNL     1      -2.904   1.556   0.038  0.00  0.00    +0.037 C 
ATOM     32  C   UNL     1      -2.188   1.063  -1.221  0.00  0.00    +0.029 C 
ATOM     33  C   UNL     1      -0.753   1.593  -1.232  0.00  0.00    -0.008 C 
ATOM     34  C   UNL     1      -0.013   1.086   0.008  0.00  0.00    +0.007 C 
ATOM     35  C   UNL     1      -0.729   1.579   1.267  0.00  0.00    -0.008 C 
ATOM     36  C   UNL     1      -2.164   1.050   1.278  0.00  0.00    +0.029 C 
ATOM     37  C   UNL     1      -0.750   3.109   1.275  0.00  0.00    +0.007 C 
ATOM     38  C   UNL     1      -1.490   3.616   0.036  0.00  0.00    -0.008 C 
ATOM     39  C   UNL     1      -0.773   3.123  -1.223  0.00  0.00    +0.007 C 
ATOM     40  C   UNL     1      -2.925   3.086   0.047  0.00  0.00    +0.029 C 
ENDBRANCH  28  31
ENDBRANCH  24  25
ENDBRANCH  23  24
ENDBRANCH   2  23
TORSDOF 8
