REMARK  Name = ZINC20795606
REMARK  8 active torsions:
REMARK  status: ('A' for Active; 'I' for Inactive)
REMARK    1  A    between atoms: C_1  and  C_2
REMARK    2  A    between atoms: C_5  and  C_28
REMARK    3  A    between atoms: C_6  and  N_8
REMARK    4  A    between atoms: C_9  and  C_11
REMARK    5  A    between atoms: C_11  and  N_12
REMARK    6  A    between atoms: C_15  and  C_19
REMARK    7  A    between atoms: C_15  and  C_20
REMARK    8  A    between atoms: C_23  and  C_26
REMARK                            x       y       z     vdW  Elec       q    Type
REMARK                         _______ _______ _______ _____ _____    ______ ____
ROOT
ATOM      1  N   UNL     1       0.371   2.766  -1.859  0.00  0.00    -0.215 N 
ATOM      2  C   UNL     1      -0.606   2.048  -1.269  0.00  0.00    +0.251 C 
ATOM      3  O   UNL     1      -1.732   1.867  -1.680  0.00  0.00    -0.272 OA
ATOM      4  C   UNL     1      -0.003   1.514   0.015  0.00  0.00    +0.135 C 
ATOM      5  N   UNL     1       1.373   2.042  -0.002  0.00  0.00    -0.281 N 
ATOM      6  C   UNL     1       1.495   2.759  -1.134  0.00  0.00    +0.310 C 
ATOM      7  O   UNL     1       2.513   3.337  -1.461  0.00  0.00    -0.252 OA
ATOM      8  C   UNL     1      -0.766   2.040   1.232  0.00  0.00    +0.047 C 
ATOM      9  H   UNL     1       2.061   1.811   0.824  0.00  0.00    +0.152 HD
ENDROOT
BRANCH   4  10
ATOM     10  C   UNL     1       0.008   0.007   0.008  0.00  0.00    -0.015 A 
ATOM     11  C   UNL     1      -1.023  -0.686  -0.601  0.00  0.00    +0.007 A 
ATOM     12  C   UNL     1      -1.017  -2.066  -0.615  0.00  0.00    +0.019 A 
ATOM     13  C   UNL     1       0.027  -2.762  -0.002  0.00  0.00    +0.052 A 
ATOM     14  C   UNL     1       1.061  -2.056   0.616  0.00  0.00    +0.019 A 
ATOM     15  C   UNL     1       1.045  -0.677   0.617  0.00  0.00    +0.007 A 
BRANCH  13  16
ATOM     16  C   UNL     1       0.037  -4.194  -0.008  0.00  0.00    +0.099 C 
ATOM     17  N   UNL     1       0.045  -5.330  -0.013  0.00  0.00    -0.191 NA
ENDBRANCH  13  16
ENDBRANCH   4  10
BRANCH   1  18
ATOM     18  C   UNL     1       0.220   3.466  -3.137  0.00  0.00    +0.214 C 
BRANCH  18  20
ATOM     19  N   UNL     1       0.546   2.975  -5.539  0.00  0.00    -0.284 N 
ATOM     20  C   UNL     1       0.606   2.543  -4.264  0.00  0.00    +0.235 C 
ATOM     21  O   UNL     1       0.972   1.412  -4.024  0.00  0.00    -0.274 OA
ATOM     22  H   UNL     1       0.129   3.968  -5.765  0.00  0.00    +0.155 HD
BRANCH  19  28
ATOM     23  C   UNL     1       3.471  -0.668  -7.070  0.00  0.00    +0.044 C 
ATOM     24  C   UNL     1       2.430   0.387  -7.347  0.00  0.00    -0.049 A 
ATOM     25  C   UNL     1       1.937   0.550  -8.628  0.00  0.00    +0.004 A 
ATOM     26  C   UNL     1       0.982   1.516  -8.886  0.00  0.00    +0.005 A 
ATOM     27  C   UNL     1       0.515   2.318  -7.863  0.00  0.00    -0.029 A 
ATOM     28  C   UNL     1       1.013   2.161  -6.577  0.00  0.00    +0.037 A 
ATOM     29  C   UNL     1       1.972   1.189  -6.321  0.00  0.00    +0.027 A 
ATOM     30  C   UNL     1      -0.530   3.367  -8.144  0.00  0.00    +0.045 C 
ENDBRANCH  19  28
ENDBRANCH  18  20
ENDBRANCH   1  18
TORSDOF 5
