REMARK  Name = ZINC09642715
REMARK  6 active torsions:
REMARK  status: ('A' for Active; 'I' for Inactive)
REMARK    1  A    between atoms: C_4  and  C_15
REMARK    2  A    between atoms: C_5  and  C_7
REMARK    3  A    between atoms: C_7  and  S_8
REMARK    4  A    between atoms: S_8  and  C_9
REMARK    5  A    between atoms: C_22  and  C_23
REMARK    6  A    between atoms: C_22  and  N_53
REMARK                            x       y       z     vdW  Elec       q    Type
REMARK                         _______ _______ _______ _____ _____    ______ ____
ROOT
ATOM      1  C   UNL     1      -2.549   1.058  -4.760  0.00  0.00    +0.247 C 
ATOM      2  O   UNL     1      -1.822   0.911  -5.723  0.00  0.00    -0.270 OA
ATOM      3  N   UNL     1      -2.104   1.720  -3.674  0.00  0.00    -0.301 N 
ATOM      4  C   UNL     1      -0.714   2.195  -3.597  0.00  0.00    +0.089 C 
ATOM      5  C   UNL     1      -0.109   1.716  -2.273  0.00  0.00    -0.059 C 
ATOM      6  C   UNL     1      -2.300   1.516  -1.253  0.00  0.00    -0.059 C 
ATOM      7  C   UNL     1      -2.995   1.987  -2.535  0.00  0.00    +0.089 C 
ATOM      8  N   UNL     1      -0.976   2.169  -1.163  0.00  0.00    +0.386 N 
ATOM      9  H   UNL     1      -1.101   3.185  -1.232  0.00  0.00    -0.081 HD
ENDROOT
BRANCH   1  13
ATOM     10  C   UNL     1      -6.492  -0.520  -4.817  0.00  0.00    +0.000 A 
ATOM     11  C   UNL     1      -6.291   0.823  -4.549  0.00  0.00    +0.001 A 
ATOM     12  C   UNL     1      -5.013   1.340  -4.524  0.00  0.00    +0.013 A 
ATOM     13  C   UNL     1      -3.921   0.509  -4.781  0.00  0.00    +0.041 A 
ATOM     14  C   UNL     1      -4.131  -0.845  -5.050  0.00  0.00    -0.025 A 
ATOM     15  C   UNL     1      -5.415  -1.351  -5.067  0.00  0.00    +0.005 A 
BRANCH  14  16
ATOM     16  C   UNL     1      -2.958  -1.751  -5.322  0.00  0.00    +0.113 C 
BRANCH  16  17
ATOM     17  S   UNL     1      -2.455  -2.563  -3.784  0.00  0.00    -0.081 S 
BRANCH  17  18
ATOM     18  C   UNL     1      -1.108  -3.532  -4.377  0.00  0.00    +0.189 A 
ATOM     19  N   UNL     1      -0.322  -4.368  -3.637  0.00  0.00    -0.323 N 
ATOM     20  H   UNL     1      -0.391  -4.548  -2.686  0.00  0.00    +0.169 HD
ATOM     21  C   UNL     1       0.580  -4.902  -4.515  0.00  0.00    +0.222 A 
ATOM     22  N   UNL     1       0.329  -4.392  -5.688  0.00  0.00    -0.137 NA
ATOM     23  N   UNL     1      -0.667  -3.583  -5.612  0.00  0.00    -0.123 NA
ENDBRANCH  17  18
ENDBRANCH  16  17
ENDBRANCH  14  16
ENDBRANCH   1  13
BRANCH   8  24
ATOM     24  C   UNL     1      -0.344   1.850   0.134  0.00  0.00    -0.015 C 
BRANCH  24  25
ATOM     25  C   UNL     1      -1.134   2.510   1.234  0.00  0.00    +0.063 A 
ATOM     26  N   UNL     1      -2.132   2.024   1.916  0.00  0.00    -0.246 NA
ATOM     27  C   UNL     1      -2.758   2.725   2.884  0.00  0.00    +0.078 A 
ATOM     28  C   UNL     1      -3.843   2.340   3.703  0.00  0.00    +0.029 A 
ATOM     29  C   UNL     1      -4.346   3.192   4.636  0.00  0.00    +0.002 A 
ATOM     30  C   UNL     1      -3.819   4.463   4.821  0.00  0.00    +0.001 A 
ATOM     31  C   UNL     1      -2.756   4.878   4.040  0.00  0.00    +0.017 A 
ATOM     32  C   UNL     1      -2.241   4.024   3.095  0.00  0.00    +0.039 A 
ATOM     33  S   UNL     1      -0.928   4.099   1.903  0.00  0.00    -0.074 S 
ENDBRANCH  24  25
ENDBRANCH   8  24
TORSDOF 6
