REMARK  Name = ZINC22571862
REMARK  12 active torsions:
REMARK  status: ('A' for Active; 'I' for Inactive)
REMARK    1  A    between atoms: C_1  and  C_2
REMARK    2  A    between atoms: C_2  and  C_3
REMARK    3  A    between atoms: C_2  and  C_4
REMARK    4  A    between atoms: C_4  and  C_6
REMARK    5  A    between atoms: C_4  and  O_12
REMARK    6  A    between atoms: O_12  and  C_13
REMARK    7  A    between atoms: C_13  and  C_15
REMARK    8  A    between atoms: C_16  and  C_17
REMARK    9  A    between atoms: C_20  and  S_23
REMARK   10  A    between atoms: S_23  and  N_26
REMARK   11  A    between atoms: N_26  and  C_27
REMARK   12  A    between atoms: C_27  and  C_28
REMARK                            x       y       z     vdW  Elec       q    Type
REMARK                         _______ _______ _______ _____ _____    ______ ____
ROOT
ATOM      1  C   UNL     1       3.631   1.776  -0.023  0.00  0.00    +0.092 C 
ATOM      2  C   UNL     1       2.475   1.081  -0.016  0.00  0.00    +0.015 C 
ENDROOT
BRANCH   2   3
ATOM      3  C   UNL     1       1.188   1.793   0.000  0.00  0.00    -0.025 A 
ATOM      4  C   UNL     1      -0.013   1.076   0.008  0.00  0.00    +0.010 A 
ATOM      5  C   UNL     1      -1.215   1.751   0.017  0.00  0.00    +0.029 A 
ATOM      6  C   UNL     1      -1.236   3.135   0.030  0.00  0.00    +0.105 A 
ATOM      7  C   UNL     1      -0.052   3.852   0.022  0.00  0.00    +0.029 A 
ATOM      8  C   UNL     1       1.158   3.192   0.008  0.00  0.00    +0.010 A 
BRANCH   6   9
ATOM      9  S   UNL     1      -2.777   3.988   0.050  0.00  0.00    +0.059 S 
ATOM     10  O   UNL     1      -3.730   3.092   0.605  0.00  0.00    -0.153 OA
ATOM     11  O   UNL     1      -2.524   5.271   0.604  0.00  0.00    -0.153 OA
BRANCH   9  12
ATOM     12  N   UNL     1      -3.221   4.233  -1.527  0.00  0.00    -0.183 NA
ATOM     13  H   UNL     1      -3.124   5.238  -1.963  0.00  0.00    +0.148 HD
BRANCH  12  14
ATOM     14  C   UNL     1      -3.527   3.088  -2.388  0.00  0.00    +0.180 C 
BRANCH  14  15
ATOM     15  C   UNL     1      -4.244   3.567  -3.624  0.00  0.00    +0.120 A 
ATOM     16  C   UNL     1      -3.660   3.942  -4.777  0.00  0.00    +0.046 A 
ATOM     17  C   UNL     1      -4.700   4.314  -5.660  0.00  0.00    +0.041 A 
ATOM     18  C   UNL     1      -5.856   4.144  -4.995  0.00  0.00    +0.195 A 
ATOM     19  O   UNL     1      -5.575   3.686  -3.764  0.00  0.00    -0.466 OA
ENDBRANCH  14  15
ENDBRANCH  12  14
ENDBRANCH   9  12
ENDBRANCH   6   9
ENDBRANCH   2   3
BRANCH   1  20
ATOM     20  C   UNL     1       4.911   1.068  -0.039  0.00  0.00    +0.333 C 
ATOM     21  O   UNL     1       4.933  -0.148  -0.046  0.00  0.00    -0.246 OA
BRANCH  20  22
ATOM     22  O   UNL     1       6.067   1.764  -0.046  0.00  0.00    -0.449 OA
BRANCH  22  23
ATOM     23  C   UNL     1       7.279   1.008  -0.062  0.00  0.00    +0.265 C 
BRANCH  23  24
ATOM     24  C   UNL     1       8.350   1.789  -0.778  0.00  0.00    +0.261 C 
ATOM     25  O   UNL     1       8.127   2.921  -1.151  0.00  0.00    -0.271 OA
ATOM     26  N   UNL     1       9.555   1.230  -1.005  0.00  0.00    -0.237 N 
ATOM     27  C   UNL     1      10.512   1.929  -1.646  0.00  0.00    +0.303 C 
ATOM     28  O   UNL     1      10.289   3.064  -2.019  0.00  0.00    -0.253 OA
ATOM     29  N   UNL     1      11.718   1.370  -1.872  0.00  0.00    -0.313 N 
ATOM     30  H   UNL     1       9.757   0.203  -0.667  0.00  0.00    +0.159 HD
ATOM     31  H   UNL     1      12.499   1.941  -2.395  0.00  0.00    +0.146 HD
ATOM     32  H   UNL     1      11.920   0.343  -1.534  0.00  0.00    +0.146 HD
ENDBRANCH  23  24
BRANCH  23  34
ATOM     33  C   UNL     1       7.841   2.051   2.138  0.00  0.00    +0.011 C 
ATOM     34  C   UNL     1       7.725   0.730   1.375  0.00  0.00    +0.033 C 
ATOM     35  C   UNL     1       6.697  -0.169   2.064  0.00  0.00    +0.011 C 
ENDBRANCH  23  34
ENDBRANCH  22  23
ENDBRANCH  20  22
ENDBRANCH   1  20
TORSDOF 10
