REMARK  Name = ZINC40825268
REMARK  9 active torsions:
REMARK  status: ('A' for Active; 'I' for Inactive)
REMARK    1  A    between atoms: C_1  and  C_2
REMARK    2  A    between atoms: C_6  and  C_7
REMARK    3  A    between atoms: N_9  and  N_10
REMARK    4  A    between atoms: C_11  and  C_13
REMARK    5  A    between atoms: C_17  and  C_18
REMARK    6  A    between atoms: N_23  and  N_24
REMARK    7  A    between atoms: N_24  and  C_25
REMARK    8  A    between atoms: C_25  and  N_27
REMARK    9  A    between atoms: N_27  and  C_28
REMARK                            x       y       z     vdW  Elec       q    Type
REMARK                         _______ _______ _______ _____ _____    ______ ____
ROOT
ATOM      1  C   UNL     1       0.977   1.488  -0.302  0.00  0.00    +0.048 C 
ATOM      2  C   UNL     1       0.819  -0.009  -0.236  0.00  0.00    +0.009 A 
ATOM      3  C   UNL     1       0.382  -0.853  -1.264  0.00  0.00    +0.042 A 
ATOM      4  C   UNL     1       0.387  -2.138  -0.773  0.00  0.00    +0.115 A 
ATOM      5  O   UNL     1       0.807  -2.094   0.489  0.00  0.00    -0.454 OA
ATOM      6  C   UNL     1       1.079  -0.815   0.836  0.00  0.00    +0.194 A 
ATOM      7  C   UNL     1      -0.030  -3.331  -1.595  0.00  0.00    +0.075 C 
ATOM      8  C   UNL     1      -0.900  -2.864  -2.765  0.00  0.00    +0.014 C 
ATOM      9  C   UNL     1      -0.191  -1.762  -3.559  0.00  0.00    +0.058 C 
ATOM     10  C   UNL     1      -0.032  -0.550  -2.652  0.00  0.00    +0.070 C 
ATOM     11  N   UNL     1      -0.244   0.661  -3.067  0.00  0.00    -0.185 NA
ENDROOT
BRANCH   6  12
ATOM     12  C   UNL     1       1.568  -0.369   2.145  0.00  0.00    +0.296 C 
ATOM     13  O   UNL     1       1.776   0.813   2.346  0.00  0.00    -0.265 OA
ATOM     14  N   UNL     1       1.787  -1.267   3.126  0.00  0.00    -0.228 N 
ATOM     15  H   UNL     1       1.621  -2.210   2.966  0.00  0.00    +0.173 HD
BRANCH  14  16
ATOM     16  N   UNL     1       2.254  -0.841   4.376  0.00  0.00    -0.230 N 
ATOM     17  C   UNL     1       2.473  -1.740   5.356  0.00  0.00    +0.263 C 
ATOM     18  O   UNL     1       2.264  -2.921   5.155  0.00  0.00    -0.269 OA
ATOM     19  H   UNL     1       2.420   0.101   4.536  0.00  0.00    +0.173 HD
BRANCH  17  20
ATOM     20  C   UNL     1       2.964  -1.291   6.671  0.00  0.00    +0.079 A 
ATOM     21  C   UNL     1       3.260   0.088   7.086  0.00  0.00    +0.054 A 
ATOM     22  C   UNL     1       3.676   0.009   8.359  0.00  0.00    +0.196 A 
ATOM     23  O   UNL     1       3.660  -1.276   8.748  0.00  0.00    -0.467 OA
ATOM     24  C   UNL     1       3.233  -2.068   7.760  0.00  0.00    +0.114 A 
ATOM     25  C   UNL     1       3.078  -3.565   7.834  0.00  0.00    +0.087 C 
ENDBRANCH  17  20
ENDBRANCH  14  16
ENDBRANCH   6  12
BRANCH  11  26
ATOM     26  N   UNL     1      -0.634   0.890  -4.392  0.00  0.00    -0.218 N 
ATOM     27  H   UNL     1      -0.746   0.143  -5.001  0.00  0.00    +0.176 HD
BRANCH  26  28
ATOM     28  C   UNL     1      -0.854   2.148  -4.823  0.00  0.00    +0.154 C 
ATOM     29  S   UNL     1      -1.331   2.428  -6.443  0.00  0.00    -0.017 S 
BRANCH  28  30
ATOM     30  N   UNL     1      -0.698   3.187  -3.977  0.00  0.00    -0.296 N 
ATOM     31  H   UNL     1      -0.488   3.025  -3.044  0.00  0.00    +0.154 HD
BRANCH  30  32
ATOM     32  C   UNL     1      -0.839   4.497  -4.445  0.00  0.00    +0.033 A 
ATOM     33  C   UNL     1      -1.909   4.832  -5.266  0.00  0.00    +0.023 A 
ATOM     34  C   UNL     1      -2.046   6.126  -5.726  0.00  0.00    +0.002 A 
ATOM     35  C   UNL     1      -1.118   7.089  -5.372  0.00  0.00    +0.000 A 
ATOM     36  C   UNL     1      -0.052   6.759  -4.556  0.00  0.00    +0.002 A 
ATOM     37  C   UNL     1       0.087   5.468  -4.087  0.00  0.00    +0.023 A 
ENDBRANCH  30  32
ENDBRANCH  28  30
ENDBRANCH  26  28
ENDBRANCH  11  26
TORSDOF 7
