REMARK  Name = ZINC39990762
REMARK  7 active torsions:
REMARK  status: ('A' for Active; 'I' for Inactive)
REMARK    1  A    between atoms: C_1  and  C_2
REMARK    2  A    between atoms: C_4  and  C_12
REMARK    3  A    between atoms: C_12  and  C_14
REMARK    4  A    between atoms: C_14  and  C_16
REMARK    5  A    between atoms: C_14  and  S_17
REMARK    6  A    between atoms: S_17  and  C_18
REMARK    7  A    between atoms: C_20  and  N_25
REMARK                            x       y       z     vdW  Elec       q    Type
REMARK                         _______ _______ _______ _____ _____    ______ ____
ROOT
ATOM      1  C   UNL     1       1.283  -0.772  -3.678  0.00  0.00    +0.122 C 
ATOM      2  C   UNL     1       2.444   0.209  -3.856  0.00  0.00    +0.028 C 
ENDROOT
BRANCH   1   3
ATOM      3  C   UNL     1       0.379  -0.286  -2.575  0.00  0.00    +0.175 C 
ATOM      4  O   UNL     1      -0.603   0.377  -2.843  0.00  0.00    -0.291 OA
BRANCH   3   7
ATOM      5  C   UNL     1      -0.379   1.207   0.131  0.00  0.00    +0.035 C 
ATOM      6  C   UNL     1      -0.178  -0.303  -0.015  0.00  0.00    +0.111 C 
ATOM      7  C   UNL     1       0.673  -0.599  -1.231  0.00  0.00    +0.027 C 
ATOM      8  C   UNL     1       1.798  -1.243  -0.749  0.00  0.00    +0.006 A 
ATOM      9  C   UNL     1       2.951  -1.768  -1.380  0.00  0.00    +0.010 A 
ATOM     10  C   UNL     1       3.919  -2.361  -0.646  0.00  0.00    +0.001 A 
ATOM     11  C   UNL     1       3.837  -2.485   0.750  0.00  0.00    +0.002 A 
ATOM     12  C   UNL     1       2.779  -2.018   1.448  0.00  0.00    +0.026 A 
ATOM     13  C   UNL     1       1.679  -1.358   0.725  0.00  0.00    +0.043 A 
ATOM     14  N   UNL     1       0.562  -0.827   1.137  0.00  0.00    -0.377 N 
ATOM     15  H   UNL     1       0.267  -0.785   2.060  0.00  0.00    +0.160 HD
ENDBRANCH   3   7
ENDBRANCH   1   3
BRANCH   1  16
ATOM     16  S   UNL     1       0.344  -0.885  -5.225  0.00  0.00    -0.077 S 
BRANCH  16  17
ATOM     17  C   UNL     1       1.483  -1.598  -6.365  0.00  0.00    +0.171 A 
ATOM     18  N   UNL     1       2.696  -1.907  -5.956  0.00  0.00    -0.209 NA
ATOM     19  C   UNL     1       3.590  -2.450  -6.790  0.00  0.00    +0.124 A 
ATOM     20  C   UNL     1       3.240  -2.696  -8.110  0.00  0.00    +0.113 A 
ATOM     21  C   UNL     1       1.950  -2.365  -8.536  0.00  0.00    +0.254 A 
ATOM     22  N   UNL     1       1.089  -1.825  -7.649  0.00  0.00    -0.302 N 
ATOM     23  O   UNL     1       1.607  -2.567  -9.691  0.00  0.00    -0.268 OA
ATOM     24  H   UNL     1       0.189  -1.593  -7.927  0.00  0.00    +0.171 HD
BRANCH  19  25
ATOM     25  N   UNL     1       4.856  -2.765  -6.339  0.00  0.00    -0.343 N 
ATOM     26  H   UNL     1       5.099  -2.592  -5.416  0.00  0.00    +0.144 HD
ATOM     27  H   UNL     1       5.503  -3.159  -6.945  0.00  0.00    +0.144 HD
ENDBRANCH  19  25
ENDBRANCH  16  17
ENDBRANCH   1  16
TORSDOF 5
