REMARK  Name = ZINC06589262
REMARK  6 active torsions:
REMARK  status: ('A' for Active; 'I' for Inactive)
REMARK    1  A    between atoms: C_1  and  C_2
REMARK    2  A    between atoms: C_2  and  C_3
REMARK    3  A    between atoms: C_3  and  C_24
REMARK    4  A    between atoms: N_6  and  C_10
REMARK    5  A    between atoms: C_10  and  C_11
REMARK    6  A    between atoms: N_16  and  C_17
REMARK                            x       y       z     vdW  Elec       q    Type
REMARK                         _______ _______ _______ _____ _____    ______ ____
ROOT
ATOM      1  C   UNL     1       4.093  -0.358  -0.620  0.00  0.00    +0.138 C 
ATOM      2  C   UNL     1       2.986   0.565  -1.091  0.00  0.00    +0.251 C 
ATOM      3  O   UNL     1       2.685   0.822  -2.237  0.00  0.00    -0.272 OA
ATOM      4  N   UNL     1       2.406   1.040   0.028  0.00  0.00    -0.215 N 
ATOM      5  C   UNL     1       2.990   0.554   1.130  0.00  0.00    +0.310 C 
ATOM      6  O   UNL     1       2.644   0.841   2.260  0.00  0.00    -0.252 OA
ATOM      7  N   UNL     1       3.999  -0.290   0.848  0.00  0.00    -0.281 N 
ATOM      8  H   UNL     1       4.558  -0.758   1.487  0.00  0.00    +0.152 HD
ENDROOT
BRANCH   1   9
ATOM      9  C   UNL     1       5.435   0.138  -1.093  0.00  0.00    -0.015 A 
ATOM     10  C   UNL     1       5.946  -0.296  -2.301  0.00  0.00    +0.006 A 
ATOM     11  C   UNL     1       7.175   0.163  -2.737  0.00  0.00    +0.000 A 
ATOM     12  C   UNL     1       7.897   1.049  -1.960  0.00  0.00    +0.000 A 
ATOM     13  C   UNL     1       7.388   1.479  -0.749  0.00  0.00    +0.000 A 
ATOM     14  C   UNL     1       6.157   1.024  -0.315  0.00  0.00    +0.006 A 
ENDBRANCH   1   9
BRANCH   1  16
ATOM     15  C   UNL     1       2.503  -2.285  -0.573  0.00  0.00    +0.007 C 
ATOM     16  C   UNL     1       3.846  -1.787  -1.109  0.00  0.00    +0.037 C 
ENDBRANCH   1  16
BRANCH   4  17
ATOM     17  C   UNL     1       1.280   1.977   0.038  0.00  0.00    +0.214 C 
BRANCH  17  18
ATOM     18  C   UNL     1      -0.015   1.206   0.034  0.00  0.00    +0.238 C 
ATOM     19  O   UNL     1       0.001  -0.006   0.024  0.00  0.00    -0.274 OA
ATOM     20  N   UNL     1      -1.191   1.865   0.036  0.00  0.00    -0.239 N 
ATOM     21  C   UNL     1      -2.349   1.176   0.027  0.00  0.00    +0.310 C 
ATOM     22  O   UNL     1      -2.333  -0.039   0.017  0.00  0.00    -0.252 OA
ATOM     23  N   UNL     1      -3.525   1.834   0.029  0.00  0.00    -0.267 N 
ATOM     24  H   UNL     1      -1.203   2.835   0.044  0.00  0.00    +0.159 HD
ATOM     25  H   UNL     1      -3.539   2.801   0.102  0.00  0.00    +0.156 HD
BRANCH  23  26
ATOM     26  C   UNL     1      -4.726   1.122  -0.075  0.00  0.00    +0.070 A 
ATOM     27  C   UNL     1      -4.845  -0.131   0.509  0.00  0.00    +0.026 A 
ATOM     28  C   UNL     1      -6.032  -0.831   0.406  0.00  0.00    +0.002 A 
ATOM     29  C   UNL     1      -7.101  -0.285  -0.279  0.00  0.00    +0.003 A 
ATOM     30  C   UNL     1      -6.988   0.963  -0.863  0.00  0.00    +0.040 A 
ATOM     31  C   UNL     1      -5.805   1.672  -0.759  0.00  0.00    +0.145 A 
ATOM     32  F   UNL     1      -5.696   2.893  -1.325  0.00  0.00    -0.204 F 
ENDBRANCH  23  26
ENDBRANCH  17  18
ENDBRANCH   4  17
TORSDOF 5
