REMARK  Name = ZINC67055553
REMARK  5 active torsions:
REMARK  status: ('A' for Active; 'I' for Inactive)
REMARK    1  A    between atoms: C_1  and  C_2
REMARK    2  A    between atoms: C_2  and  C_9
REMARK    3  A    between atoms: C_13  and  N_15
REMARK    4  A    between atoms: C_16  and  C_18
REMARK    5  A    between atoms: C_21  and  C_23
REMARK                            x       y       z     vdW  Elec       q    Type
REMARK                         _______ _______ _______ _____ _____    ______ ____
ROOT
ATOM      1  C   UNL     1       0.660  -0.532  -1.256  0.00  0.00    -0.014 A 
ATOM      2  C   UNL     1       1.777  -1.345  -1.176  0.00  0.00    +0.006 A 
ATOM      3  C   UNL     1       2.376  -1.818  -2.329  0.00  0.00    +0.002 A 
ATOM      4  C   UNL     1       1.861  -1.480  -3.565  0.00  0.00    +0.023 A 
ATOM      5  C   UNL     1       0.740  -0.664  -3.649  0.00  0.00    +0.034 A 
ATOM      6  C   UNL     1       0.138  -0.195  -2.489  0.00  0.00    +0.029 A 
ENDROOT
BRANCH   1   8
ATOM      7  C   UNL     1      -0.000   1.510   0.017  0.00  0.00    +0.047 C 
ATOM      8  C   UNL     1       0.011  -0.020   0.003  0.00  0.00    +0.135 C 
ATOM      9  C   UNL     1      -1.397  -0.564   0.141  0.00  0.00    +0.248 C 
ATOM     10  O   UNL     1      -2.327  -0.390  -0.618  0.00  0.00    -0.273 OA
ATOM     11  N   UNL     1      -1.401  -1.283   1.281  0.00  0.00    -0.238 N 
ATOM     12  C   UNL     1      -0.203  -1.268   1.877  0.00  0.00    +0.307 C 
ATOM     13  O   UNL     1       0.040  -1.845   2.918  0.00  0.00    -0.252 OA
ATOM     14  N   UNL     1       0.702  -0.544   1.194  0.00  0.00    -0.282 N 
ATOM     15  H   UNL     1      -2.176  -1.752   1.627  0.00  0.00    +0.159 HD
ATOM     16  H   UNL     1       1.629  -0.396   1.438  0.00  0.00    +0.152 HD
ENDBRANCH   1   8
BRANCH   5  17
ATOM     17  N   UNL     1       0.216  -0.319  -4.900  0.00  0.00    -0.285 N 
ATOM     18  C   UNL     1       1.043  -0.124  -5.946  0.00  0.00    +0.221 C 
ATOM     19  O   UNL     1       2.232  -0.328  -5.825  0.00  0.00    -0.275 OA
ATOM     20  H   UNL     1      -0.742  -0.221  -5.014  0.00  0.00    +0.155 HD
BRANCH  18  21
ATOM     21  C   UNL     1       0.489   0.349  -7.266  0.00  0.00    +0.083 C 
ATOM     22  C   UNL     1       0.852   1.764  -7.718  0.00  0.00    +0.022 C 
ATOM     23  C   UNL     1       1.479   0.554  -8.414  0.00  0.00    +0.032 C 
BRANCH  23  24
ATOM     24  C   UNL     1       1.005   0.230  -9.807  0.00  0.00    -0.041 A 
ATOM     25  C   UNL     1      -0.077   0.904 -10.343  0.00  0.00    +0.004 A 
ATOM     26  C   UNL     1      -0.513   0.608 -11.621  0.00  0.00    +0.003 A 
ATOM     27  C   UNL     1       0.132  -0.362 -12.365  0.00  0.00    +0.038 A 
ATOM     28  C   UNL     1       1.216  -1.037 -11.829  0.00  0.00    +0.124 A 
ATOM     29  C   UNL     1       1.655  -0.736 -10.551  0.00  0.00    +0.042 A 
ATOM     30  F   UNL     1       1.847  -1.986 -12.555  0.00  0.00    -0.205 F 
ENDBRANCH  23  24
ENDBRANCH  18  21
ENDBRANCH   5  17
TORSDOF 4
