REMARK  Name = ZINC20874568
REMARK  11 active torsions:
REMARK  status: ('A' for Active; 'I' for Inactive)
REMARK    1  A    between atoms: C_1  and  C_2
REMARK    2  A    between atoms: C_2  and  CA_3
REMARK    3  A    between atoms: CA_3  and  C_5
REMARK    4  A    between atoms: CA_3  and  N_7
REMARK    5  A    between atoms: C_5  and  O_6
REMARK    6  A    between atoms: N_7  and  C_8
REMARK    7  A    between atoms: C_8  and  C_9
REMARK    8  A    between atoms: C_14  and  O_15
REMARK    9  A    between atoms: O_15  and  C_16
REMARK   10  A    between atoms: C_16  and  C_17
REMARK   11  A    between atoms: C_20  and  C_23
REMARK                            x       y       z     vdW  Elec       q    Type
REMARK                         _______ _______ _______ _____ _____    ______ ____
ROOT
ATOM      1  C   UNL     1      -3.377   3.243   2.842  0.00  0.00    -0.022 A 
ATOM      2  C   UNL     1      -4.568   3.917   3.031  0.00  0.00    +0.020 A 
ATOM      3  C   UNL     1      -5.308   4.333   1.939  0.00  0.00    +0.018 A 
ATOM      4  C   UNL     1      -4.854   4.082   0.656  0.00  0.00    +0.019 A 
ATOM      5  C   UNL     1      -3.660   3.415   0.464  0.00  0.00    +0.047 A 
ATOM      6  C   UNL     1      -2.916   2.996   1.558  0.00  0.00    +0.122 A 
ATOM      7 BR   UNL     1      -6.942   5.248   2.199  0.00  0.00    -0.050 Br
ENDROOT
BRANCH   1   8
ATOM      8  C   UNL     1      -2.574   2.783   4.032  0.00  0.00    -0.043 C 
BRANCH   8   9
ATOM      9  N   UNL     1      -1.480   3.732   4.281  0.00  0.00    +0.385 N 
ATOM     10  H1  UNL     1      -1.912   4.725   4.474  0.00  0.00    -0.085 HD
ATOM     11  H2  UNL     1      -0.842   3.776   3.387  0.00  0.00    -0.085 HD
BRANCH   9  12
ATOM     12  CA  UNL     1      -0.675   3.314   5.437  0.00  0.00    -0.046 C 
BRANCH  12  14
ATOM     13  C   UNL     1      -1.051   5.485   6.616  0.00  0.00    +0.002 C 
ATOM     14  C   UNL     1       0.009   4.538   6.050  0.00  0.00    -0.017 C 
ENDBRANCH  12  14
BRANCH  12  15
ATOM     15  C   UNL     1       0.387   2.310   4.983  0.00  0.00    +0.140 C 
BRANCH  15  16
ATOM     16  O   UNL     1       1.303   2.954   4.096  0.00  0.00    -0.397 OA
ATOM     17  H   UNL     1       2.141   2.388   3.664  0.00  0.00    +0.209 HD
ENDBRANCH  15  16
ENDBRANCH  12  15
ENDBRANCH   9  12
ENDBRANCH   8   9
ENDBRANCH   1   8
BRANCH   6  18
ATOM     18  O   UNL     1      -1.741   2.339   1.370  0.00  0.00    -0.487 OA
BRANCH  18  19
ATOM     19  C   UNL     1      -1.332   2.114   0.020  0.00  0.00    +0.264 C 
BRANCH  19  20
ATOM     20  C   UNL     1      -0.017   1.378   0.010  0.00  0.00    -0.010 A 
ATOM     21  C   UNL     1       1.171   2.086   0.002  0.00  0.00    +0.007 A 
ATOM     22  C   UNL     1       2.377   1.411  -0.015  0.00  0.00    +0.004 A 
ATOM     23  C   UNL     1       2.396   0.029  -0.022  0.00  0.00    -0.050 A 
ATOM     24  C   UNL     1       1.208  -0.679  -0.013  0.00  0.00    +0.004 A 
ATOM     25  C   UNL     1       0.002  -0.004   0.002  0.00  0.00    +0.007 A 
ATOM     26  C   UNL     1       3.711  -0.707  -0.038  0.00  0.00    +0.044 C 
ENDBRANCH  19  20
ENDBRANCH  18  19
ENDBRANCH   6  18
TORSDOF 9
