REMARK  Name = ZINC04195418
REMARK  9 active torsions:
REMARK  status: ('A' for Active; 'I' for Inactive)
REMARK    1  A    between atoms: C_3  and  C_6
REMARK    2  A    between atoms: C_6  and  N_7
REMARK    3  A    between atoms: C_11  and  C_13
REMARK    4  A    between atoms: C_13  and  O_14
REMARK    5  A    between atoms: O_14  and  C_15
REMARK    6  A    between atoms: C_15  and  C_17
REMARK    7  A    between atoms: C_17  and  C_18
REMARK    8  A    between atoms: C_18  and  C_20
REMARK    9  A    between atoms: C_18  and  N_27
REMARK                            x       y       z     vdW  Elec       q    Type
REMARK                         _______ _______ _______ _____ _____    ______ ____
ROOT
ATOM      1  C   UNL     1       9.629   0.332   5.881  0.00  0.00    +0.310 C 
ATOM      2  O   UNL     1       9.095   0.318   6.965  0.00  0.00    -0.251 OA
ENDROOT
BRANCH   1   3
ATOM      3  O   UNL     1       8.883   0.305   4.766  0.00  0.00    -0.455 OA
BRANCH   3   4
ATOM      4  C   UNL     1       7.465   0.260   4.935  0.00  0.00    +0.328 C 
BRANCH   4   9
ATOM      5  N   UNL     1       3.515   0.126   2.198  0.00  0.00    -0.292 N 
ATOM      6  C   UNL     1       4.859   0.169   2.286  0.00  0.00    +0.306 C 
ATOM      7  O   UNL     1       5.534   0.187   1.276  0.00  0.00    -0.252 OA
ATOM      8  N   UNL     1       5.455   0.192   3.495  0.00  0.00    -0.237 N 
ATOM      9  C   UNL     1       6.799   0.235   3.583  0.00  0.00    +0.258 C 
ATOM     10  O   UNL     1       7.472   0.253   2.575  0.00  0.00    -0.272 OA
ATOM     11  H   UNL     1       2.976   0.111   3.005  0.00  0.00    +0.151 HD
ATOM     12  H   UNL     1       4.916   0.177   4.301  0.00  0.00    +0.159 HD
BRANCH   5  13
ATOM     13  C   UNL     1       2.867   0.101   0.884  0.00  0.00    +0.180 C 
BRANCH  13  16
ATOM     14  C   UNL     1      -0.757   0.620   1.310  0.00  0.00    +0.041 A 
ATOM     15  C   UNL     1       0.556   1.120   1.151  0.00  0.00    +0.046 A 
ATOM     16  C   UNL     1       1.371   0.054   1.062  0.00  0.00    +0.122 A 
ATOM     17  O   UNL     1       0.626  -1.059   1.158  0.00  0.00    -0.466 OA
ATOM     18  C   UNL     1      -0.665  -0.722   1.308  0.00  0.00    +0.195 A 
ENDBRANCH  13  16
ENDBRANCH   5  13
ENDBRANCH   4   9
ENDBRANCH   3   4
ENDBRANCH   1   3
BRANCH   1  19
ATOM     19  C   UNL     1      11.132   0.379   5.782  0.00  0.00    +0.147 C 
BRANCH  19  20
ATOM     20  C   UNL     1      11.735   0.403   7.188  0.00  0.00    +0.115 C 
BRANCH  20  21
ATOM     21  C   UNL     1      13.237   0.327   7.091  0.00  0.00    -0.027 A 
ATOM     22  C   UNL     1      13.960   1.431   6.682  0.00  0.00    +0.007 A 
ATOM     23  C   UNL     1      15.338   1.362   6.593  0.00  0.00    +0.020 A 
ATOM     24  C   UNL     1      15.993   0.186   6.913  0.00  0.00    +0.041 A 
ATOM     25  C   UNL     1      15.269  -0.919   7.323  0.00  0.00    +0.020 A 
ATOM     26  C   UNL     1      13.892  -0.847   7.417  0.00  0.00    +0.007 A 
ATOM     27 CL   UNL     1      17.723   0.098   6.801  0.00  0.00    -0.084 Cl
ENDBRANCH  20  21
BRANCH  20  28
ATOM     28  N   UNL     1      11.352   1.645   7.863  0.00  0.00    -0.292 N 
ATOM     29  C   UNL     1      11.290   1.690   9.209  0.00  0.00    +0.298 C 
ATOM     30  O   UNL     1      11.639   0.728   9.865  0.00  0.00    -0.253 OA
ATOM     31  N   UNL     1      10.841   2.800   9.826  0.00  0.00    -0.313 N 
ATOM     32  H   UNL     1      11.143   2.436   7.342  0.00  0.00    +0.151 HD
ATOM     33  H   UNL     1      10.563   3.568   9.303  0.00  0.00    +0.146 HD
ATOM     34  H   UNL     1      10.797   2.832  10.795  0.00  0.00    +0.146 HD
ENDBRANCH  20  28
ENDBRANCH  19  20
ENDBRANCH   1  19
TORSDOF 9
