REMARK  Name = ZINC17135995
REMARK  9 active torsions:
REMARK  status: ('A' for Active; 'I' for Inactive)
REMARK    1  A    between atoms: C_1  and  C_2
REMARK    2  A    between atoms: C_7  and  N_8
REMARK    3  A    between atoms: C_9  and  C_11
REMARK    4  A    between atoms: C_12  and  N_28
REMARK    5  A    between atoms: N_13  and  C_17
REMARK    6  A    between atoms: C_19  and  C_24
REMARK    7  A    between atoms: C_22  and  C_23
REMARK    8  A    between atoms: C_24  and  O_26
REMARK    9  A    between atoms: O_26  and  C_27
REMARK                            x       y       z     vdW  Elec       q    Type
REMARK                         _______ _______ _______ _____ _____    ______ ____
ROOT
ATOM      1  C   UNL     1       0.141   0.061  -4.795  0.00  0.00    +0.115 A 
ATOM      2  C   UNL     1       0.247  -0.415  -6.079  0.00  0.00    +0.121 A 
ATOM      3  N   UNL     1       0.303   0.487  -7.082  0.00  0.00    -0.285 N 
ATOM      4  C   UNL     1       0.265   1.807  -6.799  0.00  0.00    +0.132 A 
ATOM      5  S   UNL     1       0.327   3.134  -7.880  0.00  0.00    -0.024 S 
ATOM      6  S   UNL     1       0.138   1.825  -5.069  0.00  0.00    -0.055 S 
ENDROOT
BRANCH   3   7
ATOM      7  C   UNL     1       0.406   0.056  -8.411  0.00  0.00    +0.053 A 
ATOM      8  C   UNL     1       1.654  -0.137  -8.982  0.00  0.00    +0.041 A 
ATOM      9  C   UNL     1       1.751  -0.571 -10.305  0.00  0.00    +0.061 A 
ATOM     10  C   UNL     1       0.590  -0.800 -11.046  0.00  0.00    +0.015 A 
ATOM     11  C   UNL     1      -0.647  -0.601 -10.469  0.00  0.00    +0.006 A 
ATOM     12  C   UNL     1      -0.743  -0.174  -9.158  0.00  0.00    -0.026 A 
ATOM     13  C   UNL     1      -2.099   0.041  -8.535  0.00  0.00    +0.046 C 
BRANCH   9  14
ATOM     14  C   UNL     1       3.077  -0.784 -10.919  0.00  0.00    +0.339 C 
ATOM     15  O   UNL     1       4.086  -0.585 -10.272  0.00  0.00    -0.245 OA
BRANCH  14  16
ATOM     16  O   UNL     1       3.168  -1.200 -12.198  0.00  0.00    -0.464 OA
ATOM     17  C   UNL     1       4.504  -1.388 -12.736  0.00  0.00    +0.280 C 
ENDBRANCH  14  16
ENDBRANCH   9  14
ENDBRANCH   3   7
BRANCH   1  19
ATOM     18  N   UNL     1      -0.033   0.011  -2.412  0.00  0.00    -0.281 N 
ATOM     19  C   UNL     1       0.062  -0.654  -3.581  0.00  0.00    +0.258 C 
ATOM     20  O   UNL     1       0.078  -1.873  -3.589  0.00  0.00    -0.269 OA
ATOM     21  H   UNL     1      -0.127   0.976  -2.410  0.00  0.00    +0.155 HD
BRANCH  18  28
ATOM     22  C   UNL     1      -1.255   1.195  -0.132  0.00  0.00    +0.045 C 
ATOM     23  C   UNL     1      -0.579  -0.151  -0.066  0.00  0.00    -0.029 A 
ATOM     24  C   UNL     1      -0.545  -0.849   1.125  0.00  0.00    +0.005 A 
ATOM     25  C   UNL     1       0.075  -2.084   1.187  0.00  0.00    +0.000 A 
ATOM     26  C   UNL     1       0.663  -2.623   0.057  0.00  0.00    +0.002 A 
ATOM     27  C   UNL     1       0.632  -1.930  -1.137  0.00  0.00    +0.023 A 
ATOM     28  C   UNL     1       0.005  -0.692  -1.204  0.00  0.00    +0.037 A 
ENDBRANCH  18  28
ENDBRANCH   1  19
BRANCH   2  29
ATOM     29  N   UNL     1       0.290  -1.768  -6.335  0.00  0.00    -0.343 N 
ATOM     30  H   UNL     1       0.245  -2.402  -5.602  0.00  0.00    +0.144 HD
ATOM     31  H   UNL     1       0.365  -2.087  -7.248  0.00  0.00    +0.144 HD
ENDBRANCH   2  29
TORSDOF 6
