REMARK  Name = ZINC19435949
REMARK  3 active torsions:
REMARK  status: ('A' for Active; 'I' for Inactive)
REMARK    1  A    between atoms: C_1  and  C_2
REMARK    2  A    between atoms: C_7  and  N_8
REMARK    3  A    between atoms: C_9  and  C_11
REMARK                            x       y       z     vdW  Elec       q    Type
REMARK                         _______ _______ _______ _____ _____    ______ ____
ROOT
ATOM      1  N   UNL     1       3.299  -5.013   0.461  0.00  0.00    -0.282 N 
ATOM      2  C   UNL     1       2.323  -4.171   0.067  0.00  0.00    +0.260 C 
ATOM      3  O   UNL     1       1.376  -4.592  -0.562  0.00  0.00    -0.271 OA
ATOM      4  H   UNL     1       4.201  -4.618   0.951  0.00  0.00    +0.155 HD
ENDROOT
BRANCH   2   5
ATOM      5  C   UNL     1       2.409  -2.705   0.409  0.00  0.00    +0.276 C 
ATOM      6  C   UNL     1       3.604  -2.076  -0.322  0.00  0.00    +0.155 C 
ATOM      7  N   UNL     1       3.618  -0.639   0.003  0.00  0.00    -0.337 N 
ATOM      8  C   UNL     1       2.389   0.039   0.014  0.00  0.00    +0.070 A 
ATOM      9  C   UNL     1       2.360   1.425   0.030  0.00  0.00    +0.026 A 
ATOM     10  C   UNL     1       1.147   2.088   0.044  0.00  0.00    +0.002 A 
ATOM     11  C   UNL     1      -0.035   1.371   0.043  0.00  0.00    +0.004 A 
ATOM     12  C   UNL     1      -0.012  -0.011   0.026  0.00  0.00    +0.047 A 
ATOM     13  C   UNL     1       1.200  -0.685   0.011  0.00  0.00    +0.142 A 
ATOM     14  O   UNL     1       1.213  -2.045  -0.011  0.00  0.00    -0.476 OA
ATOM     15  H   UNL     1       4.569  -0.135   0.226  0.00  0.00    +0.146 HD
ENDBRANCH   2   5
BRANCH   1  22
ATOM     16  C   UNL     1       5.665  -6.585   0.297  0.00  0.00    +0.046 C 
ATOM     17  C   UNL     1       4.293  -7.193   0.159  0.00  0.00    -0.028 A 
ATOM     18  C   UNL     1       4.158  -8.551  -0.053  0.00  0.00    +0.020 A 
ATOM     19  C   UNL     1       2.899  -9.111  -0.179  0.00  0.00    +0.018 A 
ATOM     20  C   UNL     1       1.772  -8.312  -0.093  0.00  0.00    +0.017 A 
ATOM     21  C   UNL     1       1.901  -6.954   0.124  0.00  0.00    +0.024 A 
ATOM     22  C   UNL     1       3.164  -6.389   0.246  0.00  0.00    +0.036 A 
ATOM     23 BR   UNL     1       2.717 -10.970  -0.471  0.00  0.00    -0.050 Br
ENDBRANCH   1  22
TORSDOF 2
