REMARK  Name = ZINC45047586
REMARK  7 active torsions:
REMARK  status: ('A' for Active; 'I' for Inactive)
REMARK    1  A    between atoms: C_1  and  C_2
REMARK    2  A    between atoms: C_2  and  C_3
REMARK    3  A    between atoms: C_3  and  C_5
REMARK    4  A    between atoms: C_3  and  C_9
REMARK    5  A    between atoms: N_6  and  O_7
REMARK    6  A    between atoms: N_11  and  C_12
REMARK    7  A    between atoms: C_12  and  C_18
REMARK                            x       y       z     vdW  Elec       q    Type
REMARK                         _______ _______ _______ _____ _____    ______ ____
ROOT
ATOM      1  C   UNL     1       2.208  -0.296  -1.092  0.00  0.00    +0.224 C 
ATOM      2  O   UNL     1       3.021  -1.196  -1.121  0.00  0.00    -0.275 OA
ATOM      3  N   UNL     1       2.620   0.980  -0.963  0.00  0.00    -0.309 N 
ATOM      4  H   UNL     1       1.977   1.704  -1.010  0.00  0.00    +0.149 HD
ENDROOT
BRANCH   3   5
ATOM      5  C   UNL     1       4.040   1.274  -0.751  0.00  0.00    +0.032 C 
ATOM      6  C   UNL     1       4.852   0.741  -1.933  0.00  0.00    +0.025 C 
ATOM      7  C   UNL     1       4.379   1.415  -3.222  0.00  0.00    +0.002 C 
ATOM      8  C   UNL     1       4.575   2.929  -3.108  0.00  0.00    +0.000 C 
ATOM      9  C   UNL     1       3.762   3.461  -1.927  0.00  0.00    +0.002 C 
ATOM     10  C   UNL     1       4.236   2.787  -0.637  0.00  0.00    +0.025 C 
ATOM     11  C   UNL     1       4.513   0.600   0.539  0.00  0.00    +0.031 C 
ENDBRANCH   3   5
BRANCH   1  12
ATOM     12  C   UNL     1       0.737  -0.606  -1.201  0.00  0.00    +0.141 C 
BRANCH  12  13
ATOM     13  C   UNL     1       0.540  -1.794  -2.108  0.00  0.00    +0.144 C 
ATOM     14  N   UNL     1       0.438  -2.980  -1.606  0.00  0.00    -0.076 NA
ATOM     15  N   UNL     1       0.468  -1.615  -3.471  0.00  0.00    -0.343 N 
ATOM     16  H   UNL     1       0.545  -0.724  -3.848  0.00  0.00    +0.144 HD
ATOM     17  H   UNL     1       0.341  -2.379  -4.055  0.00  0.00    +0.144 HD
BRANCH  14  18
ATOM     18  O   UNL     1       0.252  -4.096  -2.458  0.00  0.00    -0.408 OA
ATOM     19  H   UNL     1       0.187  -4.940  -1.991  0.00  0.00    +0.328 HD
ENDBRANCH  14  18
ENDBRANCH  12  13
BRANCH  12  21
ATOM     20  C   UNL     1      -1.339  -1.096   0.100  0.00  0.00    +0.005 C 
ATOM     21  C   UNL     1       0.179  -0.926   0.187  0.00  0.00    +0.017 C 
ENDBRANCH  12  21
ENDBRANCH   1  12
TORSDOF 5
