REMARK  Name = ZINC18197683
REMARK  9 active torsions:
REMARK  status: ('A' for Active; 'I' for Inactive)
REMARK    1  A    between atoms: C_1  and  O_2
REMARK    2  A    between atoms: O_2  and  C_3
REMARK    3  A    between atoms: C_6  and  C_11
REMARK    4  A    between atoms: C_8  and  O_9
REMARK    5  A    between atoms: O_9  and  C_10
REMARK    6  A    between atoms: C_16  and  C_26
REMARK    7  A    between atoms: C_23  and  O_24
REMARK    8  A    between atoms: C_29  and  O_33
REMARK    9  A    between atoms: C_30  and  O_32
REMARK                            x       y       z     vdW  Elec       q    Type
REMARK                         _______ _______ _______ _____ _____    ______ ____
ROOT
ATOM      1  C   UNL     1       5.484   7.297   1.587  0.00  0.00    +0.032 C 
ATOM      2  C   UNL     1       5.457   6.174   2.625  0.00  0.00    +0.059 C 
ATOM      3  C   UNL     1       5.564   4.836   1.930  0.00  0.00    +0.017 C 
ATOM      4  C   UNL     1       5.050   4.656   0.694  0.00  0.00    +0.024 C 
ATOM      5  C   UNL     1       5.106   3.325  -0.024  0.00  0.00    +0.092 C 
ATOM      6  C   UNL     1       6.080   2.416   0.671  0.00  0.00    +0.067 A 
ATOM      7  C   UNL     1       6.572   2.686   1.921  0.00  0.00    +0.126 A 
ATOM      8  N   UNL     1       7.409   1.686   2.258  0.00  0.00    -0.260 N 
ATOM      9  H   UNL     1       7.917   1.606   3.115  0.00  0.00    +0.190 HD
ATOM     10  N   UNL     1       7.438   0.775   1.189  0.00  0.00    -0.134 NA
ATOM     11  C   UNL     1       6.641   1.217   0.242  0.00  0.00    +0.237 A 
ATOM     12  N   UNL     1       6.198   3.830   2.615  0.00  0.00    -0.303 N 
ATOM     13  C   UNL     1       4.428   5.716   0.011  0.00  0.00    +0.162 C 
ATOM     14  O   UNL     1       3.970   5.520  -1.098  0.00  0.00    -0.292 OA
ATOM     15  C   UNL     1       4.315   7.086   0.619  0.00  0.00    +0.088 C 
ATOM     16  H   UNL     1       6.381   3.916   3.564  0.00  0.00    +0.153 HD
ENDROOT
BRANCH   1  20
ATOM     17  C   UNL     1       5.064  11.075   3.546  0.00  0.00    +0.161 A 
ATOM     18  C   UNL     1       4.069  10.118   3.661  0.00  0.00    +0.049 A 
ATOM     19  C   UNL     1       4.205   8.900   3.022  0.00  0.00    +0.008 A 
ATOM     20  C   UNL     1       5.338   8.629   2.277  0.00  0.00    -0.040 A 
ATOM     21  C   UNL     1       6.334   9.580   2.158  0.00  0.00    +0.053 A 
ATOM     22  C   UNL     1       6.202  10.806   2.791  0.00  0.00    +0.162 A 
BRANCH  17  24
ATOM     23  C   UNL     1       3.736  12.484   4.927  0.00  0.00    +0.277 C 
ATOM     24  O   UNL     1       4.929  12.277   4.169  0.00  0.00    -0.491 OA
ENDBRANCH  17  24
BRANCH  22  25
ATOM     25  O   UNL     1       7.181  11.742   2.675  0.00  0.00    -0.491 OA
ATOM     26  C   UNL     1       8.319  11.396   1.884  0.00  0.00    +0.277 C 
ENDBRANCH  22  25
ENDBRANCH   1  20
BRANCH   5  27
ATOM     27  C   UNL     1       3.738   2.693  -0.018  0.00  0.00    -0.032 A 
ATOM     28  C   UNL     1       3.121   2.396   1.183  0.00  0.00    +0.008 A 
ATOM     29  C   UNL     1       1.863   1.823   1.193  0.00  0.00    +0.049 A 
ATOM     30  C   UNL     1       1.224   1.533  -0.001  0.00  0.00    +0.158 A 
ATOM     31  C   UNL     1       1.845   1.831  -1.210  0.00  0.00    +0.159 A 
ATOM     32  C   UNL     1       3.103   2.412  -1.214  0.00  0.00    +0.053 A 
BRANCH  31  33
ATOM     33  O   UNL     1       1.220   1.554  -2.385  0.00  0.00    -0.503 OA
ATOM     34  H   UNL     1       0.668   2.275  -2.717  0.00  0.00    +0.292 HD
ENDBRANCH  31  33
BRANCH  30  35
ATOM     35  O   UNL     1      -0.011   0.963   0.007  0.00  0.00    -0.503 OA
ATOM     36  H   UNL     1       0.002  -0.004   0.002  0.00  0.00    +0.292 HD
ENDBRANCH  30  35
ENDBRANCH   5  27
BRANCH  11  37
ATOM     37  O   UNL     1       6.405   0.608  -0.951  0.00  0.00    -0.491 OA
ATOM     38  H   UNL     1       6.934  -0.238  -1.003  0.00  0.00    +0.294 HD
ENDBRANCH  11  37
TORSDOF 7
