REMARK  Name = ZINC17222335
REMARK  11 active torsions:
REMARK  status: ('A' for Active; 'I' for Inactive)
REMARK    1  A    between atoms: C_1  and  C_2
REMARK    2  A    between atoms: C_7  and  N_8
REMARK    3  A    between atoms: C_9  and  C_11
REMARK    4  A    between atoms: C_11  and  C_32
REMARK    5  A    between atoms: C_12  and  N_13
REMARK    6  A    between atoms: N_13  and  C_14
REMARK    7  A    between atoms: C_14  and  N_16
REMARK    8  A    between atoms: N_16  and  C_17
REMARK    9  A    between atoms: C_20  and  S_23
REMARK   10  A    between atoms: S_23  and  N_26
REMARK   11  A    between atoms: C_32  and  C_34
REMARK                            x       y       z     vdW  Elec       q    Type
REMARK                         _______ _______ _______ _____ _____    ______ ____
ROOT
ATOM      1  C   UNL     1      -0.149   2.449  -1.302  0.00  0.00    +0.138 C 
ATOM      2  S   UNL     1      -1.254   3.755  -1.363  0.00  0.00    -0.018 S 
ENDROOT
BRANCH   1   3
ATOM      3  N   UNL     1       1.097   2.642  -0.823  0.00  0.00    -0.302 N 
ATOM      4  H   UNL     1       1.808   1.804  -0.788  0.00  0.00    +0.153 HD
BRANCH   3   6
ATOM      5  C   UNL     1       2.779   4.095   0.009  0.00  0.00    +0.093 C 
ATOM      6  C   UNL     1       1.473   3.872  -0.385  0.00  0.00    +0.090 C 
BRANCH   5   8
ATOM      7  N   UNL     1       4.504   5.679   0.698  0.00  0.00    -0.281 N 
ATOM      8  C   UNL     1       3.218   5.453   0.361  0.00  0.00    +0.253 C 
ATOM      9  O   UNL     1       2.422   6.373   0.349  0.00  0.00    -0.270 OA
ATOM     10  H   UNL     1       5.241   4.865   0.633  0.00  0.00    +0.155 HD
BRANCH   7  17
ATOM     11  C   UNL     1       7.233   6.417   0.371  0.00  0.00    +0.045 C 
ATOM     12  C   UNL     1       6.223   7.350   0.989  0.00  0.00    -0.029 A 
ATOM     13  C   UNL     1       6.612   8.605   1.415  0.00  0.00    +0.005 A 
ATOM     14  C   UNL     1       5.686   9.462   1.981  0.00  0.00    +0.000 A 
ATOM     15  C   UNL     1       4.368   9.066   2.122  0.00  0.00    +0.002 A 
ATOM     16  C   UNL     1       3.972   7.814   1.693  0.00  0.00    +0.023 A 
ATOM     17  C   UNL     1       4.901   6.949   1.129  0.00  0.00    +0.037 A 
ENDBRANCH   7  17
ENDBRANCH   5   8
BRANCH   5  18
ATOM     18  C   UNL     1       3.694   3.014   0.074  0.00  0.00    +0.166 C 
ATOM     19  O   UNL     1       3.500   2.100   0.849  0.00  0.00    -0.292 OA
ATOM     20  C   UNL     1       4.908   3.001  -0.819  0.00  0.00    +0.092 C 
ENDBRANCH   5  18
ENDBRANCH   3   6
ENDBRANCH   1   3
BRANCH   1  21
ATOM     21  N   UNL     1      -0.522   1.229  -1.737  0.00  0.00    -0.297 N 
ATOM     22  H   UNL     1       0.212   0.412  -1.779  0.00  0.00    +0.154 HD
BRANCH  21  23
ATOM     23  C   UNL     1      -1.844   1.004  -2.135  0.00  0.00    +0.033 A 
ATOM     24  C   UNL     1      -2.894   1.504  -1.378  0.00  0.00    +0.025 A 
ATOM     25  C   UNL     1      -4.198   1.284  -1.776  0.00  0.00    +0.031 A 
ATOM     26  C   UNL     1      -4.458   0.556  -2.923  0.00  0.00    +0.113 A 
ATOM     27  C   UNL     1      -3.414   0.051  -3.677  0.00  0.00    +0.031 A 
ATOM     28  C   UNL     1      -2.108   0.273  -3.286  0.00  0.00    +0.025 A 
BRANCH  26  29
ATOM     29  S   UNL     1      -6.123   0.271  -3.425  0.00  0.00    +0.101 S 
ATOM     30  O   UNL     1      -6.904   1.310  -2.850  0.00  0.00    -0.146 OA
ATOM     31  O   UNL     1      -6.089   0.029  -4.825  0.00  0.00    -0.146 OA
BRANCH  29  32
ATOM     32  N   UNL     1      -6.615  -1.140  -2.712  0.00  0.00    -0.103 NA
ATOM     33  C   UNL     1      -6.721  -1.219  -1.332  0.00  0.00    +0.191 A 
ATOM     34  N   UNL     1      -6.473  -0.292  -0.427  0.00  0.00    -0.339 N 
ATOM     35  C   UNL     1      -6.631  -0.534   0.861  0.00  0.00    +0.092 A 
ATOM     36  C   UNL     1      -7.046  -1.767   1.239  0.00  0.00    +0.066 A 
ATOM     37  S   UNL     1      -7.208  -2.566  -0.351  0.00  0.00    -0.057 S 
ATOM     38  H   UNL     1      -6.127   0.704  -0.741  0.00  0.00    +0.167 HD
ENDBRANCH  29  32
ENDBRANCH  26  29
ENDBRANCH  21  23
ENDBRANCH   1  21
TORSDOF 9
