REMARK  Name = ZINC53523923
REMARK  8 active torsions:
REMARK  status: ('A' for Active; 'I' for Inactive)
REMARK    1  A    between atoms: C_1  and  N_2
REMARK    2  A    between atoms: N_2  and  C_3
REMARK    3  A    between atoms: N_2  and  C_4
REMARK    4  A    between atoms: C_4  and  C_6
REMARK    5  A    between atoms: C_4  and  C_23
REMARK    6  A    between atoms: C_6  and  N_7
REMARK    7  A    between atoms: N_13  and  C_16
REMARK    8  A    between atoms: C_21  and  O_22
REMARK                            x       y       z     vdW  Elec       q    Type
REMARK                         _______ _______ _______ _____ _____    ______ ____
ROOT
ATOM      1  N   UNL     1      -1.546  -2.712   1.308  0.00  0.00    -0.300 N 
ATOM      2  C   UNL     1      -1.970  -3.971   1.535  0.00  0.00    +0.302 C 
ATOM      3  O   UNL     1      -2.604  -4.562   0.682  0.00  0.00    -0.253 OA
ATOM      4  N   UNL     1      -1.690  -4.575   2.707  0.00  0.00    -0.283 N 
ATOM      5  C   UNL     1      -1.026  -3.836   3.790  0.00  0.00    +0.128 C 
ATOM      6  C   UNL     1      -1.892  -3.933   5.052  0.00  0.00    +0.124 C 
ATOM      7  N   UNL     1      -2.246  -5.343   5.271  0.00  0.00    -0.324 N 
ATOM      8  C   UNL     1      -2.910  -6.082   4.188  0.00  0.00    +0.124 C 
ATOM      9  C   UNL     1      -2.050  -5.983   2.927  0.00  0.00    +0.128 C 
ATOM     10  H   UNL     1      -0.978  -2.267   1.956  0.00  0.00    +0.150 HD
ENDROOT
BRANCH   7  11
ATOM     11  C   UNL     1      -1.956  -5.970   6.488  0.00  0.00    +0.072 A 
ATOM     12  C   UNL     1      -2.885  -5.951   7.518  0.00  0.00    +0.027 A 
ATOM     13  C   UNL     1      -2.597  -6.571   8.719  0.00  0.00    +0.002 A 
ATOM     14  C   UNL     1      -1.384  -7.211   8.897  0.00  0.00    +0.004 A 
ATOM     15  C   UNL     1      -0.454  -7.234   7.874  0.00  0.00    +0.047 A 
ATOM     16  C   UNL     1      -0.737  -6.620   6.666  0.00  0.00    +0.138 A 
BRANCH  16  17
ATOM     17  O   UNL     1       0.175  -6.646   5.657  0.00  0.00    -0.505 OA
ATOM     18  H   UNL     1       0.794  -5.903   5.668  0.00  0.00    +0.292 HD
ENDBRANCH  16  17
ENDBRANCH   7  11
BRANCH   1  19
ATOM     19  C   UNL     1      -1.941  -2.016   0.081  0.00  0.00    +0.098 C 
BRANCH  19  20
ATOM     20  C   UNL     1      -1.437  -0.572   0.128  0.00  0.00    +0.016 C 
BRANCH  20  21
ATOM     21  C   UNL     1       0.070  -0.566   0.104  0.00  0.00    +0.093 A 
ATOM     22  C   UNL     1       0.839  -0.327  -0.973  0.00  0.00    +0.043 A 
ATOM     23  C   UNL     1       2.184  -0.421  -0.545  0.00  0.00    +0.041 A 
ATOM     24  C   UNL     1       2.156  -0.711   0.768  0.00  0.00    +0.195 A 
ATOM     25  O   UNL     1       0.873  -0.792   1.157  0.00  0.00    -0.469 OA
ENDBRANCH  20  21
BRANCH  20  27
ATOM     26  C   UNL     1      -1.512   1.486   1.357  0.00  0.00    -0.096 C 
ATOM     27  N   UNL     1      -1.910   0.072   1.360  0.00  0.00    +0.384 N 
ATOM     28  C   UNL     1      -3.374  -0.025   1.432  0.00  0.00    -0.096 C 
ATOM     29  H   UNL     1      -1.503  -0.390   2.159  0.00  0.00    -0.082 HD
ENDBRANCH  20  27
ENDBRANCH  19  20
ENDBRANCH   1  19
TORSDOF 6
