REMARK  Name = ZINC14545867
REMARK  5 active torsions:
REMARK  status: ('A' for Active; 'I' for Inactive)
REMARK    1  A    between atoms: C_1  and  C_2
REMARK    2  A    between atoms: N_4  and  C_5
REMARK    3  A    between atoms: C_18  and  C_21
REMARK    4  A    between atoms: C_26  and  O_27
REMARK    5  A    between atoms: O_27  and  C_28
REMARK                            x       y       z     vdW  Elec       q    Type
REMARK                         _______ _______ _______ _____ _____    ______ ____
ROOT
ATOM      1  C   UNL     1       0.943   3.945  -0.906  0.00  0.00    +0.034 A 
ATOM      2  C   UNL     1       1.245   2.627  -0.590  0.00  0.00    +0.025 A 
ATOM      3  C   UNL     1       0.223   1.735  -0.334  0.00  0.00    +0.025 A 
ATOM      4  C   UNL     1      -1.100   2.156  -0.397  0.00  0.00    +0.031 A 
ATOM      5  C   UNL     1      -1.409   3.468  -0.709  0.00  0.00    -0.018 A 
ATOM      6  C   UNL     1      -0.377   4.362  -0.965  0.00  0.00    +0.029 A 
ATOM      7  C   UNL     1      -2.822   3.977  -0.795  0.00  0.00    +0.049 C 
ATOM      8  C   UNL     1      -3.032   4.489  -2.224  0.00  0.00    -0.023 C 
ATOM      9  C   UNL     1      -3.604   3.573  -2.963  0.00  0.00    -0.030 C 
ATOM     10  C   UNL     1      -3.862   2.318  -2.149  0.00  0.00    +0.033 C 
ATOM     11  C   UNL     1      -3.862   2.845  -0.694  0.00  0.00    +0.029 C 
ATOM     12  C   UNL     1      -3.429   1.762   0.277  0.00  0.00    +0.108 C 
ATOM     13  N   UNL     1      -2.122   1.234  -0.129  0.00  0.00    -0.336 N 
ATOM     14  H   UNL     1      -1.970   0.279  -0.208  0.00  0.00    +0.147 HD
ENDROOT
BRANCH  12  15
ATOM     15  C   UNL     1      -3.327   2.344   1.664  0.00  0.00    +0.015 A 
ATOM     16  C   UNL     1      -2.090   2.661   2.191  0.00  0.00    +0.009 A 
ATOM     17  C   UNL     1      -1.996   3.194   3.463  0.00  0.00    +0.001 A 
ATOM     18  C   UNL     1      -3.139   3.412   4.210  0.00  0.00    +0.004 A 
ATOM     19  C   UNL     1      -4.378   3.097   3.688  0.00  0.00    +0.046 A 
ATOM     20  C   UNL     1      -4.475   2.567   2.409  0.00  0.00    +0.125 A 
BRANCH  20  21
ATOM     21  O   UNL     1      -5.694   2.261   1.890  0.00  0.00    -0.495 OA
ATOM     22  C   UNL     1      -6.833   2.517   2.715  0.00  0.00    +0.277 C 
ENDBRANCH  20  21
ENDBRANCH  12  15
BRANCH   1  26
ATOM     23  C   UNL     1       4.263   5.392  -1.940  0.00  0.00    +0.109 C 
ATOM     24  C   UNL     1       3.113   4.436  -1.754  0.00  0.00    +0.214 C 
ATOM     25  O   UNL     1       3.210   3.289  -2.135  0.00  0.00    -0.276 OA
ATOM     26  N   UNL     1       1.976   4.856  -1.165  0.00  0.00    -0.286 N 
ATOM     27  H   UNL     1       1.872   5.789  -0.920  0.00  0.00    +0.155 HD
ENDBRANCH   1  26
TORSDOF 3
