REMARK  Name = ZINC39544627
REMARK  6 active torsions:
REMARK  status: ('A' for Active; 'I' for Inactive)
REMARK    1  A    between atoms: C_1  and  C_2
REMARK    2  A    between atoms: C_5  and  C_8
REMARK    3  A    between atoms: C_8  and  C_10
REMARK    4  A    between atoms: C_10  and  N_11
REMARK    5  A    between atoms: C_14  and  C_18
REMARK    6  A    between atoms: C_14  and  C_19
REMARK                            x       y       z     vdW  Elec       q    Type
REMARK                         _______ _______ _______ _____ _____    ______ ____
ROOT
ATOM      1  N   UNL     1       0.092  -6.445   1.004  0.00  0.00    -0.216 N 
ATOM      2  C   UNL     1      -1.014  -7.202   0.862  0.00  0.00    +0.251 C 
ATOM      3  O   UNL     1      -2.167  -6.834   0.935  0.00  0.00    -0.272 OA
ATOM      4  C   UNL     1      -0.516  -8.607   0.590  0.00  0.00    +0.135 C 
ATOM      5  N   UNL     1       0.950  -8.466   0.613  0.00  0.00    -0.281 N 
ATOM      6  C   UNL     1       1.207  -7.168   0.857  0.00  0.00    +0.310 C 
ATOM      7  O   UNL     1       2.328  -6.706   0.937  0.00  0.00    -0.252 OA
ATOM      8  C   UNL     1      -0.990  -9.090  -0.782  0.00  0.00    +0.047 C 
ATOM      9  H   UNL     1       1.602  -9.171   0.476  0.00  0.00    +0.152 HD
ENDROOT
BRANCH   4  10
ATOM     10  C   UNL     1      -0.975  -9.550   1.673  0.00  0.00    -0.016 A 
ATOM     11  C   UNL     1      -2.168  -9.319   2.332  0.00  0.00    +0.006 A 
ATOM     12  C   UNL     1      -2.588 -10.184   3.325  0.00  0.00    +0.000 A 
ATOM     13  C   UNL     1      -1.817 -11.281   3.658  0.00  0.00    +0.000 A 
ATOM     14  C   UNL     1      -0.624 -11.513   2.998  0.00  0.00    +0.000 A 
ATOM     15  C   UNL     1      -0.206 -10.650   2.003  0.00  0.00    +0.006 A 
ENDBRANCH   4  10
BRANCH   1  16
ATOM     16  C   UNL     1       0.075  -5.006   1.280  0.00  0.00    +0.197 C 
BRANCH  16  17
ATOM     17  C   UNL     1       0.058  -4.245  -0.021  0.00  0.00    +0.181 C 
ATOM     18  O   UNL     1       0.060  -4.846  -1.075  0.00  0.00    -0.290 OA
BRANCH  17  23
ATOM     19  C   UNL     1      -0.018   1.503   0.010  0.00  0.00    +0.044 C 
ATOM     20  C   UNL     1       0.002  -0.004   0.002  0.00  0.00    -0.050 A 
ATOM     21  C   UNL     1       0.006  -0.686  -1.202  0.00  0.00    +0.004 A 
ATOM     22  C   UNL     1       0.024  -2.064  -1.218  0.00  0.00    +0.011 A 
ATOM     23  C   UNL     1       0.039  -2.774  -0.013  0.00  0.00    +0.019 A 
ATOM     24  C   UNL     1       0.036  -2.078   1.200  0.00  0.00    +0.011 A 
ATOM     25  C   UNL     1       0.023  -0.699   1.199  0.00  0.00    +0.004 A 
ENDBRANCH  17  23
ENDBRANCH  16  17
ENDBRANCH   1  16
TORSDOF 4
