REMARK  Name = ZINC21868578
REMARK  9 active torsions:
REMARK  status: ('A' for Active; 'I' for Inactive)
REMARK    1  A    between atoms: C_1  and  C_2
REMARK    2  A    between atoms: C_2  and  N_3
REMARK    3  A    between atoms: C_9  and  C_15
REMARK    4  A    between atoms: C_10  and  C_14
REMARK    5  A    between atoms: N_17  and  C_18
REMARK    6  A    between atoms: C_21  and  O_26
REMARK    7  A    between atoms: C_23  and  O_24
REMARK    8  A    between atoms: O_24  and  C_25
REMARK    9  A    between atoms: O_26  and  C_27
REMARK                            x       y       z     vdW  Elec       q    Type
REMARK                         _______ _______ _______ _____ _____    ______ ____
ROOT
ATOM      1  N   UNL     1      -0.080  10.793  -0.315  0.00  0.00    +0.380 N 
ATOM      2  C   UNL     1       0.490  11.064   1.011  0.00  0.00    -0.075 C 
ATOM      3  C   UNL     1      -0.000  10.008   2.004  0.00  0.00    +0.034 C 
ATOM      4  C   UNL     1      -1.528  10.038   2.059  0.00  0.00    +0.141 C 
ATOM      5  C   UNL     1      -2.103   9.814   0.661  0.00  0.00    +0.034 C 
ATOM      6  C   UNL     1      -1.546  10.876  -0.291  0.00  0.00    -0.075 C 
ATOM      7  C   UNL     1      -2.033   8.976   3.004  0.00  0.00    +0.067 C 
ATOM      8  C   UNL     1      -2.717   9.614   3.970  0.00  0.00    +0.045 C 
ATOM      9  C   UNL     1      -2.679  11.062   3.714  0.00  0.00    +0.336 C 
ATOM     10  O   UNL     1      -3.203  11.907   4.412  0.00  0.00    -0.245 OA
ATOM     11  O   UNL     1      -1.984  11.311   2.589  0.00  0.00    -0.450 OA
ATOM     12  C   UNL     1      -3.409   8.950   5.133  0.00  0.00    +0.052 C 
ATOM     13  H   UNL     1       0.192   9.764  -0.591  0.00  0.00    -0.082 HD
ENDROOT
BRANCH   7  14
ATOM     14  C   UNL     1      -1.824   7.520   2.886  0.00  0.00    +0.249 C 
ATOM     15  O   UNL     1      -2.289   6.770   3.722  0.00  0.00    -0.270 OA
ATOM     16  N   UNL     1      -1.117   7.022   1.852  0.00  0.00    -0.279 N 
ATOM     17  H   UNL     1      -0.620   7.704   1.147  0.00  0.00    +0.155 HD
BRANCH  16  18
ATOM     18  C   UNL     1      -1.016   5.636   1.676  0.00  0.00    +0.077 A 
ATOM     19  C   UNL     1      -1.995   4.797   2.189  0.00  0.00    +0.050 A 
ATOM     20  C   UNL     1      -1.897   3.430   2.011  0.00  0.00    +0.084 A 
ATOM     21  C   UNL     1      -0.814   2.893   1.328  0.00  0.00    +0.142 A 
ATOM     22  C   UNL     1       0.166   3.727   0.814  0.00  0.00    +0.094 A 
ATOM     23  C   UNL     1       0.068   5.098   0.986  0.00  0.00    +0.145 A 
ATOM     24 CL   UNL     1      -3.127   2.383   2.647  0.00  0.00    -0.080 Cl
BRANCH  23  25
ATOM     25  O   UNL     1       1.030   5.918   0.483  0.00  0.00    -0.493 OA
ATOM     26  C   UNL     1       2.113   5.297  -0.213  0.00  0.00    +0.277 C 
ENDBRANCH  23  25
BRANCH  21  27
ATOM     27  O   UNL     1      -0.718   1.547   1.159  0.00  0.00    -0.494 OA
ATOM     28  C   UNL     1       0.419   1.063   0.441  0.00  0.00    +0.277 C 
ENDBRANCH  21  27
ENDBRANCH  16  18
ENDBRANCH   7  14
BRANCH   1  30
ATOM     29  C   UNL     1      -0.306  11.560  -2.629  0.00  0.00    -0.017 C 
ATOM     30  C   UNL     1       0.482  11.699  -1.325  0.00  0.00    -0.082 C 
ENDBRANCH   1  30
TORSDOF 5
