REMARK  Name = ZINC40001943
REMARK  5 active torsions:
REMARK  status: ('A' for Active; 'I' for Inactive)
REMARK    1  A    between atoms: C_7  and  C_10
REMARK    2  A    between atoms: C_13  and  S_23
REMARK    3  A    between atoms: N_15  and  C_16
REMARK    4  A    between atoms: C_16  and  C_17
REMARK    5  A    between atoms: S_23  and  C_24
REMARK                            x       y       z     vdW  Elec       q    Type
REMARK                         _______ _______ _______ _____ _____    ______ ____
ROOT
ATOM      1  C   UNL     1       0.595  -3.209  -0.031  0.00  0.00    +0.147 C 
ATOM      2  N   UNL     1      -0.708  -3.155   0.062  0.00  0.00    -0.169 NA
ATOM      3  N   UNL     1      -1.272  -4.436   0.030  0.00  0.00    -0.237 N 
ATOM      4  C   UNL     1      -0.153  -5.383  -0.101  0.00  0.00    +0.237 C 
ATOM      5  N   UNL     1       1.044  -4.527  -0.141  0.00  0.00    -0.283 N 
ATOM      6  H   UNL     1      -2.216  -4.655   0.083  0.00  0.00    +0.171 HD
ENDROOT
BRANCH   1  13
ATOM      7  C   UNL     1      -0.245   1.204   0.606  0.00  0.00    +0.001 A 
ATOM      8  C   UNL     1       0.895   2.007   0.529  0.00  0.00    +0.002 A 
ATOM      9  C   UNL     1       2.122   1.485   0.285  0.00  0.00    +0.026 A 
ATOM     10  C   UNL     1       2.270   0.086   0.101  0.00  0.00    +0.043 A 
ATOM     11  N   UNL     1       3.333  -0.654  -0.144  0.00  0.00    -0.380 N 
ATOM     12  C   UNL     1       2.932  -2.061  -0.247  0.00  0.00    +0.152 C 
ATOM     13  C   UNL     1       1.435  -2.085  -0.026  0.00  0.00    +0.022 C 
ATOM     14  C   UNL     1       1.065  -0.756   0.183  0.00  0.00    +0.006 A 
ATOM     15  C   UNL     1      -0.179  -0.142   0.441  0.00  0.00    +0.010 A 
ATOM     16  H   UNL     1       4.239  -0.321  -0.241  0.00  0.00    +0.160 HD
ENDBRANCH   1  13
BRANCH   5  17
ATOM     17  C   UNL     1       2.434  -4.971  -0.270  0.00  0.00    +0.140 C 
BRANCH  17  18
ATOM     18  C   UNL     1       2.978  -5.352   1.109  0.00  0.00    +0.136 C 
ATOM     19  C   UNL     1       4.475  -5.736   1.009  0.00  0.00    +0.035 C 
ATOM     20  C   UNL     1       4.952  -5.443   2.458  0.00  0.00    +0.031 C 
ATOM     21  C   UNL     1       4.085  -4.226   2.848  0.00  0.00    +0.160 C 
ATOM     22  O   UNL     1       2.936  -4.219   1.991  0.00  0.00    -0.375 OA
ENDBRANCH  17  18
ENDBRANCH   5  17
BRANCH   4  23
ATOM     23  S   UNL     1      -0.303  -6.334  -1.638  0.00  0.00    -0.103 S 
BRANCH  23  24
ATOM     24  C   UNL     1      -0.312  -5.069  -2.938  0.00  0.00    +0.161 C 
ATOM     25  C   UNL     1      -0.513  -5.720  -4.330  0.00  0.00    +0.066 C 
ATOM     26  C   UNL     1       0.510  -4.915  -5.176  0.00  0.00    +0.234 C 
ATOM     27  O   UNL     1       1.585  -4.685  -4.240  0.00  0.00    -0.464 OA
ATOM     28  C   UNL     1       1.044  -4.398  -3.037  0.00  0.00    +0.320 C 
ATOM     29  O   UNL     1       1.556  -3.718  -2.178  0.00  0.00    -0.250 OA
ENDBRANCH  23  24
ENDBRANCH   4  23
TORSDOF 5
