REMARK  Name = ZINC49071732
REMARK  6 active torsions:
REMARK  status: ('A' for Active; 'I' for Inactive)
REMARK    1  A    between atoms: C_6  and  C_7
REMARK    2  A    between atoms: C_7  and  N_8
REMARK    3  A    between atoms: N_11  and  C_12
REMARK    4  A    between atoms: N_11  and  C_19
REMARK    5  A    between atoms: N_22  and  C_25
REMARK    6  A    between atoms: C_25  and  C_26
REMARK                            x       y       z     vdW  Elec       q    Type
REMARK                         _______ _______ _______ _____ _____    ______ ____
ROOT
ATOM      1  N   UNL     1      -1.603  -0.927  -1.568  0.00  0.00    -0.295 N 
ATOM      2  C   UNL     1      -2.745  -1.637  -1.665  0.00  0.00    +0.307 C 
ATOM      3  O   UNL     1      -3.257  -2.104  -0.667  0.00  0.00    -0.252 OA
ATOM      4  N   UNL     1      -3.318  -1.829  -2.870  0.00  0.00    -0.253 N 
ATOM      5  H   UNL     1      -1.156  -0.615  -2.370  0.00  0.00    +0.151 HD
ENDROOT
BRANCH   4   6
ATOM      6  C   UNL     1      -2.669  -1.393  -4.031  0.00  0.00    +0.038 A 
ATOM      7  C   UNL     1      -1.470  -1.975  -4.419  0.00  0.00    +0.025 A 
ATOM      8  C   UNL     1      -0.832  -1.543  -5.565  0.00  0.00    +0.022 A 
ATOM      9  C   UNL     1      -1.387  -0.530  -6.327  0.00  0.00    +0.041 A 
ATOM     10  C   UNL     1      -2.582   0.052  -5.943  0.00  0.00    +0.022 A 
ATOM     11  C   UNL     1      -3.227  -0.381  -4.801  0.00  0.00    +0.025 A 
ATOM     12 CL   UNL     1      -0.583   0.011  -7.767  0.00  0.00    -0.084 Cl
ENDBRANCH   4   6
BRANCH   4  13
ATOM     13  C   UNL     1      -4.620  -2.495  -2.964  0.00  0.00    +0.080 C 
ATOM     14  C   UNL     1      -5.636  -1.759  -2.086  0.00  0.00    +0.004 C 
ATOM     15  C   UNL     1      -6.971  -2.505  -2.126  0.00  0.00    -0.077 C 
ATOM     16  N   UNL     1      -6.788  -3.872  -1.624  0.00  0.00    +0.382 N 
ATOM     17  C   UNL     1      -5.870  -4.606  -2.503  0.00  0.00    -0.077 C 
ATOM     18  C   UNL     1      -4.492  -3.941  -2.477  0.00  0.00    +0.004 C 
ATOM     19  H   UNL     1      -6.404  -3.838  -0.692  0.00  0.00    -0.081 HD
BRANCH  16  20
ATOM     20  C   UNL     1      -8.086  -4.558  -1.591  0.00  0.00    -0.043 C 
BRANCH  20  21
ATOM     21  C   UNL     1      -7.920  -5.918  -0.963  0.00  0.00    -0.057 A 
ATOM     22  C   UNL     1      -7.515  -7.013  -1.739  0.00  0.00    +0.019 A 
ATOM     23  C   UNL     1      -7.369  -8.230  -1.165  0.00  0.00    +0.086 A 
ATOM     24  N   UNL     1      -7.610  -8.406   0.159  0.00  0.00    -0.329 N 
ATOM     25  C   UNL     1      -8.000  -7.373   0.931  0.00  0.00    +0.249 A 
ATOM     26  C   UNL     1      -8.156  -6.095   0.369  0.00  0.00    +0.072 A 
ATOM     27  O   UNL     1      -8.214  -7.547   2.120  0.00  0.00    -0.268 OA
ATOM     28  H   UNL     1      -7.500  -9.285   0.554  0.00  0.00    +0.168 HD
ENDBRANCH  20  21
ENDBRANCH  16  20
ENDBRANCH   4  13
BRANCH   1  29
ATOM     29  C   UNL     1      -1.039  -0.625  -0.250  0.00  0.00    +0.141 C 
BRANCH  29  35
ATOM     30  C   UNL     1       0.174   1.555  -0.454  0.00  0.00    +0.008 A 
ATOM     31  C   UNL     1       1.335   2.289  -0.607  0.00  0.00    +0.038 A 
ATOM     32  C   UNL     1       2.552   1.640  -0.724  0.00  0.00    +0.123 A 
ATOM     33  C   UNL     1       2.606   0.257  -0.687  0.00  0.00    +0.038 A 
ATOM     34  C   UNL     1       1.443  -0.474  -0.533  0.00  0.00    +0.008 A 
ATOM     35  C   UNL     1       0.228   0.174  -0.417  0.00  0.00    -0.030 A 
ATOM     36  F   UNL     1       3.688   2.357  -0.874  0.00  0.00    -0.205 F 
ENDBRANCH  29  35
ENDBRANCH   1  29
TORSDOF 6
