REMARK  Name = ZINC20694609
REMARK  8 active torsions:
REMARK  status: ('A' for Active; 'I' for Inactive)
REMARK    1  A    between atoms: C_1  and  O_2
REMARK    2  A    between atoms: O_2  and  C_3
REMARK    3  A    between atoms: C_7  and  C_10
REMARK    4  A    between atoms: C_8  and  O_9
REMARK    5  A    between atoms: C_21  and  S_26
REMARK    6  A    between atoms: S_26  and  N_29
REMARK    7  A    between atoms: N_29  and  C_30
REMARK    8  A    between atoms: C_30  and  C_31
REMARK                            x       y       z     vdW  Elec       q    Type
REMARK                         _______ _______ _______ _____ _____    ______ ____
ROOT
ATOM      1  C   UNL     1      -0.013   1.086   0.008  0.00  0.00    +0.109 C 
ATOM      2  C   UNL     1      -0.660   1.609  -1.262  0.00  0.00    +0.029 C 
ATOM      3  C   UNL     1      -2.055   1.070  -1.609  0.00  0.00    +0.033 C 
ATOM      4  C   UNL     1      -2.047   1.159  -3.136  0.00  0.00    -0.030 C 
ATOM      5  C   UNL     1      -0.800   1.099  -3.589  0.00  0.00    -0.023 C 
ATOM      6  C   UNL     1       0.116   0.934  -2.432  0.00  0.00    +0.049 C 
ATOM      7  C   UNL     1       1.491   1.479  -2.438  0.00  0.00    -0.018 A 
ATOM      8  C   UNL     1       2.203   1.678  -3.602  0.00  0.00    +0.034 A 
ATOM      9  C   UNL     1       3.493   2.172  -3.554  0.00  0.00    +0.106 A 
ATOM     10  C   UNL     1       4.075   2.470  -2.336  0.00  0.00    +0.030 A 
ATOM     11  C   UNL     1       3.369   2.280  -1.166  0.00  0.00    +0.025 A 
ATOM     12  C   UNL     1       2.069   1.788  -1.202  0.00  0.00    +0.031 A 
ATOM     13  N   UNL     1       1.368   1.616  -0.002  0.00  0.00    -0.336 N 
ATOM     14  H   UNL     1       1.862   1.882   0.944  0.00  0.00    +0.147 HD
ENDROOT
BRANCH   1  19
ATOM     15  C   UNL     1      -2.529   1.355   2.823  0.00  0.00    +0.162 A 
ATOM     16  C   UNL     1      -2.113   2.519   3.448  0.00  0.00    +0.049 A 
ATOM     17  C   UNL     1      -1.022   3.214   2.960  0.00  0.00    +0.004 A 
ATOM     18  C   UNL     1      -0.341   2.747   1.851  0.00  0.00    +0.009 A 
ATOM     19  C   UNL     1      -0.754   1.589   1.220  0.00  0.00    +0.018 A 
ATOM     20  C   UNL     1      -1.847   0.888   1.704  0.00  0.00    +0.163 A 
BRANCH  15  22
ATOM     21  C   UNL     1      -4.254   1.208   4.454  0.00  0.00    +0.277 C 
ATOM     22  O   UNL     1      -3.602   0.670   3.302  0.00  0.00    -0.491 OA
ENDBRANCH  15  22
BRANCH  20  23
ATOM     23  O   UNL     1      -2.252  -0.254   1.086  0.00  0.00    -0.503 OA
ATOM     24  H   UNL     1      -1.712  -0.622   0.201  0.00  0.00    +0.292 HD
ENDBRANCH  20  23
ENDBRANCH   1  19
BRANCH   9  25
ATOM     25  S   UNL     1       4.396   2.424  -5.047  0.00  0.00    +0.058 S 
ATOM     26  O   UNL     1       5.773   2.379  -4.700  0.00  0.00    -0.153 OA
ATOM     27  O   UNL     1       3.826   1.556  -6.017  0.00  0.00    -0.153 OA
BRANCH  25  28
ATOM     28  N   UNL     1       4.084   3.969  -5.553  0.00  0.00    -0.187 NA
ATOM     29  H   UNL     1       3.407   4.130  -6.405  0.00  0.00    +0.148 HD
BRANCH  28  30
ATOM     30  C   UNL     1       4.527   5.108  -4.745  0.00  0.00    +0.137 C 
BRANCH  30  31
ATOM     31  C   UNL     1       4.460   6.386  -5.583  0.00  0.00    +0.134 C 
ATOM     32  C   UNL     1       4.931   7.589  -4.744  0.00  0.00    +0.035 C 
ATOM     33  C   UNL     1       6.127   8.164  -5.542  0.00  0.00    +0.031 C 
ATOM     34  C   UNL     1       5.870   7.599  -6.963  0.00  0.00    +0.160 C 
ATOM     35  O   UNL     1       5.344   6.276  -6.712  0.00  0.00    -0.375 OA
ENDBRANCH  30  31
ENDBRANCH  28  30
ENDBRANCH  25  28
ENDBRANCH   9  25
TORSDOF 7
