REMARK  Name = ZINC20735198
REMARK  2 active torsions:
REMARK  status: ('A' for Active; 'I' for Inactive)
REMARK    1  A    between atoms: C_5  and  C_7
REMARK    2  A    between atoms: C_14  and  C_19
REMARK                            x       y       z     vdW  Elec       q    Type
REMARK                         _______ _______ _______ _____ _____    ______ ____
ROOT
ATOM      1  C   UNL     1      -2.549  13.585  -6.552  0.00  0.00    +0.029 C 
ATOM      2  C   UNL     1      -1.833  12.440  -6.666  0.00  0.00    +0.075 C 
ATOM      3  C   UNL     1      -0.512  12.406  -7.330  0.00  0.00    +0.255 C 
ATOM      4  O   UNL     1      -0.251  13.219  -8.197  0.00  0.00    -0.269 OA
ATOM      5  N   UNL     1       0.398  11.490  -6.987  0.00  0.00    -0.280 N 
ATOM      6  C   UNL     1       0.291  10.560  -5.959  0.00  0.00    +0.048 A 
ATOM      7  C   UNL     1       1.456   9.988  -5.463  0.00  0.00    +0.037 A 
ATOM      8  C   UNL     1       1.397   9.054  -4.428  0.00  0.00    +0.039 A 
ATOM      9  C   UNL     1       0.163   8.682  -3.886  0.00  0.00    +0.014 A 
ATOM     10  C   UNL     1      -0.993   9.250  -4.372  0.00  0.00    +0.017 A 
ATOM     11  C   UNL     1      -0.935  10.179  -5.403  0.00  0.00    +0.034 A 
ATOM     12  S   UNL     1      -2.427  10.896  -6.027  0.00  0.00    -0.082 S 
ATOM     13  H   UNL     1       1.345  11.421  -7.541  0.00  0.00    +0.155 HD
ENDROOT
BRANCH   8  14
ATOM     14  C   UNL     1       2.639   8.452  -3.909  0.00  0.00    +0.247 C 
ATOM     15  O   UNL     1       3.575   8.247  -4.658  0.00  0.00    -0.270 OA
ATOM     16  N   UNL     1       2.738   8.130  -2.603  0.00  0.00    -0.295 N 
ATOM     17  C   UNL     1       1.659   8.462  -1.661  0.00  0.00    +0.127 C 
ATOM     18  C   UNL     1       2.268   9.194  -0.460  0.00  0.00    +0.125 C 
ATOM     19  N   UNL     1       3.357   8.383   0.102  0.00  0.00    -0.314 N 
ATOM     20  C   UNL     1       4.447   8.210  -0.867  0.00  0.00    +0.125 C 
ATOM     21  C   UNL     1       3.927   7.438  -2.084  0.00  0.00    +0.127 C 
ATOM     22  C   UNL     1       3.828   8.934   1.288  0.00  0.00    +0.099 A 
ATOM     23  C   UNL     1       4.863   8.310   1.976  0.00  0.00    +0.042 A 
ATOM     24  C   UNL     1       5.325   8.872   3.152  0.00  0.00    +0.005 A 
ATOM     25  C   UNL     1       4.726  10.039   3.608  0.00  0.00    +0.018 A 
ATOM     26  C   UNL     1       3.703  10.606   2.875  0.00  0.00    +0.084 A 
ATOM     27  N   UNL     1       3.286  10.050   1.753  0.00  0.00    -0.350 N 
ATOM     28  H   UNL     1       2.468  10.536   1.201  0.00  0.00    +0.166 HD
ENDBRANCH   8  14
BRANCH   1  33
ATOM     29  C   UNL     1      -0.152  16.469  -6.552  0.00  0.00    +0.001 A 
ATOM     30  C   UNL     1      -0.747  17.312  -7.475  0.00  0.00    +0.001 A 
ATOM     31  C   UNL     1      -1.927  16.946  -8.099  0.00  0.00    +0.020 A 
ATOM     32  C   UNL     1      -2.520  15.735  -7.805  0.00  0.00    +0.048 A 
ATOM     33  C   UNL     1      -1.924  14.877  -6.872  0.00  0.00    -0.005 A 
ATOM     34  C   UNL     1      -0.735  15.258  -6.242  0.00  0.00    +0.009 A 
ATOM     35 CL   UNL     1      -4.000  15.277  -8.588  0.00  0.00    -0.083 Cl
ENDBRANCH   1  33
TORSDOF 2
