REMARK  Name = ZINC08942373
REMARK  8 active torsions:
REMARK  status: ('A' for Active; 'I' for Inactive)
REMARK    1  A    between atoms: C_1  and  C_2
REMARK    2  A    between atoms: C_2  and  C_28
REMARK    3  A    between atoms: N_5  and  N_9
REMARK    4  A    between atoms: C_10  and  C_12
REMARK    5  A    between atoms: C_12  and  N_65
REMARK    6  A    between atoms: C_16  and  C_18
REMARK    7  A    between atoms: C_28  and  C_29
REMARK    8  A    between atoms: C_29  and  C_30
REMARK                            x       y       z     vdW  Elec       q    Type
REMARK                         _______ _______ _______ _____ _____    ______ ____
ROOT
ATOM      1  N   UNL     1      -1.785   4.058  -1.912  0.00  0.00    -0.225 N 
ATOM      2  C   UNL     1      -1.097   3.387  -0.967  0.00  0.00    +0.213 C 
ATOM      3  O   UNL     1      -0.742   3.955   0.043  0.00  0.00    -0.276 OA
ATOM      4  H   UNL     1      -2.069   3.603  -2.720  0.00  0.00    +0.173 HD
ENDROOT
BRANCH   1   9
ATOM      5  C   UNL     1      -2.782   8.454  -3.004  0.00  0.00    +0.041 C 
ATOM      6  C   UNL     1      -2.120   7.693  -1.853  0.00  0.00    +0.112 C 
ATOM      7  C   UNL     1      -1.465   6.424  -2.360  0.00  0.00    +0.263 C 
ATOM      8  O   UNL     1      -0.565   6.336  -3.167  0.00  0.00    -0.271 OA
ATOM      9  N   UNL     1      -2.090   5.413  -1.726  0.00  0.00    -0.137 N 
ATOM     10  C   UNL     1      -3.043   5.862  -0.901  0.00  0.00    +0.326 C 
ATOM     11  O   UNL     1      -3.746   5.139  -0.223  0.00  0.00    -0.251 OA
ATOM     12  N   UNL     1      -3.134   7.204  -0.903  0.00  0.00    -0.284 N 
ATOM     13  H   UNL     1      -3.749   7.745  -0.383  0.00  0.00    +0.151 HD
BRANCH   6  14
ATOM     14  C   UNL     1      -1.096   8.579  -1.139  0.00  0.00    +0.040 C 
BRANCH  14  15
ATOM     15  C   UNL     1      -1.806   9.790  -0.531  0.00  0.00    +0.038 C 
BRANCH  15  16
ATOM     16  C   UNL     1      -0.798  10.663   0.171  0.00  0.00    -0.047 A 
ATOM     17  C   UNL     1      -0.517  10.454   1.509  0.00  0.00    +0.003 A 
ATOM     18  C   UNL     1       0.411  11.252   2.152  0.00  0.00    +0.000 A 
ATOM     19  C   UNL     1       1.050  12.264   1.461  0.00  0.00    +0.000 A 
ATOM     20  C   UNL     1       0.765  12.476   0.125  0.00  0.00    +0.000 A 
ATOM     21  C   UNL     1      -0.160  11.675  -0.520  0.00  0.00    +0.003 A 
ENDBRANCH  15  16
ENDBRANCH  14  15
ENDBRANCH   6  14
ENDBRANCH   1   9
BRANCH   2  22
ATOM     22  C   UNL     1      -0.768   1.930  -1.167  0.00  0.00    +0.021 C 
BRANCH  22  27
ATOM     23  C   UNL     1       1.377   1.920  -0.027  0.00  0.00    -0.077 C 
ATOM     24  C   UNL     1       2.207   0.771   0.597  0.00  0.00    -0.020 C 
ATOM     25  C   UNL     1       1.478  -0.481   0.040  0.00  0.00    -0.013 C 
ATOM     26  C   UNL     1      -0.001  -0.041   0.021  0.00  0.00    -0.037 C 
ATOM     27  N   UNL     1      -0.014   1.433   0.013  0.00  0.00    +0.390 N 
ATOM     28  H   UNL     1      -0.468   1.773   0.869  0.00  0.00    -0.080 HD
BRANCH  26  29
ATOM     29  C   UNL     1      -0.681  -0.584  -1.210  0.00  0.00    -0.057 A 
ATOM     30  C   UNL     1      -1.849  -1.314  -1.088  0.00  0.00    +0.006 A 
ATOM     31  C   UNL     1      -2.477  -1.810  -2.214  0.00  0.00    +0.049 A 
ATOM     32  C   UNL     1      -1.932  -1.586  -3.470  0.00  0.00    +0.162 A 
ATOM     33  C   UNL     1      -0.756  -0.855  -3.592  0.00  0.00    +0.162 A 
ATOM     34  C   UNL     1      -0.133  -0.356  -2.458  0.00  0.00    +0.051 A 
ATOM     35  O   UNL     1      -0.209  -0.616  -4.815  0.00  0.00    -0.485 OA
ATOM     36  C   UNL     1      -0.656  -1.445  -5.894  0.00  0.00    +0.270 C 
ATOM     37  C   UNL     1      -2.187  -1.528  -5.833  0.00  0.00    +0.270 C 
ATOM     38  O   UNL     1      -2.556  -2.091  -4.569  0.00  0.00    -0.485 OA
ENDBRANCH  26  29
ENDBRANCH  22  27
ENDBRANCH   2  22
TORSDOF 7
