REMARK  Name = ZINC51144896
REMARK  8 active torsions:
REMARK  status: ('A' for Active; 'I' for Inactive)
REMARK    1  A    between atoms: C_1  and  N_2
REMARK    2  A    between atoms: N_2  and  C_3
REMARK    3  A    between atoms: N_2  and  C_10
REMARK    4  A    between atoms: C_3  and  C_4
REMARK    5  A    between atoms: C_10  and  C_11
REMARK    6  A    between atoms: C_13  and  N_19
REMARK    7  A    between atoms: C_16  and  N_17
REMARK    8  A    between atoms: N_17  and  N_18
REMARK                            x       y       z     vdW  Elec       q    Type
REMARK                         _______ _______ _______ _____ _____    ______ ____
ROOT
ATOM      1  C   UNL     1       2.218   0.040   0.986  0.00  0.00    -0.040 A 
ATOM      2  C   UNL     1       2.687   0.997   1.864  0.00  0.00    +0.036 A 
ATOM      3  C   UNL     1       3.981   1.470   1.748  0.00  0.00    +0.126 A 
ATOM      4  C   UNL     1       4.810   0.987   0.752  0.00  0.00    +0.034 A 
ATOM      5  C   UNL     1       4.347   0.030  -0.130  0.00  0.00    +0.026 A 
ATOM      6  C   UNL     1       3.049  -0.451  -0.012  0.00  0.00    +0.042 A 
ENDROOT
BRANCH   3   7
ATOM      7  N   UNL     1       4.481   2.495   2.691  0.00  0.00    +0.056 N 
ATOM      8  O   UNL     1       3.757   2.919   3.562  0.00  0.00    -0.126 OA
ATOM      9  O   UNL     1       5.612   2.909   2.590  0.00  0.00    -0.126 OA
ENDBRANCH   3   7
BRANCH   6  10
ATOM     10  N   UNL     1       2.580  -1.423  -0.899  0.00  0.00    -0.283 N 
ATOM     11  H   UNL     1       1.701  -1.813  -0.770  0.00  0.00    +0.166 HD
BRANCH  10  12
ATOM     12  N   UNL     1       3.358  -1.824  -1.947  0.00  0.00    -0.257 NA
ATOM     13  H   UNL     1       2.889  -2.527  -2.498  0.00  0.00    +0.140 HD
ATOM     14  H   UNL     1       3.628  -1.038  -2.519  0.00  0.00    +0.140 HD
ENDBRANCH  10  12
ENDBRANCH   6  10
BRANCH   1  15
ATOM     15  C   UNL     1       0.807  -0.474   1.113  0.00  0.00    -0.041 C 
BRANCH  15  17
ATOM     16  C   UNL     1      -0.135   1.550   0.237  0.00  0.00    -0.095 C 
ATOM     17  N   UNL     1      -0.022   0.099   0.044  0.00  0.00    +0.384 N 
ATOM     18  H   UNL     1       0.406  -0.090  -0.850  0.00  0.00    -0.081 HD
BRANCH  17  19
ATOM     19  C   UNL     1      -1.359  -0.507   0.084  0.00  0.00    -0.036 C 
BRANCH  19  20
ATOM     20  C   UNL     1      -2.170  -0.012  -1.086  0.00  0.00    -0.025 A 
ATOM     21  C   UNL     1      -2.286  -0.540  -2.328  0.00  0.00    +0.011 A 
ATOM     22  C   UNL     1      -3.097   0.092  -3.253  0.00  0.00    +0.028 A 
ATOM     23  C   UNL     1      -3.752   1.222  -2.888  0.00  0.00    +0.078 A 
ATOM     24  S   UNL     1      -3.233   1.419  -1.192  0.00  0.00    -0.084 S 
ATOM     25 CL   UNL     1      -4.823   2.216  -3.826  0.00  0.00    -0.076 Cl
ENDBRANCH  19  20
ENDBRANCH  17  19
ENDBRANCH  15  17
ENDBRANCH   1  15
TORSDOF 7
