REMARK  Name = ZINC12893880
REMARK  9 active torsions:
REMARK  status: ('A' for Active; 'I' for Inactive)
REMARK    1  A    between atoms: C_1  and  C_2
REMARK    2  A    between atoms: C_2  and  C_4
REMARK    3  A    between atoms: C_2  and  N_21
REMARK    4  A    between atoms: C_4  and  O_6
REMARK    5  A    between atoms: O_6  and  C_7
REMARK    6  A    between atoms: C_7  and  C_8
REMARK    7  A    between atoms: C_8  and  N_9
REMARK    8  A    between atoms: N_21  and  S_22
REMARK    9  A    between atoms: S_22  and  C_25
REMARK                            x       y       z     vdW  Elec       q    Type
REMARK                         _______ _______ _______ _____ _____    ______ ____
ROOT
ATOM      1  C   UNL     1      -3.271   7.266  -3.412  0.00  0.00    +0.326 C 
ATOM      2  O   UNL     1      -2.613   8.156  -3.895  0.00  0.00    -0.249 OA
ENDROOT
BRANCH   1   4
ATOM      3  C   UNL     1      -5.678   6.711  -3.630  0.00  0.00    +0.037 C 
ATOM      4  C   UNL     1      -4.291   6.541  -4.252  0.00  0.00    +0.182 C 
BRANCH   4   5
ATOM      5  N   UNL     1      -4.293   7.099  -5.607  0.00  0.00    -0.176 NA
ATOM      6  H   UNL     1      -4.135   8.046  -5.742  0.00  0.00    +0.149 HD
BRANCH   5   7
ATOM      7  S   UNL     1      -4.563   6.111  -6.908  0.00  0.00    +0.059 S 
ATOM      8  O   UNL     1      -4.529   6.941  -8.062  0.00  0.00    -0.153 OA
ATOM      9  O   UNL     1      -3.706   4.989  -6.752  0.00  0.00    -0.153 OA
BRANCH   7  10
ATOM     10  C   UNL     1      -6.213   5.508  -6.771  0.00  0.00    +0.107 A 
ATOM     11  C   UNL     1      -7.256   6.210  -7.346  0.00  0.00    +0.028 A 
ATOM     12  C   UNL     1      -8.550   5.738  -7.239  0.00  0.00    +0.003 A 
ATOM     13  C   UNL     1      -8.803   4.563  -6.556  0.00  0.00    +0.020 A 
ATOM     14  C   UNL     1      -7.760   3.860  -5.979  0.00  0.00    +0.043 A 
ATOM     15  C   UNL     1      -6.464   4.331  -6.092  0.00  0.00    +0.048 A 
ATOM     16 CL   UNL     1      -8.077   2.384  -5.122  0.00  0.00    -0.083 Cl
ENDBRANCH   7  10
ENDBRANCH   5   7
ENDBRANCH   4   5
ENDBRANCH   1   4
BRANCH   1  17
ATOM     17  O   UNL     1      -3.094   6.921  -2.127  0.00  0.00    -0.462 OA
BRANCH  17  18
ATOM     18  C   UNL     1      -2.095   7.662  -1.378  0.00  0.00    +0.253 C 
BRANCH  18  19
ATOM     19  C   UNL     1      -2.036   7.132   0.057  0.00  0.00    +0.176 C 
BRANCH  19  20
ATOM     20  N   UNL     1      -1.564   5.745   0.046  0.00  0.00    -0.164 N 
ATOM     21  C   UNL     1      -0.291   5.321   0.032  0.00  0.00    +0.268 C 
ATOM     22  O   UNL     1       0.631   6.113   0.026  0.00  0.00    -0.268 OA
ATOM     23  C   UNL     1      -0.042   3.873   0.022  0.00  0.00    +0.065 A 
ATOM     24  C   UNL     1       1.172   3.165   0.007  0.00  0.00    +0.015 A 
ATOM     25  C   UNL     1       1.173   1.789   0.001  0.00  0.00    +0.001 A 
ATOM     26  C   UNL     1      -0.013   1.076   0.008  0.00  0.00    +0.002 A 
ATOM     27  C   UNL     1      -1.220   1.758   0.017  0.00  0.00    +0.029 A 
ATOM     28  C   UNL     1      -1.226   3.124   0.030  0.00  0.00    +0.121 A 
ATOM     29  S   UNL     1      -2.498   4.358   0.048  0.00  0.00    +0.078 S 
ATOM     30  O   UNL     1      -3.156   4.282   1.306  0.00  0.00    -0.150 OA
ATOM     31  O   UNL     1      -3.180   4.294  -1.197  0.00  0.00    -0.150 OA
ENDBRANCH  19  20
ENDBRANCH  18  19
ENDBRANCH  17  18
ENDBRANCH   1  17
TORSDOF 8
