REMARK  Name = ZINC03600596
REMARK  2 active torsions:
REMARK  status: ('A' for Active; 'I' for Inactive)
REMARK    1  A    between atoms: N_13  and  C_17
REMARK    2  A    between atoms: C_17  and  C_18
REMARK                            x       y       z     vdW  Elec       q    Type
REMARK                         _______ _______ _______ _____ _____    ______ ____
ROOT
ATOM      1  C   UNL     1      -0.017   1.375   0.010  0.00  0.00    +0.000 A 
ATOM      2  C   UNL     1       1.174   2.078   0.002  0.00  0.00    +0.000 A 
ATOM      3  C   UNL     1       2.373   1.395  -0.016  0.00  0.00    +0.006 A 
ATOM      4  C   UNL     1       2.394   0.006  -0.026  0.00  0.00    -0.012 A 
ATOM      5  C   UNL     1       1.207  -0.694  -0.013  0.00  0.00    -0.042 A 
ATOM      6  C   UNL     1       0.002  -0.004   0.002  0.00  0.00    +0.004 A 
ATOM      7  C   UNL     1       1.157  -2.199  -0.006  0.00  0.00    +0.035 C 
ATOM      8  C   UNL     1       2.490  -2.786  -0.467  0.00  0.00    +0.008 C 
ATOM      9  C   UNL     1       3.614  -2.143   0.354  0.00  0.00    +0.040 C 
ATOM     10  C   UNL     1       3.731  -0.680  -0.054  0.00  0.00    +0.138 C 
ATOM     11  C   UNL     1       4.347  -0.566  -1.430  0.00  0.00    +0.251 C 
ATOM     12  O   UNL     1       3.905  -1.003  -2.470  0.00  0.00    -0.272 OA
ATOM     13  N   UNL     1       5.493   0.123  -1.256  0.00  0.00    -0.215 N 
ATOM     14  C   UNL     1       5.679   0.456   0.027  0.00  0.00    +0.310 C 
ATOM     15  O   UNL     1       6.641   1.080   0.431  0.00  0.00    -0.252 OA
ATOM     16  N   UNL     1       4.682   0.021   0.820  0.00  0.00    -0.281 N 
ATOM     17  H   UNL     1       4.606   0.146   1.779  0.00  0.00    +0.152 HD
ENDROOT
BRANCH  13  18
ATOM     18  C   UNL     1       6.420   0.466  -2.338  0.00  0.00    +0.213 C 
BRANCH  18  19
ATOM     19  C   UNL     1       6.038   1.801  -2.923  0.00  0.00    +0.234 C 
ATOM     20  O   UNL     1       5.085   2.407  -2.481  0.00  0.00    -0.274 OA
ATOM     21  N   UNL     1       6.754   2.322  -3.939  0.00  0.00    -0.300 N 
ATOM     22  C   UNL     1       7.888   1.577  -4.440  0.00  0.00    +0.108 C 
ATOM     23  C   UNL     1       9.159   1.963  -3.655  0.00  0.00    +0.019 C 
ATOM     24  C   UNL     1       9.585   3.325  -4.011  0.00  0.00    +0.002 C 
ATOM     25  C   UNL     1       8.575   4.412  -3.656  0.00  0.00    +0.002 C 
ATOM     26  C   UNL     1       7.565   4.538  -4.770  0.00  0.00    +0.019 C 
ATOM     27  C   UNL     1       6.353   3.631  -4.490  0.00  0.00    +0.108 C 
ENDBRANCH  18  19
ENDBRANCH  13  18
TORSDOF 2
