REMARK  Name = ZINC11865400
REMARK  9 active torsions:
REMARK  status: ('A' for Active; 'I' for Inactive)
REMARK    1  A    between atoms: C_1  and  C_2
REMARK    2  A    between atoms: C_6  and  O_24
REMARK    3  A    between atoms: C_7  and  C_23
REMARK    4  A    between atoms: C_12  and  C_13
REMARK    5  A    between atoms: C_13  and  C_14
REMARK    6  A    between atoms: C_14  and  C_15
REMARK    7  A    between atoms: N_17  and  CA_18
REMARK    8  A    between atoms: CA_18  and  CB_20
REMARK    9  A    between atoms: CA_18  and  C_21
REMARK                            x       y       z     vdW  Elec       q    Type
REMARK                         _______ _______ _______ _____ _____    ______ ____
ROOT
ATOM      1  C   UNK A   0       2.523   5.657  -2.485  0.00  0.00    +0.045 C 
ATOM      2  C   UNK A   0       2.520   6.381  -1.163  0.00  0.00    -0.030 A 
ATOM      3  C   UNK A   0       2.495   7.844  -1.107  0.00  0.00    +0.021 A 
ATOM      4  C   UNK A   0       2.473   8.610  -2.278  0.00  0.00    +0.015 A 
ATOM      5  C   UNK A   0       2.456   9.973  -2.197  0.00  0.00    +0.046 A 
ATOM      6  C   UNK A   0       2.459  10.606  -0.955  0.00  0.00    +0.123 A 
ATOM      7  C   UNK A   0       2.480   9.863   0.214  0.00  0.00    +0.034 A 
ATOM      8  C   UNK A   0       2.498   8.478   0.150  0.00  0.00    +0.146 A 
ATOM      9  O   UNK A   0       2.519   7.735   1.277  0.00  0.00    -0.422 OA
ATOM     10  C   UNK A   0       2.537   6.394   1.232  0.00  0.00    +0.341 A 
ATOM     11  O   UNK A   0       2.555   5.766   2.276  0.00  0.00    -0.245 OA
ATOM     12  C   UNK A   0       2.535   5.694   0.008  0.00  0.00    +0.041 A 
ATOM     13  C   UNK A   0       2.483  10.558   1.551  0.00  0.00    +0.051 C 
ENDROOT
BRANCH   6  14
ATOM     14  O   UNK A   0       2.442  11.962  -0.891  0.00  0.00    -0.506 OA
ATOM     15  H   UNK A   0       3.320  12.366  -0.881  0.00  0.00    +0.292 HD
ENDBRANCH   6  14
BRANCH  12  16
ATOM     16  C   UNK A   0       2.555   4.187   0.000  0.00  0.00    +0.052 C 
BRANCH  16  17
ATOM     17  C   UNK A   0       1.120   3.657   0.011  0.00  0.00    +0.100 C 
BRANCH  17  18
ATOM     18  C   UNK A   0       1.140   2.151   0.003  0.00  0.00    +0.214 C 
ATOM     19  O   UNK A   0       2.199   1.558  -0.011  0.00  0.00    -0.276 OA
ATOM     20  N   ALA A   1      -0.018   1.461   0.010  0.00  0.00    -0.302 N 
ATOM     21  H   ALA A   1      -0.864   1.934   0.017  0.00  0.00    +0.150 HD
BRANCH  20  22
ATOM     22  CA  ALA A   1       0.002  -0.004   0.002  0.00  0.00    +0.183 C 
ATOM     23  CB  ALA A   1       0.121  -0.505  -1.439  0.00  0.00    +0.040 C 
BRANCH  22  24
ATOM     24  C   ALA A   1      -1.273  -0.527   0.612  0.00  0.00    +0.376 C 
ATOM     25  O   ALA A   1      -2.112   0.245   1.012  0.00  0.00    -0.244 OA
ATOM     26  OXT ALA A   1      -1.476  -1.850   0.710  0.00  0.00    -0.244 OA
ENDBRANCH  22  24
ENDBRANCH  20  22
ENDBRANCH  17  18
ENDBRANCH  16  17
ENDBRANCH  12  16
TORSDOF 6
