REMARK  Name = ZINC64313313
REMARK  8 active torsions:
REMARK  status: ('A' for Active; 'I' for Inactive)
REMARK    1  A    between atoms: C_1  and  C_2
REMARK    2  A    between atoms: C_2  and  C_3
REMARK    3  A    between atoms: C_3  and  C_4
REMARK    4  A    between atoms: C_4  and  C_5
REMARK    5  A    between atoms: C_4  and  N_24
REMARK    6  A    between atoms: N_7  and  C_8
REMARK    7  A    between atoms: C_8  and  C_9
REMARK    8  A    between atoms: C_9  and  C_15
REMARK                            x       y       z     vdW  Elec       q    Type
REMARK                         _______ _______ _______ _____ _____    ______ ____
ROOT
ATOM      1  C   UNL     1       3.697  -2.655   3.586  0.00  0.00    +0.115 C 
ENDROOT
BRANCH   1   2
ATOM      2  C   UNL     1       5.141  -2.149   3.586  0.00  0.00    +0.011 C 
ATOM      3  C   UNL     1       5.148  -0.626   3.733  0.00  0.00    +0.013 C 
ATOM      4  C   UNL     1       4.471  -0.238   5.049  0.00  0.00    +0.001 C 
ATOM      5  C   UNL     1       5.231  -0.867   6.219  0.00  0.00    +0.000 C 
ATOM      6  C   UNL     1       5.224  -2.390   6.072  0.00  0.00    +0.001 C 
ATOM      7  C   UNL     1       5.901  -2.778   4.756  0.00  0.00    +0.013 C 
BRANCH   2   8
ATOM      8  C   UNL     1       5.808  -2.532   2.290  0.00  0.00    -0.036 A 
ATOM      9  C   UNL     1       6.879  -3.406   2.297  0.00  0.00    +0.008 A 
ATOM     10  C   UNL     1       7.494  -3.760   1.111  0.00  0.00    +0.050 A 
ATOM     11  C   UNL     1       7.037  -3.239  -0.089  0.00  0.00    +0.166 A 
ATOM     12  C   UNL     1       5.958  -2.359  -0.096  0.00  0.00    +0.167 A 
ATOM     13  C   UNL     1       5.343  -2.013   1.096  0.00  0.00    +0.053 A 
ATOM     14  O   UNL     1       5.704  -1.991  -1.386  0.00  0.00    -0.453 OA
ATOM     15  C   UNL     1       6.891  -2.333  -2.125  0.00  0.00    +0.466 C 
ATOM     16  O   UNL     1       7.458  -3.423  -1.375  0.00  0.00    -0.453 OA
ENDBRANCH   2   8
ENDBRANCH   1   2
BRANCH   1  19
ATOM     17  C   UNL     1       2.527  -4.789   3.466  0.00  0.00    +0.233 C 
ATOM     18  O   UNL     1       1.489  -4.198   3.674  0.00  0.00    -0.274 OA
ATOM     19  N   UNL     1       3.689  -4.109   3.403  0.00  0.00    -0.313 N 
ATOM     20  H   UNL     1       4.519  -4.581   3.236  0.00  0.00    +0.149 HD
BRANCH  17  21
ATOM     21  C   UNL     1       2.519  -6.284   3.277  0.00  0.00    +0.160 C 
BRANCH  21  22
ATOM     22  N   UNL     1       1.146  -6.783   3.390  0.00  0.00    -0.288 N 
ATOM     23  C   UNL     1       0.921  -8.060   3.759  0.00  0.00    +0.298 C 
ATOM     24  O   UNL     1       1.857  -8.798   3.997  0.00  0.00    -0.253 OA
ATOM     25  N   UNL     1      -0.342  -8.519   3.863  0.00  0.00    -0.313 N 
ATOM     26  H   UNL     1       0.399  -6.194   3.200  0.00  0.00    +0.151 HD
ATOM     27  H   UNL     1      -1.089  -7.930   3.672  0.00  0.00    +0.146 HD
ATOM     28  H   UNL     1      -0.504  -9.438   4.128  0.00  0.00    +0.146 HD
ENDBRANCH  21  22
BRANCH  21  29
ATOM     29  C   UNL     1       3.073  -6.627   1.893  0.00  0.00    +0.031 C 
BRANCH  29  31
ATOM     30  C   UNL     1       3.736  -8.490   0.365  0.00  0.00    +0.004 C 
ATOM     31  C   UNL     1       3.182  -8.147   1.749  0.00  0.00    -0.001 C 
ENDBRANCH  29  31
ENDBRANCH  21  29
ENDBRANCH  17  21
ENDBRANCH   1  19
TORSDOF 7
