REMARK  Name = ZINC65421493
REMARK  3 active torsions:
REMARK  status: ('A' for Active; 'I' for Inactive)
REMARK    1  A    between atoms: C_1  and  C_2
REMARK    2  A    between atoms: C_2  and  C_20
REMARK    3  A    between atoms: C_6  and  C_15
REMARK                            x       y       z     vdW  Elec       q    Type
REMARK                         _______ _______ _______ _____ _____    ______ ____
ROOT
ATOM      1  C   UNL     1      -0.019   1.526   0.010  0.00  0.00    +0.013 C 
ATOM      2  C   UNL     1       0.002  -0.004   0.002  0.00  0.00    -0.014 C 
ATOM      3  C   UNL     1      -1.435  -0.533   0.009  0.00  0.00    +0.060 C 
ATOM      4  C   UNL     1      -2.149  -0.047   1.245  0.00  0.00    +0.042 C 
ATOM      5  N   UNL     1      -3.232   0.630   1.261  0.00  0.00    -0.264 NA
ATOM      6  C   UNL     1      -3.624   0.964   2.634  0.00  0.00    +0.239 C 
ATOM      7  N   UNL     1      -2.860   0.046   3.510  0.00  0.00    -0.274 NA
ATOM      8  C   UNL     1      -1.696  -0.311   2.666  0.00  0.00    +0.187 C 
ATOM      9  C   UNL     1      -0.548   0.617   2.989  0.00  0.00    +0.236 C 
ATOM     10  O   UNL     1      -0.670   1.482   3.830  0.00  0.00    -0.274 OA
ATOM     11  N   UNL     1       0.613   0.464   2.325  0.00  0.00    -0.313 N 
ATOM     12  C   UNL     1       0.742  -0.510   1.242  0.00  0.00    +0.111 C 
ATOM     13  C   UNL     1       0.720  -0.497  -1.256  0.00  0.00    +0.013 C 
ATOM     14  H   UNL     1      -2.565   0.514   4.354  0.00  0.00    +0.125 HD
ATOM     15  H   UNL     1       1.377   1.010   2.570  0.00  0.00    +0.149 HD
ENDROOT
BRANCH   6  16
ATOM     16  C   UNL     1      -5.104   0.749   2.818  0.00  0.00    +0.146 A 
ATOM     17  N   UNL     1      -5.688   0.390   3.928  0.00  0.00    -0.237 NA
ATOM     18  C   UNL     1      -7.010   0.295   3.723  0.00  0.00    +0.130 A 
ATOM     19  C   UNL     1      -7.255   0.608   2.436  0.00  0.00    +0.104 A 
ATOM     20  N   UNL     1      -6.047   0.900   1.863  0.00  0.00    -0.345 N 
ATOM     21  H   UNL     1      -5.896   1.166   0.942  0.00  0.00    +0.167 HD
ENDBRANCH   6  16
TORSDOF 1
