REMARK  Name = ZINC43736263
REMARK  6 active torsions:
REMARK  status: ('A' for Active; 'I' for Inactive)
REMARK    1  A    between atoms: C_1  and  C_2
REMARK    2  A    between atoms: C_4  and  O_34
REMARK    3  A    between atoms: C_14  and  C_20
REMARK    4  A    between atoms: C_16  and  C_18
REMARK    5  A    between atoms: C_16  and  C_19
REMARK    6  A    between atoms: C_31  and  C_32
REMARK                            x       y       z     vdW  Elec       q    Type
REMARK                         _______ _______ _______ _____ _____    ______ ____
ROOT
ATOM      1  C   UNL     1       0.105   1.859   0.009  0.00  0.00    +0.015 C 
ATOM      2  C   UNL     1       0.325   0.356   0.226  0.00  0.00    +0.016 C 
ATOM      3  C   UNL     1       0.338  -0.210  -1.148  0.00  0.00    +0.045 C 
ATOM      4  C   UNL     1       1.298  -1.356  -1.389  0.00  0.00    +0.154 C 
ATOM      5  C   UNL     1       2.678  -1.133  -0.782  0.00  0.00    +0.153 C 
ATOM      6  C   UNL     1       2.585  -0.768   0.681  0.00  0.00    +0.034 C 
ATOM      7  C   UNL     1       1.594   0.302   1.068  0.00  0.00    +0.007 C 
ATOM      8  C   UNL     1       1.106  -0.070   2.520  0.00  0.00    +0.039 C 
ATOM      9  C   UNL     1      -0.141  -0.880   2.228  0.00  0.00    +0.165 C 
ATOM     10  C   UNL     1      -0.813   0.003   1.113  0.00  0.00    +0.204 C 
ATOM     11  O   UNL     1      -1.990  -0.697   0.875  0.00  0.00    -0.328 OA
ATOM     12  C   UNL     1      -2.320  -1.321   2.151  0.00  0.00    +0.166 C 
ATOM     13  O   UNL     1      -1.257  -0.972   3.092  0.00  0.00    -0.342 OA
ATOM     14  C   UNL     1      -2.387  -2.841   1.982  0.00  0.00    +0.074 C 
ATOM     15  C   UNL     1      -3.667  -0.810   2.663  0.00  0.00    +0.074 C 
ATOM     16  C   UNL     1       3.940  -0.540   1.342  0.00  0.00    +0.011 C 
ATOM     17  C   UNL     1       4.795   0.460   0.557  0.00  0.00    +0.032 C 
ATOM     18  C   UNL     1       4.873  -0.040  -0.873  0.00  0.00    -0.053 C 
ATOM     19  C   UNL     1       6.044  -0.302  -1.426  0.00  0.00    +0.051 C 
ATOM     20  C   UNL     1       6.121  -0.774  -2.819  0.00  0.00    +0.179 C 
ATOM     21  O   UNL     1       7.194  -1.045  -3.327  0.00  0.00    -0.288 OA
ATOM     22  C   UNL     1       4.871  -0.904  -3.589  0.00  0.00    +0.047 C 
ATOM     23  C   UNL     1       3.710  -0.632  -3.011  0.00  0.00    -0.009 C 
ATOM     24  C   UNL     1       3.558  -0.203  -1.593  0.00  0.00    +0.044 C 
ATOM     25  C   UNL     1       2.956   1.196  -1.657  0.00  0.00    +0.023 C 
ATOM     26  F   UNL     1       3.328  -2.411  -0.826  0.00  0.00    -0.238 F 
ENDROOT
BRANCH  10  27
ATOM     27  C   UNL     1      -1.218   1.286   1.798  0.00  0.00    +0.390 C 
ATOM     28  O   UNL     1      -2.296   1.797   1.546  0.00  0.00    -0.243 OA
ATOM     29  O   UNL     1      -0.467   1.812   2.601  0.00  0.00    -0.243 OA
ENDBRANCH  10  27
BRANCH   4  30
ATOM     30  O   UNL     1       0.738  -2.568  -0.858  0.00  0.00    -0.389 OA
ATOM     31  H   UNL     1      -0.109  -2.817  -1.253  0.00  0.00    +0.210 HD
ENDBRANCH   4  30
TORSDOF 2
