REMARK  Name = ZINC66739979
REMARK  4 active torsions:
REMARK  status: ('A' for Active; 'I' for Inactive)
REMARK    1  A    between atoms: C_1  and  C_2
REMARK    2  A    between atoms: C_2  and  C_3
REMARK    3  A    between atoms: C_5  and  C_8
REMARK    4  A    between atoms: C_12  and  C_20
REMARK                            x       y       z     vdW  Elec       q    Type
REMARK                         _______ _______ _______ _____ _____    ______ ____
ROOT
ATOM      1  C   UNL     1       0.451  -1.556   4.738  0.00  0.00    +0.209 C 
ATOM      2  N   UNL     1      -0.947  -1.991   4.584  0.00  0.00    -0.318 N 
ATOM      3  C   UNL     1      -1.155  -3.321   4.195  0.00  0.00    +0.082 A 
ATOM      4  C   UNL     1      -2.142  -3.971   3.571  0.00  0.00    +0.055 A 
ATOM      5  N   UNL     1      -1.752  -5.276   3.468  0.00  0.00    -0.279 N 
ATOM      6  H   UNL     1      -2.275  -5.981   3.054  0.00  0.00    +0.189 HD
ATOM      7  N   UNL     1      -0.586  -5.438   4.001  0.00  0.00    -0.167 NA
ATOM      8  C   UNL     1      -0.151  -4.306   4.470  0.00  0.00    +0.168 A 
ATOM      9  C   UNL     1       1.081  -3.909   5.178  0.00  0.00    +0.268 C 
ATOM     10  O   UNL     1       1.877  -4.735   5.583  0.00  0.00    -0.268 OA
ATOM     11  N   UNL     1       1.282  -2.584   5.354  0.00  0.00    -0.287 N 
ATOM     12  C   UNL     1      -3.437  -3.379   3.076  0.00  0.00    +0.067 C 
ATOM     13  H   UNL     1      -1.688  -1.386   4.744  0.00  0.00    +0.148 HD
ATOM     14  H   UNL     1       2.019  -2.303   5.918  0.00  0.00    +0.151 HD
ENDROOT
BRANCH   1  17
ATOM     15  C   UNL     1       0.731  -0.503   1.223  0.00  0.00    +0.078 A 
ATOM     16  N   UNL     1       0.240  -0.793   2.402  0.00  0.00    -0.245 NA
ATOM     17  C   UNL     1       1.012  -1.223   3.380  0.00  0.00    +0.087 A 
ATOM     18  C   UNL     1       2.336  -1.351   3.107  0.00  0.00    +0.073 A 
ATOM     19  S   UNL     1       2.372  -0.831   1.400  0.00  0.00    -0.080 S 
BRANCH  15  21
ATOM     20  C   UNL     1      -0.019   1.526   0.010  0.00  0.00    +0.011 C 
ATOM     21  C   UNL     1       0.002  -0.004   0.002  0.00  0.00    +0.059 C 
ENDBRANCH  15  21
ENDBRANCH   1  17
TORSDOF 2
