REMARK  Name = ZINC59517912
REMARK  7 active torsions:
REMARK  status: ('A' for Active; 'I' for Inactive)
REMARK    1  A    between atoms: C_1  and  C_2
REMARK    2  A    between atoms: C_2  and  C_3
REMARK    3  A    between atoms: N_5  and  C_18
REMARK    4  A    between atoms: C_6  and  C_8
REMARK    5  A    between atoms: C_6  and  O_17
REMARK    6  A    between atoms: C_11  and  N_14
REMARK    7  A    between atoms: C_18  and  C_20
REMARK                            x       y       z     vdW  Elec       q    Type
REMARK                         _______ _______ _______ _____ _____    ______ ____
ROOT
ATOM      1  C   UNL     1      -1.412  -0.526   0.013  0.00  0.00    +0.042 C 
ATOM      2  N   UNL     1      -2.457   0.196   0.021  0.00  0.00    -0.185 NA
ATOM      3  N   UNL     1      -3.652  -0.519   0.030  0.00  0.00    -0.181 N 
ATOM      4  C   UNL     1      -3.342  -1.958   0.027  0.00  0.00    +0.184 C 
ATOM      5  C   UNL     1      -1.800  -1.987   0.009  0.00  0.00    +0.114 C 
ENDROOT
BRANCH   4   6
ATOM      6  C   UNL     1      -3.895  -2.619  -1.209  0.00  0.00    +0.004 A 
ATOM      7  C   UNL     1      -4.261  -3.952  -1.175  0.00  0.00    +0.010 A 
ATOM      8  C   UNL     1      -4.769  -4.559  -2.309  0.00  0.00    +0.033 A 
ATOM      9  C   UNL     1      -4.912  -3.832  -3.476  0.00  0.00    +0.126 A 
ATOM     10  C   UNL     1      -4.547  -2.499  -3.510  0.00  0.00    +0.033 A 
ATOM     11  C   UNL     1      -4.043  -1.892  -2.375  0.00  0.00    +0.010 A 
BRANCH   9  12
ATOM     12  N   UNL     1      -5.455  -4.482  -4.690  0.00  0.00    +0.056 N 
ATOM     13  O   UNL     1      -5.773  -5.647  -4.661  0.00  0.00    -0.126 OA
ATOM     14  O   UNL     1      -5.579  -3.846  -5.711  0.00  0.00    -0.126 OA
ENDBRANCH   9  12
ENDBRANCH   4   6
BRANCH   1  16
ATOM     15  C   UNL     1      -0.019   1.526   0.010  0.00  0.00    +0.010 C 
ATOM     16  C   UNL     1       0.002  -0.004   0.002  0.00  0.00    +0.049 C 
ENDBRANCH   1  16
BRANCH   4  17
ATOM     17  O   UNL     1      -3.849  -2.586   1.206  0.00  0.00    -0.366 OA
ATOM     18  H   UNL     1      -4.809  -2.532   1.299  0.00  0.00    +0.212 HD
ENDBRANCH   4  17
BRANCH   3  19
ATOM     19  C   UNL     1      -4.889   0.017   0.040  0.00  0.00    +0.106 C 
ATOM     20  S   UNL     1      -6.264  -1.002   0.051  0.00  0.00    -0.033 S 
BRANCH  19  21
ATOM     21  C   UNL     1      -5.057   1.484   0.042  0.00  0.00    +0.005 A 
ATOM     22  C   UNL     1      -4.163   2.293  -0.662  0.00  0.00    +0.010 A 
ATOM     23  C   UNL     1      -4.326   3.663  -0.657  0.00  0.00    +0.001 A 
ATOM     24  C   UNL     1      -5.372   4.235   0.045  0.00  0.00    +0.000 A 
ATOM     25  C   UNL     1      -6.261   3.439   0.745  0.00  0.00    +0.001 A 
ATOM     26  C   UNL     1      -6.114   2.068   0.743  0.00  0.00    +0.010 A 
ENDBRANCH  19  21
ENDBRANCH   3  19
TORSDOF 6
