REMARK  Name = ZINC01427790
REMARK  7 active torsions:
REMARK  status: ('A' for Active; 'I' for Inactive)
REMARK    1  A    between atoms: C_1  and  C_2
REMARK    2  A    between atoms: C_2  and  O_3
REMARK    3  A    between atoms: O_3  and  C_4
REMARK    4  A    between atoms: C_7  and  C_10
REMARK    5  A    between atoms: N_20  and  C_23
REMARK    6  A    between atoms: C_25  and  N_29
REMARK    7  A    between atoms: C_26  and  C_27
REMARK                            x       y       z     vdW  Elec       q    Type
REMARK                         _______ _______ _______ _____ _____    ______ ____
ROOT
ATOM      1  C   UNL     1      -1.198  -2.185   0.003  0.00  0.00    +0.103 C 
ATOM      2  C   UNL     1       0.141  -2.728  -0.421  0.00  0.00    +0.072 A 
ATOM      3  C   UNL     1       1.247  -1.933  -0.406  0.00  0.00    +0.148 A 
ATOM      4  C   UNL     1       2.532  -2.508  -0.831  0.00  0.00    +0.041 A 
ATOM      5  C   UNL     1       3.699  -1.741  -0.838  0.00  0.00    +0.013 A 
ATOM      6  C   UNL     1       4.878  -2.306  -1.239  0.00  0.00    +0.001 A 
ATOM      7  C   UNL     1       4.923  -3.634  -1.639  0.00  0.00    +0.002 A 
ATOM      8  C   UNL     1       3.783  -4.408  -1.639  0.00  0.00    +0.026 A 
ATOM      9  C   UNL     1       2.573  -3.853  -1.235  0.00  0.00    +0.055 A 
ATOM     10  N   UNL     1       1.415  -4.602  -1.225  0.00  0.00    -0.311 N 
ATOM     11  C   UNL     1       0.245  -4.068  -0.837  0.00  0.00    +0.259 A 
ATOM     12  O   UNL     1      -0.756  -4.765  -0.844  0.00  0.00    -0.267 OA
ATOM     13  C   UNL     1       1.461  -6.005  -1.645  0.00  0.00    +0.152 C 
ATOM     14  O   UNL     1       1.184  -0.645  -0.013  0.00  0.00    -0.440 OA
ATOM     15  C   UNL     1       0.002  -0.004   0.002  0.00  0.00    +0.199 C 
ATOM     16  C   UNL     1      -1.171  -0.682   0.015  0.00  0.00    +0.098 C 
ENDROOT
BRANCH   1  20
ATOM     17  C   UNL     1      -2.119  -3.602   3.928  0.00  0.00    +0.121 A 
ATOM     18  C   UNL     1      -2.957  -3.905   2.865  0.00  0.00    +0.046 A 
ATOM     19  C   UNL     1      -2.657  -3.446   1.598  0.00  0.00    +0.008 A 
ATOM     20  C   UNL     1      -1.522  -2.684   1.387  0.00  0.00    -0.034 A 
ATOM     21  C   UNL     1      -0.682  -2.385   2.444  0.00  0.00    +0.008 A 
ATOM     22  C   UNL     1      -0.981  -2.837   3.715  0.00  0.00    +0.046 A 
BRANCH  17  23
ATOM     23  O   UNL     1      -2.411  -4.053   5.176  0.00  0.00    -0.492 OA
BRANCH  23  25
ATOM     24  C   UNL     1      -1.995  -4.295   7.545  0.00  0.00    +0.048 C 
ATOM     25  C   UNL     1      -1.503  -3.702   6.223  0.00  0.00    +0.225 C 
ENDBRANCH  23  25
ENDBRANCH  17  23
ENDBRANCH   1  20
BRANCH  15  26
ATOM     26  N   UNL     1      -0.017   1.368   0.010  0.00  0.00    -0.328 N 
ATOM     27  H   UNL     1       0.817   1.865   0.004  0.00  0.00    +0.145 HD
ATOM     28  H   UNL     1      -0.863   1.842   0.016  0.00  0.00    +0.145 HD
ENDBRANCH  15  26
BRANCH  16  29
ATOM     29  C   UNL     1      -2.405   0.045   0.036  0.00  0.00    +0.101 C 
ATOM     30  N   UNL     1      -3.383   0.621   0.052  0.00  0.00    -0.191 NA
ENDBRANCH  16  29
TORSDOF 5
