REMARK  Name = ZINC43794163
REMARK  10 active torsions:
REMARK  status: ('A' for Active; 'I' for Inactive)
REMARK    1  A    between atoms: C_1  and  C_2
REMARK    2  A    between atoms: C_2  and  C_4
REMARK    3  A    between atoms: C_2  and  N_16
REMARK    4  A    between atoms: N_6  and  C_7
REMARK    5  A    between atoms: C_10  and  N_13
REMARK    6  A    between atoms: C_17  and  C_19
REMARK    7  A    between atoms: C_19  and  C_21
REMARK    8  A    between atoms: C_19  and  N_24
REMARK    9  A    between atoms: C_21  and  C_22
REMARK   10  A    between atoms: C_21  and  C_23
REMARK                            x       y       z     vdW  Elec       q    Type
REMARK                         _______ _______ _______ _____ _____    ______ ____
ROOT
ATOM      1  C   UNL     1      -0.013   1.521  -0.004  0.00  0.00    +0.038 C 
ATOM      2  C   UNL     1       0.004  -0.009  -0.002  0.00  0.00    +0.156 C 
ENDROOT
BRANCH   2   3
ATOM      3  C   UNL     1       0.730  -0.502   1.224  0.00  0.00    +0.237 C 
ATOM      4  O   UNL     1       0.156  -1.205   2.028  0.00  0.00    -0.273 OA
ATOM      5  N   UNL     1       2.019  -0.161   1.426  0.00  0.00    -0.284 N 
ATOM      6  H   UNL     1       2.498   0.344   0.751  0.00  0.00    +0.155 HD
BRANCH   5   7
ATOM      7  C   UNL     1       2.664  -0.537   2.609  0.00  0.00    +0.034 A 
ATOM      8  C   UNL     1       3.602   0.308   3.188  0.00  0.00    +0.025 A 
ATOM      9  C   UNL     1       4.238  -0.066   4.356  0.00  0.00    +0.034 A 
ATOM     10  C   UNL     1       3.941  -1.280   4.949  0.00  0.00    +0.126 A 
ATOM     11  C   UNL     1       3.008  -2.123   4.374  0.00  0.00    +0.034 A 
ATOM     12  C   UNL     1       2.364  -1.752   3.210  0.00  0.00    +0.025 A 
BRANCH  10  13
ATOM     13  N   UNL     1       4.624  -1.677   6.200  0.00  0.00    +0.056 N 
ATOM     14  O   UNL     1       5.440  -0.941   6.704  0.00  0.00    -0.126 OA
ATOM     15  O   UNL     1       4.365  -2.738   6.720  0.00  0.00    -0.126 OA
ENDBRANCH  10  13
ENDBRANCH   5   7
ENDBRANCH   2   3
BRANCH   2  16
ATOM     16  N   UNL     1      -1.371  -0.513   0.011  0.00  0.00    -0.306 N 
ATOM     17  C   UNL     1      -2.049  -0.651  -1.146  0.00  0.00    +0.199 C 
ATOM     18  O   UNL     1      -1.520  -0.358  -2.197  0.00  0.00    -0.278 OA
ATOM     19  H   UNL     1      -1.795  -0.748   0.851  0.00  0.00    +0.149 HD
BRANCH  17  20
ATOM     20  C   UNL     1      -3.464  -1.169  -1.134  0.00  0.00    +0.015 C 
BRANCH  20  21
ATOM     21  N   UNL     1      -4.135  -0.790  -2.384  0.00  0.00    +0.386 N 
ATOM     22  H   UNL     1      -4.146   0.215  -2.468  0.00  0.00    -0.089 HD
ATOM     23  H   UNL     1      -3.638  -1.188  -3.167  0.00  0.00    -0.089 HD
ATOM     24  H   UNL     1      -5.083  -1.137  -2.376  0.00  0.00    -0.089 HD
ENDBRANCH  20  21
BRANCH  20  25
ATOM     25  C   UNL     1      -3.447  -2.694  -1.006  0.00  0.00    -0.023 C 
ATOM     26  C   UNL     1      -2.748  -3.089   0.296  0.00  0.00    +0.006 C 
ATOM     27  C   UNL     1      -4.884  -3.220  -0.993  0.00  0.00    +0.006 C 
ENDBRANCH  20  25
ENDBRANCH  17  20
ENDBRANCH   2  16
TORSDOF 7
