REMARK  Name = ZINC05245415
REMARK  7 active torsions:
REMARK  status: ('A' for Active; 'I' for Inactive)
REMARK    1  A    between atoms: C_1  and  C_2
REMARK    2  A    between atoms: C_2  and  C_4
REMARK    3  A    between atoms: C_2  and  S_12
REMARK    4  A    between atoms: N_6  and  C_7
REMARK    5  A    between atoms: S_12  and  C_13
REMARK    6  A    between atoms: C_16  and  C_19
REMARK    7  A    between atoms: N_17  and  N_18
REMARK                            x       y       z     vdW  Elec       q    Type
REMARK                         _______ _______ _______ _____ _____    ______ ____
ROOT
ATOM      1  C   UNL     1      -2.606  -4.431   3.968  0.00  0.00    +0.209 A 
ATOM      2  N   UNL     1      -2.855  -3.552   4.913  0.00  0.00    -0.121 NA
ATOM      3  N   UNL     1      -3.262  -4.148   5.975  0.00  0.00    -0.127 NA
ATOM      4  C   UNL     1      -3.299  -5.445   5.775  0.00  0.00    +0.183 A 
ATOM      5  N   UNL     1      -2.886  -5.666   4.481  0.00  0.00    -0.224 N 
ENDROOT
BRANCH   4   6
ATOM      6  C   UNL     1      -3.712  -6.474   6.753  0.00  0.00    +0.040 A 
ATOM      7  C   UNL     1      -2.932  -7.616   6.941  0.00  0.00    +0.033 A 
ATOM      8  C   UNL     1      -3.323  -8.573   7.856  0.00  0.00    +0.042 A 
ATOM      9  C   UNL     1      -4.487  -8.401   8.586  0.00  0.00    +0.021 A 
ATOM     10  C   UNL     1      -5.265  -7.272   8.405  0.00  0.00    +0.022 A 
ATOM     11  C   UNL     1      -4.882  -6.305   7.497  0.00  0.00    +0.052 A 
ATOM     12 CL   UNL     1      -5.856  -4.885   7.275  0.00  0.00    -0.083 Cl
ATOM     13 CL   UNL     1      -2.355  -9.994   8.091  0.00  0.00    -0.084 Cl
ENDBRANCH   4   6
BRANCH   5  14
ATOM     14  N   UNL     1      -2.775  -6.869   3.844  0.00  0.00    -0.295 N 
ATOM     15  H   UNL     1      -1.887  -7.304   4.044  0.00  0.00    +0.163 HD
ATOM     16  H   UNL     1      -3.540  -7.480   4.089  0.00  0.00    +0.163 HD
ENDBRANCH   5  14
BRANCH   1  17
ATOM     17  S   UNL     1      -2.028  -4.082   2.341  0.00  0.00    -0.072 S 
BRANCH  17  19
ATOM     18  C   UNL     1      -3.310  -1.685   2.613  0.00  0.00    +0.029 C 
ATOM     19  C   UNL     1      -1.912  -2.278   2.429  0.00  0.00    +0.137 C 
BRANCH  19  20
ATOM     20  C   UNL     1      -1.307  -1.751   1.153  0.00  0.00    +0.226 C 
ATOM     21  O   UNL     1      -1.399  -2.392   0.128  0.00  0.00    -0.275 OA
ATOM     22  N   UNL     1      -0.664  -0.566   1.151  0.00  0.00    -0.312 N 
ATOM     23  H   UNL     1      -0.591  -0.053   1.971  0.00  0.00    +0.149 HD
BRANCH  22  24
ATOM     24  C   UNL     1      -0.076  -0.054  -0.089  0.00  0.00    +0.073 C 
ATOM     25  C   UNL     1       0.029   1.480  -0.028  0.00  0.00    +0.022 C 
ATOM     26  C   UNL     1       1.527   1.825  -0.156  0.00  0.00    +0.002 C 
ATOM     27  C   UNL     1       2.254   0.543   0.320  0.00  0.00    +0.002 C 
ATOM     28  C   UNL     1       1.362  -0.588  -0.252  0.00  0.00    +0.022 C 
ENDBRANCH  22  24
ENDBRANCH  19  20
ENDBRANCH  17  19
ENDBRANCH   1  17
TORSDOF 6
