REMARK  Name = ZINC08820249
REMARK  7 active torsions:
REMARK  status: ('A' for Active; 'I' for Inactive)
REMARK    1  A    between atoms: C_9  and  S_11
REMARK    2  A    between atoms: S_11  and  C_12
REMARK    3  A    between atoms: C_12  and  C_13
REMARK    4  A    between atoms: N_15  and  N_16
REMARK    5  A    between atoms: C_17  and  C_19
REMARK    6  A    between atoms: C_19  and  N_20
REMARK    7  A    between atoms: C_24  and  C_25
REMARK                            x       y       z     vdW  Elec       q    Type
REMARK                         _______ _______ _______ _____ _____    ______ ____
ROOT
ATOM      1  N   UNL     1      -3.496  -6.348   0.087  0.00  0.00    -0.233 N 
ATOM      2  C   UNL     1      -2.910  -7.561   0.056  0.00  0.00    +0.247 C 
ATOM      3  O   UNL     1      -1.700  -7.649   0.024  0.00  0.00    -0.273 OA
ATOM      4  H   UNL     1      -4.463  -6.277   0.113  0.00  0.00    +0.173 HD
ENDROOT
BRANCH   1   7
ATOM      5  C   UNL     1      -3.296  -3.976   0.113  0.00  0.00    +0.239 C 
ATOM      6  O   UNL     1      -4.505  -3.888   0.145  0.00  0.00    -0.273 OA
ATOM      7  N   UNL     1      -2.709  -5.189   0.082  0.00  0.00    -0.234 N 
ATOM      8  H   UNL     1      -1.742  -5.259   0.056  0.00  0.00    +0.173 HD
BRANCH   5   9
ATOM      9  C   UNL     1      -2.450  -2.729   0.108  0.00  0.00    +0.174 C 
BRANCH   9  10
ATOM     10  S   UNL     1      -3.522  -1.272   0.154  0.00  0.00    -0.078 S 
BRANCH  10  19
ATOM     11  C   UNL     1       0.348   3.687   0.120  0.00  0.00    +0.002 A 
ATOM     12  C   UNL     1       1.326   2.705   0.082  0.00  0.00    +0.002 A 
ATOM     13  C   UNL     1       0.979   1.372   0.074  0.00  0.00    +0.030 A 
ATOM     14  C   UNL     1      -0.369   1.006   0.104  0.00  0.00    +0.090 A 
ATOM     15  C   UNL     1      -1.356   2.005   0.142  0.00  0.00    +0.067 A 
ATOM     16  C   UNL     1      -0.988   3.342   0.150  0.00  0.00    +0.028 A 
ATOM     17  N   UNL     1      -2.573   1.343   0.165  0.00  0.00    -0.333 N 
ATOM     18  H   UNL     1      -3.478   1.768   0.193  0.00  0.00    +0.168 HD
ATOM     19  C   UNL     1      -2.306   0.004   0.140  0.00  0.00    +0.168 A 
ATOM     20  N   UNL     1      -1.011  -0.192   0.104  0.00  0.00    -0.222 NA
ENDBRANCH  10  19
ENDBRANCH   9  10
ENDBRANCH   5   9
ENDBRANCH   1   7
BRANCH   2  21
ATOM     21  C   UNL     1      -3.756  -8.808   0.061  0.00  0.00    +0.212 C 
BRANCH  21  22
ATOM     22  N   UNL     1      -2.888  -9.987   0.023  0.00  0.00    -0.246 N 
ATOM     23  C   UNL     1      -2.473 -10.527   1.156  0.00  0.00    +0.259 C 
ATOM     24  O   UNL     1      -2.801 -10.058   2.231  0.00  0.00    -0.269 OA
ATOM     25  C   UNL     1      -1.629 -11.676   1.082  0.00  0.00    +0.078 C 
ATOM     26  C   UNL     1      -1.072 -12.410   2.087  0.00  0.00    +0.035 C 
ATOM     27  S   UNL     1      -1.500 -11.890  -0.688  0.00  0.00    -0.061 S 
ATOM     28  C   UNL     1      -2.529 -10.511  -1.169  0.00  0.00    +0.121 C 
ATOM     29  S   UNL     1      -2.950  -9.985  -2.743  0.00  0.00    -0.027 S 
BRANCH  26  30
ATOM     30  C   UNL     1      -1.162 -11.959   3.425  0.00  0.00    +0.013 A 
ATOM     31  C   UNL     1      -1.272 -12.703   4.595  0.00  0.00    +0.015 A 
ATOM     32  C   UNL     1      -1.338 -12.002   5.774  0.00  0.00    +0.008 A 
ATOM     33  C   UNL     1      -1.305 -10.644   5.742  0.00  0.00    +0.046 A 
ATOM     34  S   UNL     1      -1.171 -10.288   4.051  0.00  0.00    -0.097 S 
ENDBRANCH  26  30
ENDBRANCH  21  22
ENDBRANCH   2  21
TORSDOF 7
