REMARK  Name = ZINC09439352
REMARK  7 active torsions:
REMARK  status: ('A' for Active; 'I' for Inactive)
REMARK    1  A    between atoms: C_4  and  S_9
REMARK    2  A    between atoms: C_5  and  C_7
REMARK    3  A    between atoms: S_9  and  N_12
REMARK    4  A    between atoms: C_17  and  C_18
REMARK    5  A    between atoms: C_17  and  N_52
REMARK    6  A    between atoms: C_18  and  C_20
REMARK    7  A    between atoms: C_20  and  C_30
REMARK                            x       y       z     vdW  Elec       q    Type
REMARK                         _______ _______ _______ _____ _____    ______ ____
ROOT
ATOM      1  N   UNL     1      -0.872   3.042   1.182  0.00  0.00    -0.180 NA
ATOM      2  C   UNL     1      -0.731   1.581   1.268  0.00  0.00    +0.091 C 
ATOM      3  C   UNL     1      -0.013   1.086   0.008  0.00  0.00    -0.061 C 
ATOM      4  C   UNL     1      -0.705   3.040  -1.250  0.00  0.00    -0.061 C 
ATOM      5  C   UNL     1      -1.452   3.615  -0.042  0.00  0.00    +0.091 C 
ATOM      6  N   UNL     1      -0.753   1.564  -1.180  0.00  0.00    +0.386 N 
ATOM      7  H   UNL     1      -1.733   1.266  -1.103  0.00  0.00    -0.081 HD
ENDROOT
BRANCH   1   8
ATOM      8  S   UNL     1      -0.390   4.017   2.431  0.00  0.00    +0.062 S 
ATOM      9  O   UNL     1       0.587   3.288   3.162  0.00  0.00    -0.153 OA
ATOM     10  O   UNL     1      -0.125   5.295   1.870  0.00  0.00    -0.153 OA
BRANCH   8  14
ATOM     11  C   UNL     1      -3.957   4.525   5.188  0.00  0.00    +0.001 A 
ATOM     12  C   UNL     1      -2.821   3.867   5.628  0.00  0.00    +0.002 A 
ATOM     13  C   UNL     1      -1.736   3.709   4.785  0.00  0.00    +0.030 A 
ATOM     14  C   UNL     1      -1.776   4.215   3.502  0.00  0.00    +0.123 A 
ATOM     15  C   UNL     1      -2.918   4.879   3.052  0.00  0.00    +0.078 A 
ATOM     16  C   UNL     1      -4.012   5.031   3.906  0.00  0.00    +0.021 A 
BRANCH  15  17
ATOM     17  C   UNL     1      -2.969   5.402   1.719  0.00  0.00    +0.101 C 
ATOM     18  N   UNL     1      -3.009   5.816   0.662  0.00  0.00    -0.191 NA
ENDBRANCH  15  17
ENDBRANCH   8  14
ENDBRANCH   1   8
BRANCH   6  19
ATOM     19  C   UNL     1      -0.170   0.981  -2.406  0.00  0.00    +0.003 C 
BRANCH  19  20
ATOM     20  C   UNL     1      -1.068   1.304  -3.572  0.00  0.00    +0.160 C 
ATOM     21  O   UNL     1      -2.074   1.965  -3.399  0.00  0.00    -0.293 OA
BRANCH  20  22
ATOM     22  C   UNL     1      -0.743   0.843  -4.858  0.00  0.00    +0.128 C 
ATOM     23  C   UNL     1      -1.581   1.145  -5.947  0.00  0.00    +0.113 C 
ATOM     24  N   UNL     1      -2.730   1.866  -5.878  0.00  0.00    -0.300 N 
ATOM     25  C   UNL     1      -3.269   1.950  -7.157  0.00  0.00    +0.054 A 
ATOM     26  C   UNL     1      -4.409   2.556  -7.667  0.00  0.00    +0.025 A 
ATOM     27  C   UNL     1      -4.694   2.462  -9.014  0.00  0.00    +0.002 A 
ATOM     28  C   UNL     1      -3.847   1.765  -9.860  0.00  0.00    +0.002 A 
ATOM     29  C   UNL     1      -2.711   1.158  -9.363  0.00  0.00    +0.025 A 
ATOM     30  C   UNL     1      -2.415   1.247  -8.009  0.00  0.00    +0.054 A 
ATOM     31  N   UNL     1      -1.373   0.756  -7.231  0.00  0.00    -0.300 N 
ATOM     32  H   UNL     1      -3.108   2.257  -5.075  0.00  0.00    +0.153 HD
ATOM     33  H   UNL     1      -0.626   0.227  -7.551  0.00  0.00    +0.153 HD
BRANCH  22  34
ATOM     34  C   UNL     1       0.442   0.065  -5.062  0.00  0.00    +0.106 C 
ATOM     35  N   UNL     1       1.382  -0.552  -5.223  0.00  0.00    -0.191 NA
ENDBRANCH  22  34
ENDBRANCH  20  22
ENDBRANCH  19  20
ENDBRANCH   6  19
TORSDOF 7
