REMARK  Name = ZINC20532311
REMARK  6 active torsions:
REMARK  status: ('A' for Active; 'I' for Inactive)
REMARK    1  A    between atoms: C_1  and  C_2
REMARK    2  A    between atoms: C_2  and  N_3
REMARK    3  A    between atoms: C_6  and  N_9
REMARK    4  A    between atoms: N_9  and  C_10
REMARK    5  A    between atoms: C_10  and  C_11
REMARK    6  A    between atoms: N_20  and  C_21
REMARK                            x       y       z     vdW  Elec       q    Type
REMARK                         _______ _______ _______ _____ _____    ______ ____
ROOT
ATOM      1  N   UNL     1      -1.370  -0.513   0.071  0.00  0.00    -0.278 N 
ATOM      2  C   UNL     1      -2.151  -0.204   1.126  0.00  0.00    +0.303 C 
ATOM      3  O   UNL     1      -1.716   0.496   2.019  0.00  0.00    -0.253 OA
ATOM      4  N   UNL     1      -3.413  -0.672   1.189  0.00  0.00    -0.294 N 
ATOM      5  H   UNL     1      -3.806  -1.306   0.381  0.00  0.00    +0.151 HD
ENDROOT
BRANCH   4   6
ATOM      6  C   UNL     1      -4.262  -0.337   2.335  0.00  0.00    +0.037 C 
ATOM      7  C   UNL     1      -4.426   1.182   2.421  0.00  0.00    +0.029 C 
ATOM      8  C   UNL     1      -5.312   1.532   3.619  0.00  0.00    -0.008 C 
ATOM      9  C   UNL     1      -6.685   0.880   3.445  0.00  0.00    +0.007 C 
ATOM     10  C   UNL     1      -6.521  -0.639   3.358  0.00  0.00    -0.008 C 
ATOM     11  C   UNL     1      -5.635  -0.989   2.162  0.00  0.00    +0.029 C 
ATOM     12  C   UNL     1      -5.870  -1.155   4.643  0.00  0.00    +0.007 C 
ATOM     13  C   UNL     1      -4.497  -0.503   4.817  0.00  0.00    -0.008 C 
ATOM     14  C   UNL     1      -4.661   1.016   4.903  0.00  0.00    +0.007 C 
ATOM     15  C   UNL     1      -3.611  -0.853   3.620  0.00  0.00    +0.029 C 
ENDBRANCH   4   6
BRANCH   1  19
ATOM     16  N   UNL     1       2.134   1.548   1.179  0.00  0.00    +0.380 N 
ATOM     17  C   UNL     1       1.419   2.052  -0.001  0.00  0.00    -0.077 C 
ATOM     18  C   UNL     1      -0.019   1.527   0.010  0.00  0.00    +0.004 C 
ATOM     19  C   UNL     1       0.002  -0.004   0.002  0.00  0.00    +0.074 C 
ATOM     20  C   UNL     1       0.794  -0.503   1.214  0.00  0.00    +0.004 C 
ATOM     21  C   UNL     1       2.208   0.081   1.168  0.00  0.00    -0.077 C 
ATOM     22  H   UNL     1       1.565   1.848   2.070  0.00  0.00    -0.082 HD
BRANCH  16  24
ATOM     23  C   UNL     1       3.349   3.644   1.534  0.00  0.00    -0.017 C 
ATOM     24  C   UNL     1       3.474   2.142   1.275  0.00  0.00    -0.082 C 
ENDBRANCH  16  24
ENDBRANCH   1  19
BRANCH   1  25
ATOM     25  C   UNL     1      -1.894  -1.357  -1.006  0.00  0.00    +0.144 C 
BRANCH  25  26
ATOM     26  C   UNL     1      -1.610  -2.803  -0.693  0.00  0.00    -0.030 A 
ATOM     27  C   UNL     1      -0.434  -3.386  -1.129  0.00  0.00    +0.008 A 
ATOM     28  C   UNL     1      -0.171  -4.711  -0.839  0.00  0.00    +0.038 A 
ATOM     29  C   UNL     1      -1.089  -5.458  -0.121  0.00  0.00    +0.123 A 
ATOM     30  C   UNL     1      -2.269  -4.875   0.310  0.00  0.00    +0.038 A 
ATOM     31  C   UNL     1      -2.528  -3.548   0.023  0.00  0.00    +0.008 A 
ATOM     32  F   UNL     1      -0.835  -6.755   0.159  0.00  0.00    -0.205 F 
ENDBRANCH  25  26
ENDBRANCH   1  25
TORSDOF 5
