REMARK  Name = ZINC39694230
REMARK  6 active torsions:
REMARK  status: ('A' for Active; 'I' for Inactive)
REMARK    1  A    between atoms: C_1  and  C_2
REMARK    2  A    between atoms: C_5  and  C_8
REMARK    3  A    between atoms: C_12  and  C_21
REMARK    4  A    between atoms: N_23  and  C_24
REMARK    5  A    between atoms: C_24  and  C_25
REMARK    6  A    between atoms: C_30  and  N_31
REMARK                            x       y       z     vdW  Elec       q    Type
REMARK                         _______ _______ _______ _____ _____    ______ ____
ROOT
ATOM      1  C   UNL     1       0.165  -4.716  -0.122  0.00  0.00    +0.247 C 
ATOM      2  O   UNL     1      -0.099  -5.373  -1.110  0.00  0.00    -0.270 OA
ATOM      3  N   UNL     1       0.179  -5.300   1.092  0.00  0.00    -0.296 N 
ATOM      4  C   UNL     1       0.347  -4.648   2.412  0.00  0.00    +0.121 C 
ATOM      5  C   UNL     1      -0.633  -5.396   3.344  0.00  0.00    +0.100 C 
ATOM      6  C   UNL     1      -0.835  -6.768   2.681  0.00  0.00    -0.004 C 
ATOM      7  C   UNL     1       0.024  -6.740   1.409  0.00  0.00    +0.115 C 
ATOM      8  C   UNL     1      -2.303  -6.967   2.315  0.00  0.00    -0.010 C 
ATOM      9  C   UNL     1      -2.489  -8.361   1.709  0.00  0.00    -0.082 C 
ATOM     10  N   UNL     1      -2.064  -9.378   2.679  0.00  0.00    +0.379 N 
ATOM     11  C   UNL     1      -0.629  -9.238   2.956  0.00  0.00    -0.082 C 
ATOM     12  C   UNL     1      -0.364  -7.880   3.614  0.00  0.00    -0.010 C 
ATOM     13  H   UNL     1      -2.583  -9.261   3.536  0.00  0.00    -0.086 HD
ATOM     14  H   UNL     1      -2.244 -10.296   2.302  0.00  0.00    -0.086 HD
ENDROOT
BRANCH   1  19
ATOM     15  C   UNL     1       1.353   0.892  -0.629  0.00  0.00    +0.044 C 
ATOM     16  C   UNL     1       1.042  -0.576  -0.496  0.00  0.00    -0.050 A 
ATOM     17  C   UNL     1       0.328  -1.222  -1.490  0.00  0.00    +0.004 A 
ATOM     18  C   UNL     1       0.040  -2.566  -1.375  0.00  0.00    +0.013 A 
ATOM     19  C   UNL     1       0.471  -3.275  -0.253  0.00  0.00    +0.037 A 
ATOM     20  C   UNL     1       1.191  -2.618   0.746  0.00  0.00    +0.013 A 
ATOM     21  C   UNL     1       1.477  -1.275   0.616  0.00  0.00    +0.004 A 
ENDBRANCH   1  19
BRANCH   5  22
ATOM     22  C   UNL     1      -0.032  -5.556   4.717  0.00  0.00    +0.218 C 
ATOM     23  O   UNL     1       1.135  -5.863   4.836  0.00  0.00    -0.275 OA
ATOM     24  N   UNL     1      -0.792  -5.359   5.812  0.00  0.00    -0.311 N 
ATOM     25  H   UNL     1      -1.726  -5.114   5.717  0.00  0.00    +0.149 HD
BRANCH  24  26
ATOM     26  C   UNL     1      -0.209  -5.516   7.147  0.00  0.00    +0.141 C 
BRANCH  26  27
ATOM     27  C   UNL     1      -1.260  -5.242   8.191  0.00  0.00    -0.009 A 
ATOM     28  C   UNL     1      -1.309  -4.013   8.818  0.00  0.00    +0.007 A 
ATOM     29  C   UNL     1      -2.273  -3.761   9.776  0.00  0.00    +0.000 A 
ATOM     30  C   UNL     1      -3.193  -4.738  10.109  0.00  0.00    +0.002 A 
ATOM     31  C   UNL     1      -3.151  -5.969   9.486  0.00  0.00    +0.023 A 
ATOM     32  C   UNL     1      -2.186  -6.224   8.519  0.00  0.00    +0.035 A 
BRANCH  32  33
ATOM     33  N   UNL     1      -2.144  -7.467   7.882  0.00  0.00    -0.325 N 
ATOM     34  C   UNL     1      -1.350  -8.575   8.436  0.00  0.00    +0.133 C 
ATOM     35  C   UNL     1      -2.245  -9.817   8.517  0.00  0.00    +0.178 C 
ATOM     36  O   UNL     1      -2.850 -10.045   7.243  0.00  0.00    -0.377 OA
ATOM     37  C   UNL     1      -3.712  -8.991   6.807  0.00  0.00    +0.178 C 
ATOM     38  C   UNL     1      -2.897  -7.708   6.641  0.00  0.00    +0.133 C 
ENDBRANCH  32  33
ENDBRANCH  26  27
ENDBRANCH  24  26
ENDBRANCH   5  22
TORSDOF 5
