REMARK  Name = ZINC05524577
REMARK  10 active torsions:
REMARK  status: ('A' for Active; 'I' for Inactive)
REMARK    1  A    between atoms: C_1  and  C_2
REMARK    2  A    between atoms: C_2  and  C_3
REMARK    3  A    between atoms: C_3  and  C_4
REMARK    4  A    between atoms: C_5  and  C_21
REMARK    5  A    between atoms: C_6  and  C_14
REMARK    6  A    between atoms: N_11  and  C_12
REMARK    7  A    between atoms: C_12  and  C_13
REMARK    8  A    between atoms: C_21  and  O_23
REMARK    9  A    between atoms: O_23  and  C_24
REMARK   10  A    between atoms: C_24  and  C_25
REMARK                            x       y       z     vdW  Elec       q    Type
REMARK                         _______ _______ _______ _____ _____    ______ ____
ROOT
ATOM      1  C   UNL     1       1.220  -2.541  -2.139  0.00  0.00    +0.027 C 
ATOM      2  C   UNL     1       0.838  -1.999  -0.962  0.00  0.00    +0.078 C 
ATOM      3  C   UNL     1       0.301  -2.933   0.103  0.00  0.00    +0.145 C 
ATOM      4  N   UNL     1       0.245  -4.366  -0.232  0.00  0.00    -0.288 N 
ATOM      5  C   UNL     1       0.669  -4.756  -1.450  0.00  0.00    +0.307 C 
ATOM      6  O   UNL     1       0.627  -5.937  -1.737  0.00  0.00    -0.252 OA
ATOM      7  N   UNL     1       1.135  -3.887  -2.355  0.00  0.00    -0.259 N 
ATOM      8  H   UNL     1      -0.089  -5.013   0.408  0.00  0.00    +0.151 HD
ENDROOT
BRANCH   3   9
ATOM      9  C   UNL     1       1.159  -2.778   1.332  0.00  0.00    -0.004 A 
ATOM     10  C   UNL     1       2.261  -3.593   1.514  0.00  0.00    +0.007 A 
ATOM     11  C   UNL     1       3.048  -3.450   2.641  0.00  0.00    +0.000 A 
ATOM     12  C   UNL     1       2.735  -2.492   3.587  0.00  0.00    +0.001 A 
ATOM     13  C   UNL     1       1.633  -1.677   3.407  0.00  0.00    +0.020 A 
ATOM     14  C   UNL     1       0.848  -1.816   2.276  0.00  0.00    +0.046 A 
ATOM     15 CL   UNL     1      -0.531  -0.786   2.045  0.00  0.00    -0.083 Cl
ENDBRANCH   3   9
BRANCH   7  16
ATOM     16  C   UNL     1       1.573  -4.407  -3.653  0.00  0.00    +0.111 C 
ATOM     17  C   UNL     1       0.392  -4.414  -4.625  0.00  0.00    +0.025 C 
ENDBRANCH   7  16
BRANCH   2  18
ATOM     18  C   UNL     1       0.930  -0.606  -0.734  0.00  0.00    +0.339 C 
ATOM     19  O   UNL     1       1.847  -0.158  -0.071  0.00  0.00    -0.245 OA
BRANCH  18  20
ATOM     20  O   UNL     1       0.003   0.226  -1.253  0.00  0.00    -0.462 OA
BRANCH  20  21
ATOM     21  C   UNL     1       0.159   1.620  -0.983  0.00  0.00    +0.229 C 
ATOM     22  C   UNL     1      -0.979   2.398  -1.647  0.00  0.00    +0.048 C 
ENDBRANCH  20  21
ENDBRANCH  18  20
ENDBRANCH   2  18
BRANCH   1  23
ATOM     23  C   UNL     1       1.753  -1.647  -3.228  0.00  0.00    +0.051 C 
BRANCH  23  25
ATOM     24  C   UNL     1       3.817  -0.642  -4.215  0.00  0.00    +0.004 C 
ATOM     25  C   UNL     1       3.276  -1.550  -3.109  0.00  0.00    +0.003 C 
ENDBRANCH  23  25
ENDBRANCH   1  23
TORSDOF 7
