REMARK  Name = ZINC54641223
REMARK  8 active torsions:
REMARK  status: ('A' for Active; 'I' for Inactive)
REMARK    1  A    between atoms: C_1  and  C_2
REMARK    2  A    between atoms: C_3  and  C_21
REMARK    3  A    between atoms: C_4  and  C_12
REMARK    4  A    between atoms: C_15  and  O_20
REMARK    5  A    between atoms: C_16  and  O_18
REMARK    6  A    between atoms: O_18  and  C_19
REMARK    7  A    between atoms: C_21  and  O_23
REMARK    8  A    between atoms: O_23  and  C_24
REMARK                            x       y       z     vdW  Elec       q    Type
REMARK                         _______ _______ _______ _____ _____    ______ ____
ROOT
ATOM      1  C   UNL     1      -0.018   1.503   0.010  0.00  0.00    +0.061 C 
ATOM      2  C   UNL     1       0.002  -0.004   0.002  0.00  0.00    +0.020 C 
ATOM      3  C   UNL     1      -1.164  -0.668   0.004  0.00  0.00    +0.082 C 
ATOM      4  C   UNL     1      -1.254  -2.171  -0.016  0.00  0.00    +0.179 C 
ATOM      5  N   UNL     1       0.064  -2.740   0.255  0.00  0.00    -0.221 N 
ATOM      6  C   UNL     1       1.210  -2.015   0.249  0.00  0.00    +0.218 A 
ATOM      7  N   UNL     1       2.199  -2.823   0.519  0.00  0.00    -0.201 NA
ATOM      8  C   UNL     1       1.727  -4.060   0.707  0.00  0.00    +0.247 A 
ATOM      9  N   UNL     1       0.426  -4.052   0.555  0.00  0.00    -0.156 NA
ATOM     10  N   UNL     1       1.212  -0.651  -0.013  0.00  0.00    -0.287 N 
ATOM     11  H   UNL     1       2.037  -0.173  -0.196  0.00  0.00    +0.155 HD
ENDROOT
BRANCH   4  12
ATOM     12  C   UNL     1      -1.730  -2.628  -1.371  0.00  0.00    -0.015 A 
ATOM     13  C   UNL     1      -0.991  -2.326  -2.500  0.00  0.00    +0.010 A 
ATOM     14  C   UNL     1      -1.423  -2.743  -3.745  0.00  0.00    +0.049 A 
ATOM     15  C   UNL     1      -2.599  -3.465  -3.864  0.00  0.00    +0.158 A 
ATOM     16  C   UNL     1      -3.343  -3.770  -2.728  0.00  0.00    +0.162 A 
ATOM     17  C   UNL     1      -2.901  -3.353  -1.482  0.00  0.00    +0.055 A 
BRANCH  16  18
ATOM     18  O   UNL     1      -4.498  -4.478  -2.839  0.00  0.00    -0.491 OA
ATOM     19  C   UNL     1      -5.210  -4.754  -1.631  0.00  0.00    +0.277 C 
ENDBRANCH  16  18
BRANCH  15  20
ATOM     20  O   UNL     1      -3.026  -3.876  -5.088  0.00  0.00    -0.503 OA
ATOM     21  H   UNL     1      -2.697  -4.747  -5.348  0.00  0.00    +0.292 HD
ENDBRANCH  15  20
ENDBRANCH   4  12
BRANCH   3  22
ATOM     22  C   UNL     1      -2.364   0.077   0.027  0.00  0.00    +0.339 C 
ATOM     23  O   UNL     1      -2.324   1.293   0.044  0.00  0.00    -0.245 OA
BRANCH  22  24
ATOM     24  O   UNL     1      -3.554  -0.559   0.029  0.00  0.00    -0.458 OA
BRANCH  24  25
ATOM     25  C   UNL     1      -4.726   0.257   0.053  0.00  0.00    +0.177 C 
ATOM     26  C   UNL     1      -5.130   0.528   1.503  0.00  0.00    +0.044 C 
ATOM     27  C   UNL     1      -6.386   1.403   1.528  0.00  0.00    +0.004 C 
ATOM     28  C   UNL     1      -7.525   0.679   0.808  0.00  0.00    +0.000 C 
ATOM     29  C   UNL     1      -7.121   0.409  -0.643  0.00  0.00    +0.004 C 
ATOM     30  C   UNL     1      -5.866  -0.466  -0.668  0.00  0.00    +0.044 C 
ENDBRANCH  24  25
ENDBRANCH  22  24
ENDBRANCH   3  22
TORSDOF 6
