REMARK  Name = ZINC08559042
REMARK  10 active torsions:
REMARK  status: ('A' for Active; 'I' for Inactive)
REMARK    1  A    between atoms: C_1  and  C_2
REMARK    2  A    between atoms: C_2  and  C_3
REMARK    3  A    between atoms: C_2  and  C_4
REMARK    4  A    between atoms: N_6  and  C_7
REMARK    5  A    between atoms: C_10  and  C_13
REMARK    6  A    between atoms: N_15  and  N_16
REMARK    7  A    between atoms: N_16  and  C_17
REMARK    8  A    between atoms: C_17  and  N_19
REMARK    9  A    between atoms: C_20  and  C_22
REMARK   10  A    between atoms: C_23  and  C_24
REMARK                            x       y       z     vdW  Elec       q    Type
REMARK                         _______ _______ _______ _____ _____    ______ ____
ROOT
ATOM      1  C   UNL     1       5.928  -0.886  -0.030  0.00  0.00    +0.260 C 
ATOM      2  O   UNL     1       6.975  -0.268  -0.026  0.00  0.00    -0.269 OA
ATOM      3  N   UNL     1       4.754  -0.224  -0.019  0.00  0.00    -0.231 N 
ATOM      4  H   UNL     1       3.919  -0.717  -0.021  0.00  0.00    +0.173 HD
ENDROOT
BRANCH   1   8
ATOM      5  C   UNL     1       5.970  -5.133  -0.076  0.00  0.00    +0.033 A 
ATOM      6  C   UNL     1       7.169  -4.427  -0.072  0.00  0.00    +0.024 A 
ATOM      7  C   UNL     1       7.159  -3.050  -0.057  0.00  0.00    +0.015 A 
ATOM      8  C   UNL     1       5.942  -2.362  -0.045  0.00  0.00    +0.038 A 
ATOM      9  C   UNL     1       4.740  -3.074  -0.043  0.00  0.00    +0.015 A 
ATOM     10  C   UNL     1       4.757  -4.450  -0.065  0.00  0.00    +0.024 A 
BRANCH   5  13
ATOM     11  C   UNL     1       6.942  -7.184  -0.773  0.00  0.00    +0.220 C 
ATOM     12  O   UNL     1       7.840  -6.566  -1.305  0.00  0.00    -0.275 OA
ATOM     13  N   UNL     1       5.983  -6.527  -0.091  0.00  0.00    -0.285 N 
ATOM     14  H   UNL     1       5.303  -7.024   0.389  0.00  0.00    +0.155 HD
BRANCH  11  16
ATOM     15  C   UNL     1       8.093  -9.177  -1.697  0.00  0.00    +0.017 C 
ATOM     16  C   UNL     1       6.899  -8.687  -0.876  0.00  0.00    +0.069 C 
ATOM     17  C   UNL     1       6.959  -9.296   0.526  0.00  0.00    +0.017 C 
ENDBRANCH  11  16
ENDBRANCH   5  13
ENDBRANCH   1   8
BRANCH   3  18
ATOM     18  N   UNL     1       4.740   1.177  -0.004  0.00  0.00    -0.245 N 
ATOM     19  H   UNL     1       5.576   1.670  -0.001  0.00  0.00    +0.172 HD
BRANCH  18  20
ATOM     20  C   UNL     1       3.567   1.839   0.007  0.00  0.00    +0.153 C 
ATOM     21  S   UNL     1       3.550   3.551   0.026  0.00  0.00    -0.017 S 
BRANCH  20  22
ATOM     22  N   UNL     1       2.406   1.154   0.004  0.00  0.00    -0.263 N 
ATOM     23  C   UNL     1       1.232   1.816   0.015  0.00  0.00    +0.242 C 
ATOM     24  O   UNL     1       1.220   3.034   0.028  0.00  0.00    -0.270 OA
ATOM     25  H   UNL     1       2.416   0.184  -0.006  0.00  0.00    +0.157 HD
BRANCH  23  26
ATOM     26  C   UNL     1       0.015   1.098   0.011  0.00  0.00    +0.069 C 
ATOM     27  C   UNL     1      -1.167   1.765   0.017  0.00  0.00    +0.020 C 
BRANCH  27  28
ATOM     28  C   UNL     1      -2.385   1.045   0.007  0.00  0.00    +0.012 A 
ATOM     29  C   UNL     1      -3.689   1.529   0.011  0.00  0.00    +0.015 A 
ATOM     30  C   UNL     1      -4.698   0.599  -0.001  0.00  0.00    +0.008 A 
ATOM     31  C   UNL     1      -4.383  -0.723  -0.015  0.00  0.00    +0.046 A 
ATOM     32  S   UNL     1      -2.650  -0.719  -0.020  0.00  0.00    -0.097 S 
ENDBRANCH  27  28
ENDBRANCH  23  26
ENDBRANCH  20  22
ENDBRANCH  18  20
ENDBRANCH   3  18
TORSDOF 8
