REMARK  Name = ZINC32105492
REMARK  6 active torsions:
REMARK  status: ('A' for Active; 'I' for Inactive)
REMARK    1  A    between atoms: C_1  and  O_2
REMARK    2  A    between atoms: O_2  and  C_3
REMARK    3  A    between atoms: C_3  and  C_4
REMARK    4  A    between atoms: C_4  and  N_5
REMARK    5  A    between atoms: C_14  and  C_21
REMARK    6  A    between atoms: C_21  and  N_23
REMARK                            x       y       z     vdW  Elec       q    Type
REMARK                         _______ _______ _______ _____ _____    ______ ____
ROOT
ATOM      1  N   UNL     1      -0.811  -2.546  -0.950  0.00  0.00    -0.288 N 
ATOM      2  C   UNL     1      -1.487  -2.585   0.214  0.00  0.00    +0.247 C 
ATOM      3  O   UNL     1      -1.000  -2.113   1.223  0.00  0.00    -0.270 OA
ATOM      4  C   UNL     1      -2.827  -3.208   0.252  0.00  0.00    +0.041 A 
ATOM      5  C   UNL     1      -3.664  -3.037   1.353  0.00  0.00    +0.013 A 
ATOM      6  C   UNL     1      -4.916  -3.619   1.356  0.00  0.00    +0.001 A 
ATOM      7  C   UNL     1      -5.337  -4.367   0.271  0.00  0.00    +0.000 A 
ATOM      8  C   UNL     1      -4.508  -4.545  -0.822  0.00  0.00    +0.005 A 
ATOM      9  C   UNL     1      -3.253  -3.974  -0.835  0.00  0.00    -0.021 A 
ATOM     10  C   UNL     1      -2.325  -4.185  -2.002  0.00  0.00    +0.131 C 
ATOM     11  C   UNL     1      -1.448  -2.948  -2.201  0.00  0.00    +0.053 C 
ATOM     12  C   UNL     1      -2.305  -1.784  -2.740  0.00  0.00    +0.027 C 
ATOM     13  C   UNL     1      -1.372  -1.060  -3.743  0.00  0.00    +0.002 C 
ATOM     14  C   UNL     1      -0.614  -2.233  -4.413  0.00  0.00    +0.002 C 
ATOM     15  C   UNL     1      -0.374  -3.235  -3.263  0.00  0.00    +0.027 C 
ENDROOT
BRANCH  10  16
ATOM     16  C   UNL     1      -1.450  -5.382  -1.734  0.00  0.00    +0.248 C 
ATOM     17  O   UNL     1      -0.241  -5.256  -1.697  0.00  0.00    -0.273 OA
BRANCH  16  18
ATOM     18  N   UNL     1      -1.999  -6.576  -1.539  0.00  0.00    -0.156 NA
ATOM     19  C   UNL     1      -1.234  -7.616  -1.213  0.00  0.00    +0.164 A 
ATOM     20  N   UNL     1       0.121  -7.662  -1.141  0.00  0.00    -0.335 N 
ATOM     21  H   UNL     1       0.646  -6.871  -1.341  0.00  0.00    +0.168 HD
ATOM     22  C   UNL     1       0.750  -8.839  -0.781  0.00  0.00    +0.055 A 
ATOM     23  C   UNL     1       2.120  -9.105  -0.646  0.00  0.00    +0.027 A 
ATOM     24  C   UNL     1       2.557 -10.355  -0.275  0.00  0.00    +0.002 A 
ATOM     25  C   UNL     1       1.663 -11.382  -0.025  0.00  0.00    +0.001 A 
ATOM     26  C   UNL     1       0.306 -11.145  -0.150  0.00  0.00    +0.017 A 
ATOM     27  C   UNL     1      -0.133  -9.896  -0.521  0.00  0.00    +0.039 A 
ATOM     28  S   UNL     1      -1.727  -9.166  -0.790  0.00  0.00    -0.052 S 
ENDBRANCH  16  18
ENDBRANCH  10  16
BRANCH   1  29
ATOM     29  C   UNL     1       0.580  -2.087  -0.963  0.00  0.00    +0.136 C 
BRANCH  29  30
ATOM     30  C   UNL     1       0.613  -0.561  -1.067  0.00  0.00    +0.178 C 
BRANCH  30  32
ATOM     31  C   UNL     1       0.012   1.438   0.110  0.00  0.00    +0.194 C 
ATOM     32  O   UNL     1       0.031   0.010   0.106  0.00  0.00    -0.381 OA
ENDBRANCH  30  32
ENDBRANCH  29  30
ENDBRANCH   1  29
TORSDOF 5
