REMARK  Name = ZINC35452728
REMARK  10 active torsions:
REMARK  status: ('A' for Active; 'I' for Inactive)
REMARK    1  A    between atoms: C_1  and  C_2
REMARK    2  A    between atoms: C_7  and  S_8
REMARK    3  A    between atoms: S_8  and  N_11
REMARK    4  A    between atoms: N_11  and  C_12
REMARK    5  A    between atoms: N_11  and  C_13
REMARK    6  A    between atoms: C_13  and  C_14
REMARK    7  A    between atoms: N_16  and  C_17
REMARK    8  A    between atoms: C_21  and  S_23
REMARK    9  A    between atoms: S_23  and  C_24
REMARK   10  A    between atoms: C_26  and  C_31
REMARK                            x       y       z     vdW  Elec       q    Type
REMARK                         _______ _______ _______ _____ _____    ______ ____
ROOT
ATOM      1  S   UNL     1       0.303   0.143   2.712  0.00  0.00    +0.061 S 
ATOM      2  O   UNL     1      -0.885   0.919   2.794  0.00  0.00    -0.153 OA
ATOM      3  O   UNL     1       0.606  -0.887   3.643  0.00  0.00    -0.153 OA
ENDROOT
BRANCH   1  10
ATOM      4  C   UNL     1      -0.259   1.633   0.147  0.00  0.00    +0.046 C 
ATOM      5  C   UNL     1       0.040   0.163  -0.003  0.00  0.00    -0.022 A 
ATOM      6  C   UNL     1       0.049  -0.414  -1.260  0.00  0.00    +0.032 A 
ATOM      7  C   UNL     1       0.324  -1.764  -1.395  0.00  0.00    +0.076 A 
ATOM      8  C   UNL     1       0.590  -2.538  -0.266  0.00  0.00    +0.145 A 
ATOM      9  C   UNL     1       0.579  -1.953   0.988  0.00  0.00    +0.076 A 
ATOM     10  C   UNL     1       0.310  -0.602   1.116  0.00  0.00    +0.112 A 
ATOM     11  O   UNL     1       0.855  -3.864  -0.411  0.00  0.00    -0.478 OA
ATOM     12  C   UNL     1       0.191  -4.539  -1.482  0.00  0.00    +0.256 C 
ATOM     13  C   UNL     1       0.294  -3.717  -2.742  0.00  0.00    +0.258 C 
ATOM     14  O   UNL     1       0.337  -4.263  -3.824  0.00  0.00    -0.271 OA
ATOM     15  N   UNL     1       0.339  -2.369  -2.660  0.00  0.00    -0.280 N 
ATOM     16  C   UNL     1      -1.284  -4.736  -1.123  0.00  0.00    +0.062 C 
ATOM     17  H   UNL     1       0.381  -1.828  -3.464  0.00  0.00    +0.155 HD
ENDBRANCH   1  10
BRANCH   1  18
ATOM     18  N   UNL     1       1.569   1.210   2.760  0.00  0.00    -0.171 NA
ATOM     19  C   UNL     1       1.331   2.639   2.540  0.00  0.00    +0.132 C 
BRANCH  18  20
ATOM     20  C   UNL     1       2.926   0.725   3.021  0.00  0.00    +0.205 C 
BRANCH  20  21
ATOM     21  C   UNL     1       3.638   0.495   1.713  0.00  0.00    +0.233 C 
ATOM     22  O   UNL     1       3.068   0.714   0.665  0.00  0.00    -0.274 OA
ATOM     23  N   UNL     1       4.909   0.045   1.708  0.00  0.00    -0.284 N 
ATOM     24  H   UNL     1       5.341  -0.196   2.541  0.00  0.00    +0.155 HD
BRANCH  23  25
ATOM     25  C   UNL     1       5.603  -0.074   0.499  0.00  0.00    +0.034 A 
ATOM     26  C   UNL     1       6.526  -1.098   0.325  0.00  0.00    +0.023 A 
ATOM     27  C   UNL     1       7.213  -1.216  -0.868  0.00  0.00    +0.003 A 
ATOM     28  C   UNL     1       6.985  -0.317  -1.892  0.00  0.00    +0.015 A 
ATOM     29  C   UNL     1       6.064   0.710  -1.725  0.00  0.00    +0.009 A 
ATOM     30  C   UNL     1       5.367   0.827  -0.529  0.00  0.00    +0.038 A 
BRANCH  29  31
ATOM     31  S   UNL     1       5.774   1.856  -3.031  0.00  0.00    -0.129 S 
ATOM     32  C   UNL     1       6.883   1.302  -4.355  0.00  0.00    +0.090 C 
ENDBRANCH  29  31
ENDBRANCH  23  25
ENDBRANCH  20  21
ENDBRANCH  18  20
ENDBRANCH   1  18
TORSDOF 6
