REMARK  Name = ZINC01630846
REMARK  4 active torsions:
REMARK  status: ('A' for Active; 'I' for Inactive)
REMARK    1  A    between atoms: C_1  and  C_2
REMARK    2  A    between atoms: C_2  and  C_22
REMARK    3  A    between atoms: C_3  and  C_11
REMARK    4  A    between atoms: C_4  and  C_8
REMARK                            x       y       z     vdW  Elec       q    Type
REMARK                         _______ _______ _______ _____ _____    ______ ____
ROOT
ATOM      1  C   UNL     1      -0.148   1.072   0.122  0.00  0.00    +0.061 C 
ATOM      2  C   UNL     1      -0.857   1.426   1.431  0.00  0.00    +0.134 C 
ATOM      3  C   UNL     1      -2.301   0.984   1.376  0.00  0.00    +0.018 C 
ATOM      4  C   UNL     1      -3.063   2.141   1.521  0.00  0.00    +0.127 C 
ATOM      5  C   UNL     1      -2.157   3.279   1.665  0.00  0.00    +0.345 C 
ATOM      6  O   UNL     1      -2.509   4.434   1.810  0.00  0.00    -0.245 OA
ATOM      7  O   UNL     1      -0.877   2.868   1.613  0.00  0.00    -0.450 OA
ATOM      8  C   UNL     1      -0.146   0.758   2.610  0.00  0.00    +0.061 C 
ENDROOT
BRANCH   3   9
ATOM      9  C   UNL     1      -2.774  -0.322   1.211  0.00  0.00    +0.055 C 
ATOM     10  C   UNL     1      -1.888  -1.374   1.157  0.00  0.00    +0.140 C 
ATOM     11  C   UNL     1      -2.247  -2.800   1.156  0.00  0.00    +0.031 A 
ATOM     12  C   UNL     1      -3.448  -3.498   1.203  0.00  0.00    +0.012 A 
ATOM     13  C   UNL     1      -3.438  -4.881   1.185  0.00  0.00    +0.001 A 
ATOM     14  C   UNL     1      -2.241  -5.575   1.121  0.00  0.00    +0.001 A 
ATOM     15  C   UNL     1      -1.036  -4.896   1.073  0.00  0.00    +0.016 A 
ATOM     16  C   UNL     1      -1.027  -3.508   1.091  0.00  0.00    +0.070 A 
ATOM     17  C   UNL     1       0.033  -2.485   1.054  0.00  0.00    +0.345 C 
ATOM     18  O   UNL     1       1.227  -2.703   0.996  0.00  0.00    -0.245 OA
ATOM     19  O   UNL     1      -0.543  -1.269   1.090  0.00  0.00    -0.422 OA
ENDBRANCH   3   9
BRANCH   4  20
ATOM     20  C   UNL     1      -4.530   2.206   1.530  0.00  0.00    +0.249 C 
ATOM     21  O   UNL     1      -5.185   1.189   1.402  0.00  0.00    -0.270 OA
ATOM     22  N   UNL     1      -5.151   3.393   1.679  0.00  0.00    -0.325 N 
ATOM     23  H   UNL     1      -4.629   4.204   1.782  0.00  0.00    +0.145 HD
ATOM     24  H   UNL     1      -6.120   3.436   1.685  0.00  0.00    +0.145 HD
ENDBRANCH   4  20
TORSDOF 2
