REMARK  Name = ZINC44069011
REMARK  11 active torsions:
REMARK  status: ('A' for Active; 'I' for Inactive)
REMARK    1  A    between atoms: C_1  and  C_2
REMARK    2  A    between atoms: C_2  and  C_4
REMARK    3  A    between atoms: C_2  and  N_15
REMARK    4  A    between atoms: N_6  and  C_7
REMARK    5  A    between atoms: N_6  and  C_8
REMARK    6  A    between atoms: C_8  and  C_9
REMARK    7  A    between atoms: C_16  and  O_18
REMARK    8  A    between atoms: O_18  and  C_19
REMARK    9  A    between atoms: C_19  and  C_20
REMARK   10  A    between atoms: C_19  and  C_21
REMARK   11  A    between atoms: C_19  and  C_22
REMARK                            x       y       z     vdW  Elec       q    Type
REMARK                         _______ _______ _______ _____ _____    ______ ____
ROOT
ATOM      1  C   UNL     1      -0.019   1.526   0.010  0.00  0.00    +0.038 C 
ATOM      2  C   UNL     1       0.002  -0.004   0.002  0.00  0.00    +0.159 C 
ENDROOT
BRANCH   2   3
ATOM      3  C   UNL     1       0.731  -0.503   1.223  0.00  0.00    +0.236 C 
ATOM      4  O   UNL     1       0.159  -1.213   2.023  0.00  0.00    -0.274 OA
ATOM      5  N   UNL     1       2.019  -0.161   1.426  0.00  0.00    -0.298 N 
ATOM      6  C   UNL     1       2.710   0.696   0.459  0.00  0.00    +0.132 C 
BRANCH   5   7
ATOM      7  C   UNL     1       2.727  -0.647   2.613  0.00  0.00    +0.149 C 
BRANCH   7   8
ATOM      8  C   UNL     1       3.389  -1.964   2.299  0.00  0.00    +0.008 A 
ATOM      9  C   UNL     1       4.634  -2.200   1.817  0.00  0.00    +0.014 A 
ATOM     10  C   UNL     1       5.034  -3.506   1.603  0.00  0.00    +0.028 A 
ATOM     11  C   UNL     1       4.168  -4.512   1.882  0.00  0.00    +0.078 A 
ATOM     12  S   UNL     1       2.740  -3.618   2.473  0.00  0.00    -0.080 S 
ATOM     13 CL   UNL     1       4.392  -6.225   1.714  0.00  0.00    -0.076 Cl
ENDBRANCH   7   8
ENDBRANCH   5   7
ENDBRANCH   2   3
BRANCH   2  14
ATOM     14  N   UNL     1      -1.372  -0.511   0.012  0.00  0.00    -0.270 N 
ATOM     15  C   UNL     1      -2.051  -0.643  -1.145  0.00  0.00    +0.401 C 
ATOM     16  O   UNL     1      -1.523  -0.341  -2.196  0.00  0.00    -0.226 OA
ATOM     17  H   UNL     1      -1.794  -0.752   0.852  0.00  0.00    +0.153 HD
BRANCH  15  18
ATOM     18  O   UNL     1      -3.314  -1.109  -1.135  0.00  0.00    -0.445 OA
BRANCH  18  19
ATOM     19  C   UNL     1      -3.973  -1.222  -2.398  0.00  0.00    +0.107 C 
ATOM     20  C   UNL     1      -3.189  -2.179  -3.298  0.00  0.00    +0.055 C 
ATOM     21  C   UNL     1      -5.388  -1.765  -2.188  0.00  0.00    +0.055 C 
ATOM     22  C   UNL     1      -4.048   0.155  -3.060  0.00  0.00    +0.055 C 
ENDBRANCH  18  19
ENDBRANCH  15  18
ENDBRANCH   2  14
TORSDOF 6
