REMARK  Name = ZINC63436518
REMARK  6 active torsions:
REMARK  status: ('A' for Active; 'I' for Inactive)
REMARK    1  A    between atoms: C_9  and  S_11
REMARK    2  A    between atoms: S_11  and  C_12
REMARK    3  A    between atoms: C_12  and  C_13
REMARK    4  A    between atoms: C_13  and  C_14
REMARK    5  A    between atoms: C_14  and  N_15
REMARK    6  A    between atoms: C_23  and  N_24
REMARK                            x       y       z     vdW  Elec       q    Type
REMARK                         _______ _______ _______ _____ _____    ______ ____
ROOT
ATOM      1  C   UNL     1       6.546  -4.182  -0.082  0.00  0.00    +0.033 C 
ENDROOT
BRANCH   1   2
ATOM      2  C   UNL     1       5.602  -2.978  -0.067  0.00  0.00    +0.079 C 
BRANCH   2   3
ATOM      3  S   UNL     1       3.883  -3.559  -0.053  0.00  0.00    -0.088 S 
BRANCH   3  12
ATOM      4  C   UNL     1      -0.017   1.375   0.010  0.00  0.00    +0.002 A 
ATOM      5  C   UNL     1       1.170   2.094   0.002  0.00  0.00    +0.002 A 
ATOM      6  C   UNL     1       2.382   1.442  -0.013  0.00  0.00    +0.030 A 
ATOM      7  C   UNL     1       2.418   0.045  -0.021  0.00  0.00    +0.090 A 
ATOM      8  C   UNL     1       1.214  -0.678  -0.013  0.00  0.00    +0.067 A 
ATOM      9  C   UNL     1       0.002  -0.004   0.002  0.00  0.00    +0.028 A 
ATOM     10  N   UNL     1       1.568  -2.017  -0.024  0.00  0.00    -0.333 N 
ATOM     11  H   UNL     1       0.960  -2.773  -0.022  0.00  0.00    +0.168 HD
ATOM     12  C   UNL     1       2.933  -2.075  -0.037  0.00  0.00    +0.167 A 
ATOM     13  N   UNL     1       3.429  -0.862  -0.036  0.00  0.00    -0.222 NA
ENDBRANCH   3  12
ENDBRANCH   2   3
ENDBRANCH   1   2
BRANCH   1  14
ATOM     14  C   UNL     1       7.996  -3.693  -0.094  0.00  0.00    +0.125 C 
BRANCH  14  15
ATOM     15  N   UNL     1       8.900  -4.845  -0.108  0.00  0.00    -0.315 N 
ATOM     16  C   UNL     1       9.480  -5.429   0.979  0.00  0.00    +0.201 A 
ATOM     17  N   UNL     1      10.223  -6.429   0.603  0.00  0.00    -0.231 NA
ATOM     18  C   UNL     1      10.169  -6.550  -0.745  0.00  0.00    +0.147 A 
ATOM     19  C   UNL     1       9.315  -5.538  -1.217  0.00  0.00    +0.165 A 
ATOM     20  N   UNL     1       9.087  -5.443  -2.523  0.00  0.00    -0.216 NA
ATOM     21  C   UNL     1       9.649  -6.284  -3.365  0.00  0.00    +0.225 A 
ATOM     22  N   UNL     1      10.455  -7.252  -2.969  0.00  0.00    -0.219 NA
ATOM     23  C   UNL     1      10.749  -7.420  -1.683  0.00  0.00    +0.147 A 
BRANCH  23  24
ATOM     24  N   UNL     1      11.594  -8.438  -1.277  0.00  0.00    -0.341 N 
ATOM     25  H   UNL     1      11.792  -8.557  -0.335  0.00  0.00    +0.144 HD
ATOM     26  H   UNL     1      11.989  -9.032  -1.935  0.00  0.00    +0.144 HD
ENDBRANCH  23  24
ENDBRANCH  14  15
ENDBRANCH   1  14
TORSDOF 6
