REMARK  Name = ZINC39747751
REMARK  4 active torsions:
REMARK  status: ('A' for Active; 'I' for Inactive)
REMARK    1  A    between atoms: C_1  and  C_2
REMARK    2  A    between atoms: C_6  and  C_8
REMARK    3  A    between atoms: C_9  and  C_14
REMARK    4  A    between atoms: N_25  and  C_26
REMARK                            x       y       z     vdW  Elec       q    Type
REMARK                         _______ _______ _______ _____ _____    ______ ____
ROOT
ATOM      1  C   UNL     1       5.192  -1.268  -0.078  0.00  0.00    +0.196 C 
ATOM      2  N   UNL     1       4.591  -0.311  -1.014  0.00  0.00    -0.321 N 
ATOM      3  C   UNL     1       4.998   1.018  -0.966  0.00  0.00    +0.041 A 
ATOM      4  C   UNL     1       4.154   2.052  -1.335  0.00  0.00    +0.024 A 
ATOM      5  C   UNL     1       4.607   3.357  -1.280  0.00  0.00    +0.002 A 
ATOM      6  C   UNL     1       5.897   3.637  -0.860  0.00  0.00    +0.001 A 
ATOM      7  C   UNL     1       6.749   2.619  -0.485  0.00  0.00    +0.015 A 
ATOM      8  C   UNL     1       6.304   1.300  -0.531  0.00  0.00    +0.058 A 
ATOM      9  C   UNL     1       7.168   0.179  -0.118  0.00  0.00    +0.250 C 
ATOM     10  O   UNL     1       8.348   0.364   0.106  0.00  0.00    -0.270 OA
ATOM     11  N   UNL     1       6.636  -1.049   0.009  0.00  0.00    -0.272 N 
ATOM     12  H   UNL     1       3.923  -0.600  -1.655  0.00  0.00    +0.148 HD
ENDROOT
BRANCH   1  14
ATOM     13  C   UNL     1       3.398  -1.649   1.727  0.00  0.00    +0.106 A 
ATOM     14  C   UNL     1       4.576  -1.087   1.285  0.00  0.00    +0.039 A 
ATOM     15  C   UNL     1       5.096  -0.319   2.327  0.00  0.00    +0.142 A 
ATOM     16  N   UNL     1       4.287  -0.403   3.353  0.00  0.00    -0.181 NA
ATOM     17  N   UNL     1       3.207  -1.226   3.010  0.00  0.00    -0.274 N 
ATOM     18  H   UNL     1       2.459  -1.456   3.582  0.00  0.00    +0.189 HD
BRANCH  13  23
ATOM     19  C   UNL     1       2.785  -5.276  -0.499  0.00  0.00    +0.052 C 
ATOM     20  C   UNL     1       1.940  -4.014  -0.677  0.00  0.00    +0.174 C 
ATOM     21  C   UNL     1       0.800  -3.960   0.370  0.00  0.00    +0.075 C 
ATOM     22  C   UNL     1       1.432  -3.130   1.474  0.00  0.00    +0.024 C 
ATOM     23  C   UNL     1       2.508  -2.538   0.955  0.00  0.00    +0.142 C 
ATOM     24  O   UNL     1       2.701  -2.835  -0.353  0.00  0.00    -0.487 OA
ENDBRANCH  13  23
ENDBRANCH   1  14
BRANCH  11  25
ATOM     25  C   UNL     1       7.524  -2.191   0.243  0.00  0.00    +0.079 C 
ATOM     26  C   UNL     1       6.934  -3.592   0.068  0.00  0.00    +0.024 C 
ATOM     27  C   UNL     1       7.247  -3.063   1.469  0.00  0.00    +0.024 C 
ENDBRANCH  11  25
TORSDOF 3
