REMARK  Name = ZINC04948204
REMARK  4 active torsions:
REMARK  status: ('A' for Active; 'I' for Inactive)
REMARK    1  A    between atoms: C_1  and  C_2
REMARK    2  A    between atoms: C_5  and  N_11
REMARK    3  A    between atoms: C_6  and  N_8
REMARK    4  A    between atoms: C_12  and  C_14
REMARK                            x       y       z     vdW  Elec       q    Type
REMARK                         _______ _______ _______ _____ _____    ______ ____
ROOT
ATOM      1  N   UNL     1      -2.105   5.795  -0.972  0.00  0.00    -0.283 N 
ATOM      2  C   UNL     1      -1.501   5.120   0.026  0.00  0.00    +0.223 C 
ATOM      3  O   UNL     1      -0.986   5.725   0.942  0.00  0.00    -0.275 OA
ATOM      4  H   UNL     1      -2.460   5.316  -1.737  0.00  0.00    +0.155 HD
ENDROOT
BRANCH   2   5
ATOM      5  C   UNL     1      -1.466   3.614   0.003  0.00  0.00    +0.048 C 
ATOM      6  C   UNL     1      -0.739   3.139  -1.256  0.00  0.00    +0.019 C 
ATOM      7  C   UNL     1      -0.703   1.610  -1.279  0.00  0.00    -0.009 C 
ATOM      8  C   UNL     1       0.035   1.099  -0.041  0.00  0.00    +0.007 C 
ATOM      9  C   UNL     1      -0.692   1.573   1.219  0.00  0.00    -0.009 C 
ATOM     10  C   UNL     1      -0.728   3.102   1.242  0.00  0.00    +0.019 C 
ATOM     11  C   UNL     1      -2.122   1.029   1.217  0.00  0.00    +0.007 C 
ATOM     12  C   UNL     1      -2.861   1.541  -0.021  0.00  0.00    -0.009 C 
ATOM     13  C   UNL     1      -2.133   1.067  -1.281  0.00  0.00    +0.007 C 
ATOM     14  C   UNL     1      -2.896   3.070   0.002  0.00  0.00    +0.019 C 
ENDBRANCH   2   5
BRANCH   1  19
ATOM     15  C   UNL     1      -2.570  11.443  -0.703  0.00  0.00    +0.044 C 
ATOM     16  C   UNL     1      -2.446   9.943  -0.774  0.00  0.00    -0.048 A 
ATOM     17  C   UNL     1      -1.322   9.318  -0.266  0.00  0.00    +0.005 A 
ATOM     18  C   UNL     1      -1.206   7.943  -0.330  0.00  0.00    +0.026 A 
ATOM     19  C   UNL     1      -2.220   7.188  -0.905  0.00  0.00    +0.064 A 
ATOM     20  C   UNL     1      -3.345   7.819  -1.420  0.00  0.00    +0.148 A 
ATOM     21  C   UNL     1      -3.457   9.194  -1.348  0.00  0.00    +0.038 A 
BRANCH  20  22
ATOM     22  N   UNL     1      -4.424   7.019  -2.040  0.00  0.00    +0.058 N 
ATOM     23  O   UNL     1      -5.364   7.577  -2.578  0.00  0.00    -0.126 OA
ATOM     24  O   UNL     1      -4.374   5.802  -2.011  0.00  0.00    -0.126 OA
ENDBRANCH  20  22
ENDBRANCH   1  19
TORSDOF 3
