REMARK  Name = ZINC08721502
REMARK  11 active torsions:
REMARK  status: ('A' for Active; 'I' for Inactive)
REMARK    1  A    between atoms: C_1  and  C_2
REMARK    2  A    between atoms: C_4  and  C_26
REMARK    3  A    between atoms: C_5  and  N_9
REMARK    4  A    between atoms: C_6  and  C_8
REMARK    5  A    between atoms: N_9  and  C_10
REMARK    6  A    between atoms: C_10  and  C_11
REMARK    7  A    between atoms: N_13  and  N_14
REMARK    8  A    between atoms: C_15  and  C_17
REMARK    9  A    between atoms: C_17  and  C_18
REMARK   10  A    between atoms: C_18  and  C_19
REMARK   11  A    between atoms: C_24  and  O_25
REMARK                            x       y       z     vdW  Elec       q    Type
REMARK                         _______ _______ _______ _____ _____    ______ ____
ROOT
ATOM      1  C   UNL     1      -2.390   4.220   0.036  0.00  0.00    +0.246 C 
ATOM      2  O   UNL     1      -3.432   3.599   0.038  0.00  0.00    -0.273 OA
ATOM      3  N   UNL     1      -1.214   3.562   0.027  0.00  0.00    -0.233 N 
ATOM      4  H   UNL     1      -0.380   4.058   0.026  0.00  0.00    +0.173 HD
ENDROOT
BRANCH   3   5
ATOM      5  N   UNL     1      -1.195   2.161   0.019  0.00  0.00    -0.234 N 
ATOM      6  C   UNL     1      -0.018   1.503   0.010  0.00  0.00    +0.229 C 
ATOM      7  O   UNL     1       1.024   2.123   0.004  0.00  0.00    -0.274 OA
ATOM      8  H   UNL     1      -2.028   1.664   0.021  0.00  0.00    +0.173 HD
BRANCH   6   9
ATOM      9  C   UNL     1       0.002  -0.004   0.002  0.00  0.00    +0.102 C 
BRANCH   9  10
ATOM     10  C   UNL     1       1.451  -0.494  -0.015  0.00  0.00    +0.048 C 
BRANCH  10  11
ATOM     11  C   UNL     1       1.472  -2.001  -0.023  0.00  0.00    -0.005 A 
ATOM     12  C   UNL     1       1.603  -2.697   1.163  0.00  0.00    +0.007 A 
ATOM     13  C   UNL     1       1.617  -4.080   1.157  0.00  0.00    +0.000 A 
ATOM     14  C   UNL     1       1.510  -4.769  -0.037  0.00  0.00    +0.004 A 
ATOM     15  C   UNL     1       1.385  -4.078  -1.226  0.00  0.00    +0.045 A 
ATOM     16  C   UNL     1       1.365  -2.690  -1.222  0.00  0.00    +0.120 A 
BRANCH  16  17
ATOM     17  O   UNL     1       1.242  -2.008  -2.390  0.00  0.00    -0.506 OA
ATOM     18  H   UNL     1       2.086  -1.798  -2.814  0.00  0.00    +0.292 HD
ENDBRANCH  16  17
ENDBRANCH  10  11
ENDBRANCH   9  10
ENDBRANCH   6   9
ENDBRANCH   3   5
BRANCH   1  19
ATOM     19  C   UNL     1      -2.410   5.726   0.045  0.00  0.00    +0.199 C 
BRANCH  19  20
ATOM     20  N   UNL     1      -3.802   6.197   0.054  0.00  0.00    -0.335 N 
ATOM     21  H   UNL     1      -4.309   5.810   0.836  0.00  0.00    +0.147 HD
BRANCH  20  26
ATOM     22  C   UNL     1      -4.031  11.863   0.086  0.00  0.00    +0.044 C 
ATOM     23  C   UNL     1      -3.970  10.357   0.078  0.00  0.00    -0.050 A 
ATOM     24  C   UNL     1      -4.546   9.650  -0.962  0.00  0.00    +0.008 A 
ATOM     25  C   UNL     1      -4.491   8.270  -0.973  0.00  0.00    -0.029 A 
ATOM     26  C   UNL     1      -3.858   7.593   0.062  0.00  0.00    +0.033 A 
ATOM     27  C   UNL     1      -3.285   8.307   1.107  0.00  0.00    -0.029 A 
ATOM     28  C   UNL     1      -3.339   9.687   1.109  0.00  0.00    +0.008 A 
ATOM     29  C   UNL     1      -2.603   7.576   2.234  0.00  0.00    +0.045 C 
ATOM     30  C   UNL     1      -5.119   7.499  -2.106  0.00  0.00    +0.045 C 
ENDBRANCH  20  26
ENDBRANCH  19  20
ENDBRANCH   1  19
TORSDOF 8
