REMARK  Name = ZINC06725086
REMARK  6 active torsions:
REMARK  status: ('A' for Active; 'I' for Inactive)
REMARK    1  A    between atoms: C_1  and  C_2
REMARK    2  A    between atoms: C_7  and  N_12
REMARK    3  A    between atoms: C_9  and  C_11
REMARK    4  A    between atoms: C_13  and  C_15
REMARK    5  A    between atoms: C_15  and  O_32
REMARK    6  A    between atoms: N_25  and  C_26
REMARK                            x       y       z     vdW  Elec       q    Type
REMARK                         _______ _______ _______ _____ _____    ______ ____
ROOT
ATOM      1  C   UNL     1      -0.623  -0.186  -4.848  0.00  0.00    +0.247 C 
ATOM      2  C   UNL     1       0.025   1.110  -5.279  0.00  0.00    +0.033 A 
ATOM      3  C   UNL     1       1.359   1.166  -5.614  0.00  0.00    +0.010 A 
ATOM      4  C   UNL     1       1.918   2.370  -6.005  0.00  0.00    +0.001 A 
ATOM      5  C   UNL     1       1.138   3.511  -6.058  0.00  0.00    +0.002 A 
ATOM      6  C   UNL     1      -0.201   3.457  -5.723  0.00  0.00    +0.024 A 
ATOM      7  C   UNL     1      -0.767   2.251  -5.330  0.00  0.00    +0.043 A 
ATOM      8  N   UNL     1      -2.117   2.176  -4.989  0.00  0.00    -0.269 N 
ATOM      9  C   UNL     1      -2.709   1.038  -4.605  0.00  0.00    +0.314 C 
ATOM     10  O   UNL     1      -3.892   1.065  -4.325  0.00  0.00    -0.252 OA
ATOM     11  N   UNL     1      -2.056  -0.135  -4.513  0.00  0.00    -0.214 N 
ATOM     12  H   UNL     1      -2.652   2.984  -5.032  0.00  0.00    +0.156 HD
ENDROOT
BRANCH  11  13
ATOM     13  C   UNL     1      -2.730  -1.291  -4.106  0.00  0.00    +0.041 A 
ATOM     14  C   UNL     1      -2.875  -2.358  -4.984  0.00  0.00    +0.024 A 
ATOM     15  C   UNL     1      -3.536  -3.500  -4.576  0.00  0.00    +0.002 A 
ATOM     16  C   UNL     1      -4.062  -3.579  -3.300  0.00  0.00    +0.000 A 
ATOM     17  C   UNL     1      -3.925  -2.516  -2.426  0.00  0.00    +0.002 A 
ATOM     18  C   UNL     1      -3.260  -1.373  -2.825  0.00  0.00    +0.024 A 
ENDBRANCH  11  13
BRANCH   1  20
ATOM     19  N   UNL     1       0.035  -0.036  -2.468  0.00  0.00    -0.308 N 
ATOM     20  C   UNL     1       0.119  -0.697  -3.640  0.00  0.00    +0.269 C 
ATOM     21  O   UNL     1       0.791  -1.703  -3.721  0.00  0.00    -0.270 OA
ATOM     22  H   UNL     1      -0.502   0.769  -2.403  0.00  0.00    +0.149 HD
BRANCH  19  28
ATOM     23  C   UNL     1      -0.655   1.972   1.268  0.00  0.00    +0.008 C 
ATOM     24  C   UNL     1       0.044   1.485  -0.003  0.00  0.00    -0.009 C 
ATOM     25  C   UNL     1       1.481   2.008  -0.028  0.00  0.00    +0.003 C 
ATOM     26  C   UNL     1       2.180   1.521  -1.299  0.00  0.00    +0.002 C 
ATOM     27  C   UNL     1       2.194  -0.009  -1.318  0.00  0.00    +0.022 C 
ATOM     28  C   UNL     1       0.756  -0.533  -1.294  0.00  0.00    +0.076 C 
ATOM     29  C   UNL     1       0.058  -0.045  -0.023  0.00  0.00    +0.009 C 
ATOM     30  C   UNL     1      -1.380  -0.569   0.002  0.00  0.00    +0.009 C 
ENDBRANCH  19  28
ENDBRANCH   1  20
BRANCH   1  31
ATOM     31  O   UNL     1      -0.450  -1.136  -5.901  0.00  0.00    -0.360 OA
ATOM     32  H   UNL     1       0.473  -1.280  -6.153  0.00  0.00    +0.213 HD
ENDBRANCH   1  31
TORSDOF 4
