REMARK  Name = ZINC60378703
REMARK  9 active torsions:
REMARK  status: ('A' for Active; 'I' for Inactive)
REMARK    1  A    between atoms: C_1  and  N_2
REMARK    2  A    between atoms: C_5  and  N_9
REMARK    3  A    between atoms: N_9  and  C_10
REMARK    4  A    between atoms: C_10  and  C_12
REMARK    5  A    between atoms: C_10  and  C_14
REMARK    6  A    between atoms: C_12  and  O_13
REMARK    7  A    between atoms: C_14  and  C_16
REMARK    8  A    between atoms: C_14  and  O_25
REMARK    9  A    between atoms: C_19  and  N_22
REMARK                            x       y       z     vdW  Elec       q    Type
REMARK                         _______ _______ _______ _____ _____    ______ ____
ROOT
ATOM      1  C   UNK A   1       0.069  -5.548  -2.223  0.00  0.00    +0.130 C 
ENDROOT
BRANCH   1   2
ATOM      2  N   UNK A   1       0.059  -4.487  -1.213  0.00  0.00    -0.321 N 
ATOM      3  H   UNK A   1       0.068  -4.714  -0.270  0.00  0.00    +0.148 HD
BRANCH   2   8
ATOM      4  C   UNK A   0      -0.018   1.461   0.010  0.00  0.00    +0.174 C 
ATOM      5  N   UNK A   0       0.002  -0.004   0.002  0.00  0.00    -0.248 N 
ATOM      6  C   UNK A   0       0.008  -0.796  -1.107  0.00  0.00    +0.164 A 
ATOM      7  C   UNK A   0       0.029  -2.128  -0.649  0.00  0.00    +0.092 A 
ATOM      8  C   UNK A   0       0.038  -3.162  -1.604  0.00  0.00    +0.134 A 
ATOM      9  N   UNK A   0       0.027  -2.833  -2.892  0.00  0.00    -0.220 NA
ATOM     10  C   UNK A   0       0.007  -1.568  -3.274  0.00  0.00    +0.225 A 
ATOM     11  N   UNK A   0      -0.002  -0.569  -2.419  0.00  0.00    -0.216 NA
ATOM     12  C   UNK A   0       0.035  -2.080   0.763  0.00  0.00    +0.141 A 
ATOM     13  N   UNK A   0       0.025  -0.831   1.133  0.00  0.00    -0.162 NA
ATOM     14 BR   UNK A   0       0.061  -3.575   1.920  0.00  0.00    -0.026 Br
ENDBRANCH   2   8
ENDBRANCH   1   2
BRANCH   1  15
ATOM     15  C   UNK A   1      -1.366  -5.852  -2.657  0.00  0.00    +0.181 C 
BRANCH  15  16
ATOM     16  O   UNK A   1      -2.095  -6.388  -1.552  0.00  0.00    -0.393 OA
ATOM     17  H   UNK A   1      -3.016  -6.604  -1.755  0.00  0.00    +0.209 HD
ENDBRANCH  15  16
ENDBRANCH   1  15
BRANCH   1  18
ATOM     18  C   UNK A   1       0.700  -6.810  -1.630  0.00  0.00    +0.167 C 
BRANCH  18  19
ATOM     19  C   UNK A   1       2.068  -6.481  -1.090  0.00  0.00    -0.017 A 
ATOM     20  C   UNK A   1       2.204  -5.979   0.190  0.00  0.00    +0.008 A 
ATOM     21  C   UNK A   1       3.459  -5.677   0.685  0.00  0.00    +0.033 A 
ATOM     22  C   UNK A   1       4.578  -5.879  -0.100  0.00  0.00    +0.126 A 
ATOM     23  C   UNK A   1       4.443  -6.383  -1.381  0.00  0.00    +0.033 A 
ATOM     24  C   UNK A   1       3.188  -6.688  -1.874  0.00  0.00    +0.008 A 
BRANCH  22  25
ATOM     25  N   UNK A   1       5.922  -5.556   0.429  0.00  0.00    +0.056 N 
ATOM     26  O   UNK A   1       6.040  -5.115   1.549  0.00  0.00    -0.126 OA
ATOM     27  O   UNK A   1       6.901  -5.732  -0.258  0.00  0.00    -0.126 OA
ENDBRANCH  22  25
ENDBRANCH  18  19
BRANCH  18  28
ATOM     28  O   UNK A   1      -0.124  -7.302  -0.571  0.00  0.00    -0.385 OA
ATOM     29  H   UNK A   1      -0.247  -6.676   0.155  0.00  0.00    +0.210 HD
ENDBRANCH  18  28
ENDBRANCH   1  18
TORSDOF 8
