REMARK  Name = ZINC41188084
REMARK  6 active torsions:
REMARK  status: ('A' for Active; 'I' for Inactive)
REMARK    1  A    between atoms: C_1  and  C_2
REMARK    2  A    between atoms: C_6  and  C_15
REMARK    3  A    between atoms: C_13  and  C_14
REMARK    4  A    between atoms: C_15  and  C_16
REMARK    5  A    between atoms: C_16  and  C_17
REMARK    6  A    between atoms: C_23  and  C_26
REMARK                            x       y       z     vdW  Elec       q    Type
REMARK                         _______ _______ _______ _____ _____    ______ ____
ROOT
ATOM      1  C   UNL     1      -0.018   1.503   0.010  0.00  0.00    +0.044 C 
ATOM      2  C   UNL     1       0.002  -0.004   0.002  0.00  0.00    -0.047 A 
ATOM      3  C   UNL     1       0.005  -0.675  -1.188  0.00  0.00    +0.013 A 
ATOM      4  C   UNL     1       0.025  -2.073  -1.196  0.00  0.00    -0.001 A 
ATOM      5  C   UNL     1       0.029  -2.823  -2.454  0.00  0.00    +0.019 A 
ATOM      6  C   UNL     1       0.048  -4.178  -2.399  0.00  0.00    +0.018 A 
ATOM      7  C   UNL     1       0.063  -4.839  -1.153  0.00  0.00    +0.252 A 
ATOM      8  O   UNL     1       0.080  -6.058  -1.127  0.00  0.00    -0.268 OA
ATOM      9  N   UNL     1       0.059  -4.159   0.007  0.00  0.00    -0.322 N 
ATOM     10  H   UNL     1       0.070  -4.645   0.846  0.00  0.00    +0.169 HD
ATOM     11  C   UNL     1       0.040  -2.781   0.021  0.00  0.00    +0.049 A 
ATOM     12  C   UNL     1       0.035  -2.077   1.220  0.00  0.00    +0.030 A 
ATOM     13  C   UNL     1       0.023  -0.698   1.204  0.00  0.00    -0.046 A 
ATOM     14  C   UNL     1       0.025   0.063   2.505  0.00  0.00    +0.044 C 
ENDROOT
BRANCH   6  15
ATOM     15  C   UNL     1       0.053  -4.980  -3.675  0.00  0.00    +0.050 C 
BRANCH  15  16
ATOM     16  C   UNL     1       1.494  -5.338  -4.047  0.00  0.00    +0.101 C 
BRANCH  16  17
ATOM     17  C   UNL     1       1.498  -6.141  -5.322  0.00  0.00    +0.216 C 
ATOM     18  O   UNL     1       0.453  -6.401  -5.879  0.00  0.00    -0.276 OA
ATOM     19  N   UNL     1       2.665  -6.570  -5.844  0.00  0.00    -0.301 N 
ATOM     20  C   UNL     1       3.939  -6.268  -5.178  0.00  0.00    +0.108 C 
ATOM     21  C   UNL     1       4.702  -7.578  -4.957  0.00  0.00    +0.019 C 
ATOM     22  C   UNL     1       4.849  -8.309  -6.293  0.00  0.00    +0.006 C 
ATOM     23  C   UNL     1       3.463  -8.645  -6.848  0.00  0.00    +0.003 C 
ATOM     24  C   UNL     1       2.686  -7.353  -7.087  0.00  0.00    +0.111 C 
ATOM     25  C   UNL     1       3.612  -9.406  -8.167  0.00  0.00    +0.009 C 
ENDBRANCH  16  17
ENDBRANCH  15  16
ENDBRANCH   6  15
TORSDOF 3
