REMARK  Name = ZINC49244015
REMARK  5 active torsions:
REMARK  status: ('A' for Active; 'I' for Inactive)
REMARK    1  A    between atoms: C_6  and  C_7
REMARK    2  A    between atoms: C_7  and  C_8
REMARK    3  A    between atoms: C_7  and  O_23
REMARK    4  A    between atoms: C_8  and  N_9
REMARK    5  A    between atoms: N_12  and  C_13
REMARK                            x       y       z     vdW  Elec       q    Type
REMARK                         _______ _______ _______ _____ _____    ______ ____
ROOT
ATOM      1  N   UNL     1      -2.933  -1.887  -1.423  0.00  0.00    -0.297 N 
ATOM      2  C   UNL     1      -3.429  -2.381  -2.575  0.00  0.00    +0.300 C 
ATOM      3  O   UNL     1      -2.785  -2.292  -3.602  0.00  0.00    -0.253 OA
ATOM      4  N   UNL     1      -4.639  -2.974  -2.587  0.00  0.00    -0.294 N 
ATOM      5  H   UNL     1      -3.446  -1.959  -0.604  0.00  0.00    +0.150 HD
ATOM      6  H   UNL     1      -5.153  -3.046  -1.767  0.00  0.00    +0.151 HD
ENDROOT
BRANCH   4   7
ATOM      7  C   UNL     1      -5.179  -3.511  -3.839  0.00  0.00    +0.037 C 
ATOM      8  C   UNL     1      -5.310  -2.383  -4.864  0.00  0.00    +0.029 C 
ATOM      9  C   UNL     1      -5.874  -2.943  -6.171  0.00  0.00    -0.008 C 
ATOM     10  C   UNL     1      -7.250  -3.558  -5.910  0.00  0.00    +0.007 C 
ATOM     11  C   UNL     1      -7.120  -4.687  -4.886  0.00  0.00    -0.008 C 
ATOM     12  C   UNL     1      -6.556  -4.126  -3.578  0.00  0.00    +0.029 C 
ATOM     13  C   UNL     1      -6.176  -5.761  -5.429  0.00  0.00    +0.007 C 
ATOM     14  C   UNL     1      -4.799  -5.147  -5.689  0.00  0.00    -0.008 C 
ATOM     15  C   UNL     1      -4.930  -4.018  -6.714  0.00  0.00    +0.007 C 
ATOM     16  C   UNL     1      -4.235  -4.586  -4.382  0.00  0.00    +0.029 C 
ENDBRANCH   4   7
BRANCH   1  17
ATOM     17  C   UNL     1      -1.617  -1.243  -1.410  0.00  0.00    +0.141 C 
BRANCH  17  18
ATOM     18  C   UNL     1      -1.293  -0.774   0.010  0.00  0.00    +0.162 C 
BRANCH  18  24
ATOM     19  C   UNL     1      -0.017   1.378   0.010  0.00  0.00    +0.009 A 
ATOM     20  C   UNL     1       1.170   2.087   0.002  0.00  0.00    +0.041 A 
ATOM     21  C   UNL     1       2.379   1.413  -0.013  0.00  0.00    +0.158 A 
ATOM     22  C   UNL     1       2.397   0.026  -0.021  0.00  0.00    +0.159 A 
ATOM     23  C   UNL     1       1.208  -0.680  -0.013  0.00  0.00    +0.047 A 
ATOM     24  C   UNL     1       0.002  -0.004   0.002  0.00  0.00    -0.015 A 
ATOM     25  F   UNL     1       3.576  -0.634  -0.036  0.00  0.00    -0.202 F 
ATOM     26  F   UNL     1       3.539   2.105  -0.021  0.00  0.00    -0.202 F 
ENDBRANCH  18  24
BRANCH  18  27
ATOM     27  O   UNL     1      -1.167  -1.910   0.869  0.00  0.00    -0.386 OA
ATOM     28  H   UNL     1      -0.470  -2.526   0.606  0.00  0.00    +0.210 HD
ENDBRANCH  18  27
ENDBRANCH  17  18
ENDBRANCH   1  17
TORSDOF 5
