REMARK  Name = ZINC36995946
REMARK  6 active torsions:
REMARK  status: ('A' for Active; 'I' for Inactive)
REMARK    1  A    between atoms: C_1  and  C_2
REMARK    2  A    between atoms: C_3  and  C_19
REMARK    3  A    between atoms: C_7  and  N_8
REMARK    4  A    between atoms: N_8  and  C_9
REMARK    5  A    between atoms: C_9  and  C_10
REMARK    6  A    between atoms: C_13  and  N_16
REMARK                            x       y       z     vdW  Elec       q    Type
REMARK                         _______ _______ _______ _____ _____    ______ ____
ROOT
ATOM      1  C   UNL     1      -0.070   1.502   0.015  0.00  0.00    +0.046 C 
ATOM      2  C   UNL     1      -0.022  -0.005   0.004  0.00  0.00    -0.018 A 
ATOM      3  C   UNL     1      -0.099  -0.699  -1.203  0.00  0.00    +0.041 A 
ATOM      4  C   UNL     1      -0.055  -2.094  -1.205  0.00  0.00    +0.013 A 
ATOM      5  C   UNL     1       0.064  -2.782  -0.015  0.00  0.00    +0.003 A 
ATOM      6  C   UNL     1       0.140  -2.095   1.182  0.00  0.00    +0.023 A 
ATOM      7  C   UNL     1       0.103  -0.705   1.194  0.00  0.00    +0.031 A 
ENDROOT
BRANCH   3   8
ATOM      8  C   UNL     1      -0.228   0.041  -2.477  0.00  0.00    +0.242 C 
ATOM      9  O   UNL     1      -0.153   1.254  -2.486  0.00  0.00    -0.270 OA
ATOM     10  N   UNL     1      -0.427  -0.630  -3.629  0.00  0.00    -0.325 N 
ATOM     11  H   UNL     1      -0.486  -1.598  -3.622  0.00  0.00    +0.145 HD
ATOM     12  H   UNL     1      -0.511  -0.145  -4.465  0.00  0.00    +0.145 HD
ENDBRANCH   3   8
BRANCH   7  13
ATOM     13  N   UNL     1       0.187  -0.015   2.406  0.00  0.00    -0.339 N 
ATOM     14  H   UNL     1       0.157   0.955   2.414  0.00  0.00    +0.146 HD
BRANCH  13  15
ATOM     15  C   UNL     1       0.319  -0.755   3.663  0.00  0.00    +0.137 C 
BRANCH  15  16
ATOM     16  C   UNL     1       0.389   0.217   4.813  0.00  0.00    -0.030 A 
ATOM     17  C   UNL     1       1.612   0.704   5.233  0.00  0.00    +0.007 A 
ATOM     18  C   UNL     1       1.676   1.595   6.288  0.00  0.00    +0.033 A 
ATOM     19  C   UNL     1       0.516   1.999   6.922  0.00  0.00    +0.126 A 
ATOM     20  C   UNL     1      -0.708   1.513   6.502  0.00  0.00    +0.033 A 
ATOM     21  C   UNL     1      -0.772   0.625   5.444  0.00  0.00    +0.007 A 
BRANCH  19  22
ATOM     22  N   UNL     1       0.584   2.953   8.052  0.00  0.00    +0.056 N 
ATOM     23  O   UNL     1       1.654   3.378   8.421  0.00  0.00    -0.126 OA
ATOM     24  O   UNL     1      -0.430   3.306   8.607  0.00  0.00    -0.126 OA
ENDBRANCH  19  22
ENDBRANCH  15  16
ENDBRANCH  13  15
ENDBRANCH   7  13
TORSDOF 5
