REMARK  Name = ZINC27577924
REMARK  9 active torsions:
REMARK  status: ('A' for Active; 'I' for Inactive)
REMARK    1  A    between atoms: C_1  and  C_2
REMARK    2  A    between atoms: C_2  and  C_3
REMARK    3  A    between atoms: C_3  and  C_4
REMARK    4  A    between atoms: C_8  and  C_25
REMARK    5  A    between atoms: C_9  and  O_10
REMARK    6  A    between atoms: C_14  and  C_15
REMARK    7  A    between atoms: C_22  and  C_24
REMARK    8  A    between atoms: C_25  and  C_26
REMARK    9  A    between atoms: C_26  and  C_27
REMARK                            x       y       z     vdW  Elec       q    Type
REMARK                         _______ _______ _______ _____ _____    ______ ____
ROOT
ATOM      1  C   UNL     1       1.587  -2.099  -0.676  0.00  0.00    -0.005 C 
ATOM      2  C   UNL     1       1.998  -2.753   0.648  0.00  0.00    -0.065 C 
ATOM      3  N   UNL     1       1.845  -4.208   0.546  0.00  0.00    +0.395 N 
ATOM      4  C   UNL     1       2.738  -4.740  -0.489  0.00  0.00    -0.065 C 
ATOM      5  C   UNL     1       2.353  -4.154  -1.851  0.00  0.00    -0.005 C 
ATOM      6  C   UNL     1       2.499  -2.628  -1.790  0.00  0.00    +0.126 C 
ATOM      7  C   UNL     1       0.886  -4.497  -2.136  0.00  0.00    +0.090 C 
ATOM      8  N   UNL     1       0.055  -3.965  -1.044  0.00  0.00    -0.309 NA
ATOM      9  C   UNL     1       0.139  -2.482  -1.003  0.00  0.00    +0.090 C 
ATOM     10  C   UNL     1       0.454  -4.553   0.243  0.00  0.00    +0.050 C 
ATOM     11  H   UNL     1       2.100  -4.625   1.428  0.00  0.00    -0.079 HD
ENDROOT
BRANCH  10  12
ATOM     12  C   UNL     1      -0.441  -4.021   1.333  0.00  0.00    +0.029 A 
ATOM     13  N   UNL     1      -0.494  -2.677   1.585  0.00  0.00    -0.312 N 
ATOM     14  C   UNL     1      -1.290  -2.193   2.555  0.00  0.00    +0.327 A 
ATOM     15  O   UNL     1      -1.321  -0.995   2.763  0.00  0.00    -0.247 OA
ATOM     16  N   UNL     1      -2.052  -3.015   3.300  0.00  0.00    -0.275 N 
ATOM     17  C   UNL     1      -2.029  -4.346   3.083  0.00  0.00    +0.257 A 
ATOM     18  O   UNL     1      -2.718  -5.090   3.756  0.00  0.00    -0.267 OA
ATOM     19  C   UNL     1      -1.199  -4.868   2.061  0.00  0.00    +0.033 A 
ATOM     20  H   UNL     1       0.048  -2.068   1.059  0.00  0.00    +0.170 HD
ATOM     21  C   UNL     1      -1.159  -6.351   1.794  0.00  0.00    +0.051 C 
ATOM     22  H   UNL     1      -2.620  -2.649   3.995  0.00  0.00    +0.173 HD
ENDBRANCH  10  12
BRANCH   6  23
ATOM     23  O   UNL     1       3.858  -2.300  -1.497  0.00  0.00    -0.391 OA
ATOM     24  H   UNL     1       4.489  -2.606  -2.163  0.00  0.00    +0.210 HD
ENDBRANCH   6  23
BRANCH   1  25
ATOM     25  C   UNL     1       1.716  -0.578  -0.571  0.00  0.00    +0.008 C 
BRANCH  25  27
ATOM     26  C   UNL     1       0.931   1.456   0.649  0.00  0.00    +0.004 C 
ATOM     27  C   UNL     1       0.802  -0.065   0.544  0.00  0.00    -0.003 C 
ENDBRANCH  25  27
ENDBRANCH   1  25
BRANCH   5  28
ATOM     28  C   UNL     1       3.261  -4.724  -2.943  0.00  0.00    +0.008 C 
BRANCH  28  29
ATOM     29  C   UNL     1       3.109  -6.246  -2.989  0.00  0.00    -0.003 C 
ATOM     30  C   UNL     1       4.016  -6.817  -4.081  0.00  0.00    +0.004 C 
ENDBRANCH  28  29
ENDBRANCH   5  28
TORSDOF 6
