REMARK  Name = ZINC40811889
REMARK  5 active torsions:
REMARK  status: ('A' for Active; 'I' for Inactive)
REMARK    1  A    between atoms: C_1  and  C_2
REMARK    2  A    between atoms: C_6  and  C_7
REMARK    3  A    between atoms: C_17  and  C_19
REMARK    4  A    between atoms: N_24  and  N_25
REMARK    5  A    between atoms: C_26  and  C_28
REMARK                            x       y       z     vdW  Elec       q    Type
REMARK                         _______ _______ _______ _____ _____    ______ ____
ROOT
ATOM      1  C   UNL     1       0.300   1.260  -0.247  0.00  0.00    +0.048 C 
ATOM      2  C   UNL     1       0.072  -0.228  -0.163  0.00  0.00    +0.009 A 
ATOM      3  C   UNL     1      -0.016  -1.126  -1.233  0.00  0.00    +0.042 A 
ATOM      4  C   UNL     1      -0.230  -2.377  -0.705  0.00  0.00    +0.115 A 
ATOM      5  O   UNL     1      -0.269  -2.263   0.621  0.00  0.00    -0.454 OA
ATOM      6  C   UNL     1      -0.085  -0.971   0.974  0.00  0.00    +0.193 A 
ATOM      7  C   UNL     1      -0.385  -3.612  -1.556  0.00  0.00    +0.075 C 
ATOM      8  C   UNL     1      -0.778  -3.203  -2.978  0.00  0.00    +0.014 C 
ATOM      9  C   UNL     1       0.202  -2.165  -3.533  0.00  0.00    +0.058 C 
ATOM     10  C   UNL     1       0.085  -0.902  -2.692  0.00  0.00    +0.070 C 
ATOM     11  N   UNL     1       0.076   0.285  -3.216  0.00  0.00    -0.184 NA
ENDROOT
BRANCH   6  12
ATOM     12  C   UNL     1      -0.061  -0.453   2.346  0.00  0.00    +0.287 C 
ATOM     13  O   UNL     1      -0.013   0.747   2.543  0.00  0.00    -0.266 OA
ATOM     14  N   UNL     1      -0.091  -1.306   3.389  0.00  0.00    -0.262 N 
ATOM     15  C   UNL     1      -0.180  -0.927   4.731  0.00  0.00    +0.040 A 
ATOM     16  C   UNL     1      -0.255   0.351   5.287  0.00  0.00    +0.024 A 
ATOM     17  C   UNL     1      -0.338   0.512   6.654  0.00  0.00    +0.002 A 
ATOM     18  C   UNL     1      -0.348  -0.594   7.485  0.00  0.00    +0.000 A 
ATOM     19  C   UNL     1      -0.274  -1.863   6.942  0.00  0.00    +0.005 A 
ATOM     20  C   UNL     1      -0.191  -2.028   5.573  0.00  0.00    -0.024 A 
ATOM     21  C   UNL     1      -0.100  -3.280   4.729  0.00  0.00    +0.059 C 
ATOM     22  C   UNL     1      -0.041  -2.767   3.281  0.00  0.00    +0.083 C 
ATOM     23  C   UNL     1       1.267  -3.205   2.618  0.00  0.00    +0.029 C 
ENDBRANCH   6  12
BRANCH  11  24
ATOM     24  N   UNL     1       0.175   0.438  -4.605  0.00  0.00    -0.203 N 
ATOM     25  C   UNL     1       0.166   1.671  -5.150  0.00  0.00    +0.263 C 
ATOM     26  O   UNL     1       0.070   2.651  -4.435  0.00  0.00    -0.268 OA
ATOM     27  H   UNL     1       0.251  -0.343  -5.175  0.00  0.00    +0.178 HD
BRANCH  25  28
ATOM     28  C   UNL     1       0.270   1.833  -6.614  0.00  0.00    +0.039 A 
ATOM     29  C   UNL     1       0.374   0.709  -7.438  0.00  0.00    +0.016 A 
ATOM     30  C   UNL     1       0.471   0.866  -8.803  0.00  0.00    +0.039 A 
ATOM     31  C   UNL     1       0.466   2.136  -9.360  0.00  0.00    +0.123 A 
ATOM     32  C   UNL     1       0.364   3.254  -8.548  0.00  0.00    +0.039 A 
ATOM     33  C   UNL     1       0.260   3.109  -7.181  0.00  0.00    +0.016 A 
ATOM     34  F   UNL     1       0.562   2.283 -10.700  0.00  0.00    -0.205 F 
ENDBRANCH  25  28
ENDBRANCH  11  24
TORSDOF 3
