REMARK  Name = ZINC17097355
REMARK  3 active torsions:
REMARK  status: ('A' for Active; 'I' for Inactive)
REMARK    1  A    between atoms: C_5  and  C_7
REMARK    2  A    between atoms: C_12  and  C_18
REMARK    3  A    between atoms: C_22  and  N_24
REMARK                            x       y       z     vdW  Elec       q    Type
REMARK                         _______ _______ _______ _____ _____    ______ ____
ROOT
ATOM      1  C   UNL     1      -2.216   4.767   3.273  0.00  0.00    +0.033 C 
ATOM      2  C   UNL     1      -0.943   5.084   2.485  0.00  0.00    +0.060 C 
ATOM      3  C   UNL     1      -0.875   4.209   1.258  0.00  0.00    +0.018 C 
ATOM      4  C   UNL     1      -1.419   2.974   1.258  0.00  0.00    +0.020 C 
ATOM      5  C   UNL     1      -1.332   2.113   0.020  0.00  0.00    +0.063 C 
ATOM      6  C   UNL     1      -1.431   3.000  -1.223  0.00  0.00    +0.109 C 
ATOM      7  C   UNL     1      -0.484   4.163  -1.075  0.00  0.00    +0.218 C 
ATOM      8  O   UNL     1       0.066   4.623  -2.053  0.00  0.00    -0.275 OA
ATOM      9  N   UNL     1      -0.248   4.693   0.138  0.00  0.00    -0.289 N 
ATOM     10  C   UNL     1      -2.071   2.462   2.392  0.00  0.00    +0.162 C 
ATOM     11  O   UNL     1      -2.538   1.341   2.358  0.00  0.00    -0.292 OA
ATOM     12  C   UNL     1      -2.201   3.282   3.648  0.00  0.00    +0.088 C 
ATOM     13  H   UNL     1       0.376   5.430   0.222  0.00  0.00    +0.155 HD
ENDROOT
BRANCH   1  18
ATOM     14  C   UNL     1      -1.278   6.276   6.605  0.00  0.00    +0.000 A 
ATOM     15  C   UNL     1      -2.334   7.142   6.823  0.00  0.00    +0.001 A 
ATOM     16  C   UNL     1      -3.351   7.240   5.893  0.00  0.00    +0.020 A 
ATOM     17  C   UNL     1      -3.311   6.475   4.740  0.00  0.00    +0.044 A 
ATOM     18  C   UNL     1      -2.258   5.605   4.525  0.00  0.00    -0.025 A 
ATOM     19  C   UNL     1      -1.240   5.508   5.456  0.00  0.00    +0.005 A 
ATOM     20 CL   UNL     1      -4.585   6.603   3.568  0.00  0.00    -0.083 Cl
ENDBRANCH   1  18
BRANCH   5  21
ATOM     21  C   UNL     1      -0.017   1.378   0.010  0.00  0.00    -0.037 A 
ATOM     22  C   UNL     1       1.171   2.086   0.002  0.00  0.00    +0.006 A 
ATOM     23  C   UNL     1       2.377   1.412  -0.013  0.00  0.00    +0.022 A 
ATOM     24  C   UNL     1       2.397   0.029  -0.021  0.00  0.00    +0.071 A 
ATOM     25  C   UNL     1       1.208  -0.679  -0.013  0.00  0.00    +0.145 A 
ATOM     26  C   UNL     1       0.002  -0.004   0.002  0.00  0.00    +0.038 A 
ATOM     27 CL   UNL     1       3.912  -0.818  -0.039  0.00  0.00    -0.081 Cl
BRANCH  25  28
ATOM     28  N   UNL     1       1.228  -2.159  -0.021  0.00  0.00    +0.058 N 
ATOM     29  O   UNL     1       0.182  -2.782  -0.014  0.00  0.00    -0.126 OA
ATOM     30  O   UNL     1       2.291  -2.754  -0.034  0.00  0.00    -0.126 OA
ENDBRANCH  25  28
ENDBRANCH   5  21
TORSDOF 3
