REMARK  Name = ZINC61503064
REMARK  9 active torsions:
REMARK  status: ('A' for Active; 'I' for Inactive)
REMARK    1  A    between atoms: C_1  and  C_2
REMARK    2  A    between atoms: C_5  and  C_8
REMARK    3  A    between atoms: C_8  and  C_9
REMARK    4  A    between atoms: C_8  and  N_24
REMARK    5  A    between atoms: C_9  and  N_10
REMARK    6  A    between atoms: C_11  and  C_13
REMARK    7  A    between atoms: C_18  and  S_19
REMARK    8  A    between atoms: S_19  and  C_20
REMARK    9  A    between atoms: C_20  and  C_21
REMARK                            x       y       z     vdW  Elec       q    Type
REMARK                         _______ _______ _______ _____ _____    ______ ____
ROOT
ATOM      1  N   UNL     1       2.335  -4.280  -0.895  0.00  0.00    -0.313 N 
ATOM      2  C   UNL     1       3.651  -4.571  -0.890  0.00  0.00    +0.245 C 
ATOM      3  O   UNL     1       4.157  -5.084   0.089  0.00  0.00    -0.270 OA
ATOM      4  H   UNL     1       1.932  -3.871  -1.677  0.00  0.00    +0.149 HD
ENDROOT
BRANCH   2   5
ATOM      5  C   UNL     1       4.477  -4.267  -2.072  0.00  0.00    +0.050 A 
ATOM      6  C   UNL     1       3.902  -3.672  -3.199  0.00  0.00    +0.014 A 
ATOM      7  C   UNL     1       4.679  -3.390  -4.300  0.00  0.00    +0.001 A 
ATOM      8  C   UNL     1       6.032  -3.694  -4.299  0.00  0.00    +0.001 A 
ATOM      9  C   UNL     1       6.615  -4.282  -3.197  0.00  0.00    +0.015 A 
ATOM     10  C   UNL     1       5.849  -4.568  -2.072  0.00  0.00    +0.020 A 
BRANCH  10  11
ATOM     11  S   UNL     1       6.593  -5.311  -0.658  0.00  0.00    -0.115 S 
BRANCH  11  12
ATOM     12  C   UNL     1       8.335  -5.500  -1.128  0.00  0.00    +0.169 C 
BRANCH  12  13
ATOM     13  C   UNL     1       9.095  -6.133   0.009  0.00  0.00    +0.221 C 
ATOM     14  O   UNL     1       8.519  -6.428   1.035  0.00  0.00    -0.275 OA
ATOM     15  N   UNL     1      10.416  -6.372  -0.114  0.00  0.00    -0.329 N 
ATOM     16  H   UNL     1      10.877  -6.137  -0.934  0.00  0.00    +0.145 HD
ATOM     17  H   UNL     1      10.905  -6.780   0.618  0.00  0.00    +0.145 HD
ENDBRANCH  12  13
ENDBRANCH  11  12
ENDBRANCH  10  11
ENDBRANCH   2   5
BRANCH   1  18
ATOM     18  C   UNL     1       1.514  -4.583   0.280  0.00  0.00    +0.094 C 
BRANCH  18  19
ATOM     19  C   UNL     1       0.100  -4.040   0.067  0.00  0.00    -0.020 C 
BRANCH  19  24
ATOM     20  C   UNL     1       0.268   1.731  -0.191  0.00  0.00    +0.044 C 
ATOM     21  C   UNL     1       0.224   0.226  -0.124  0.00  0.00    -0.050 A 
ATOM     22  C   UNL     1       0.152  -0.516  -1.288  0.00  0.00    +0.003 A 
ATOM     23  C   UNL     1       0.113  -1.897  -1.226  0.00  0.00    +0.002 A 
ATOM     24  C   UNL     1       0.144  -2.535  -0.001  0.00  0.00    -0.059 A 
ATOM     25  C   UNL     1       0.216  -1.793   1.163  0.00  0.00    +0.002 A 
ATOM     26  C   UNL     1       0.261  -0.412   1.101  0.00  0.00    +0.003 A 
ENDBRANCH  19  24
BRANCH  19  27
ATOM     27  N   UNL     1      -0.758  -4.454   1.185  0.00  0.00    +0.385 N 
ATOM     28  C   UNL     1      -2.140  -3.947   0.987  0.00  0.00    -0.078 C 
ATOM     29  C   UNL     1      -2.994  -4.890   1.870  0.00  0.00    -0.020 C 
ATOM     30  C   UNL     1      -2.303  -6.260   1.681  0.00  0.00    -0.020 C 
ATOM     31  C   UNL     1      -0.871  -5.929   1.221  0.00  0.00    -0.078 C 
ATOM     32  H   UNL     1      -0.382  -4.113   2.057  0.00  0.00    -0.081 HD
ENDBRANCH  19  27
ENDBRANCH  18  19
ENDBRANCH   1  18
TORSDOF 8
