REMARK  Name = ZINC41877033
REMARK  6 active torsions:
REMARK  status: ('A' for Active; 'I' for Inactive)
REMARK    1  A    between atoms: C_1  and  C_2
REMARK    2  A    between atoms: C_2  and  C_3
REMARK    3  A    between atoms: N_6  and  C_10
REMARK    4  A    between atoms: C_10  and  C_11
REMARK    5  A    between atoms: C_10  and  C_12
REMARK    6  A    between atoms: C_10  and  C_19
REMARK                            x       y       z     vdW  Elec       q    Type
REMARK                         _______ _______ _______ _____ _____    ______ ____
ROOT
ATOM      1  C   UNL     1       1.707  -3.979   2.351  0.00  0.00    +0.148 C 
ATOM      2  C   UNL     1       2.309  -4.697   1.142  0.00  0.00    +0.045 C 
ENDROOT
BRANCH   1   3
ATOM      3  C   UNL     1       2.482  -4.347   3.590  0.00  0.00    -0.003 A 
ATOM      4  C   UNL     1       1.869  -5.063   4.601  0.00  0.00    +0.007 A 
ATOM      5  C   UNL     1       2.580  -5.402   5.738  0.00  0.00    +0.000 A 
ATOM      6  C   UNL     1       3.904  -5.024   5.864  0.00  0.00    +0.001 A 
ATOM      7  C   UNL     1       4.517  -4.307   4.854  0.00  0.00    +0.015 A 
ATOM      8  C   UNL     1       3.808  -3.973   3.714  0.00  0.00    +0.023 A 
ATOM      9 BR   UNL     1       4.649  -2.999   2.328  0.00  0.00    -0.050 Br
ENDBRANCH   1   3
BRANCH   1  12
ATOM     10  C   UNL     1       1.159  -0.617   0.742  0.00  0.00    +0.132 C 
ATOM     11  C   UNL     1       1.010  -2.126   0.955  0.00  0.00    +0.117 C 
ATOM     12  N   UNL     1       1.778  -2.526   2.143  0.00  0.00    -0.279 NA
ATOM     13  C   UNL     1       1.312  -1.800   3.334  0.00  0.00    +0.114 C 
ATOM     14  C   UNL     1       1.458  -0.295   3.097  0.00  0.00    +0.175 C 
ATOM     15  O   UNL     1       0.731   0.071   1.921  0.00  0.00    -0.374 OA
BRANCH  10  17
ATOM     16  C   UNL     1       0.541   1.301  -0.734  0.00  0.00    +0.006 C 
ATOM     17  C   UNL     1       0.298  -0.182  -0.445  0.00  0.00    +0.029 C 
ENDBRANCH  10  17
ENDBRANCH   1  12
BRANCH   1  18
ATOM     18  C   UNL     1       0.268  -4.393   2.517  0.00  0.00    +0.380 C 
ATOM     19  O   UNL     1      -0.604  -3.546   2.611  0.00  0.00    -0.244 OA
ATOM     20  O   UNL     1      -0.025  -5.576   2.557  0.00  0.00    -0.244 OA
ENDBRANCH   1  18
TORSDOF 4
