REMARK  Name = ZINC04222501
REMARK  10 active torsions:
REMARK  status: ('A' for Active; 'I' for Inactive)
REMARK    1  A    between atoms: C_1  and  C_2
REMARK    2  A    between atoms: C_5  and  O_36
REMARK    3  A    between atoms: C_7  and  C_33
REMARK    4  A    between atoms: C_7  and  C_34
REMARK    5  A    between atoms: C_17  and  C_19
REMARK    6  A    between atoms: C_24  and  C_26
REMARK    7  A    between atoms: C_26  and  C_27
REMARK    8  A    between atoms: N_29  and  C_30
REMARK    9  A    between atoms: C_30  and  C_31
REMARK   10  A    between atoms: C_34  and  O_35
REMARK                            x       y       z     vdW  Elec       q    Type
REMARK                         _______ _______ _______ _____ _____    ______ ____
ROOT
ATOM      1  C   UNL     1       1.056   3.294   0.284  0.00  0.00    +0.012 C 
ATOM      2  C   UNL     1       1.101   1.769   0.407  0.00  0.00    -0.019 C 
ATOM      3  C   UNL     1       1.744   1.171  -0.848  0.00  0.00    +0.010 C 
ATOM      4  C   UNL     1       3.192   1.639  -0.979  0.00  0.00    +0.032 C 
ATOM      5  C   UNL     1       3.975   1.165   0.249  0.00  0.00    +0.123 C 
ATOM      6  C   UNL     1       3.364   1.799   1.497  0.00  0.00    +0.021 C 
ATOM      7  C   UNL     1       1.901   1.371   1.649  0.00  0.00    +0.011 C 
ATOM      8  C   UNL     1       1.333   2.119   2.872  0.00  0.00    +0.049 C 
ATOM      9  C   UNL     1      -0.151   2.016   2.857  0.00  0.00    +0.015 A 
ATOM     10  C   UNL     1      -0.946   1.623   1.829  0.00  0.00    +0.058 A 
ATOM     11  N   UNL     1      -2.254   1.619   2.072  0.00  0.00    -0.229 NA
ATOM     12  C   UNL     1      -2.753   1.973   3.238  0.00  0.00    +0.165 A 
ATOM     13  S   UNL     1      -1.321   2.366   4.142  0.00  0.00    -0.057 S 
ATOM     14  N   UNL     1      -4.081   2.021   3.642  0.00  0.00    -0.260 N 
ATOM     15  C   UNL     1      -4.391   2.415   4.893  0.00  0.00    +0.256 C 
ATOM     16  O   UNL     1      -3.507   2.730   5.668  0.00  0.00    -0.269 OA
ATOM     17  C   UNL     1      -0.328   1.219   0.499  0.00  0.00    +0.054 C 
ATOM     18  C   UNL     1       4.150   1.350   2.730  0.00  0.00    +0.016 C 
ATOM     19  H   UNL     1      -4.785   1.770   3.024  0.00  0.00    +0.157 HD
ENDROOT
BRANCH  15  20
ATOM     20  C   UNL     1      -5.792   2.466   5.319  0.00  0.00    +0.074 A 
ATOM     21  C   UNL     1      -6.319   2.833   6.548  0.00  0.00    +0.021 A 
ATOM     22  C   UNL     1      -7.685   2.794   6.678  0.00  0.00    +0.008 A 
ATOM     23  C   UNL     1      -8.441   2.394   5.623  0.00  0.00    +0.046 A 
ATOM     24  S   UNL     1      -7.264   2.063   4.394  0.00  0.00    -0.092 S 
ENDBRANCH  15  20
BRANCH   5  25
ATOM     25  O   UNL     1       5.342   1.564   0.129  0.00  0.00    -0.391 OA
ATOM     26  H   UNL     1       5.790   1.206  -0.650  0.00  0.00    +0.210 HD
ENDBRANCH   5  25
BRANCH  17  27
ATOM     27  C   UNL     1      -1.168   1.788  -0.646  0.00  0.00    +0.106 C 
BRANCH  27  28
ATOM     28  C   UNL     1      -2.511   1.105  -0.673  0.00  0.00    +0.214 C 
ATOM     29  O   UNL     1      -2.771   0.246   0.144  0.00  0.00    -0.276 OA
ATOM     30  N   UNL     1      -3.423   1.447  -1.604  0.00  0.00    -0.304 N 
ATOM     31  H   UNL     1      -3.216   2.133  -2.257  0.00  0.00    +0.150 HD
BRANCH  30  32
ATOM     32  C   UNL     1      -4.729   0.782  -1.629  0.00  0.00    +0.193 C 
BRANCH  32  33
ATOM     33  C   UNL     1      -5.537   1.330  -2.731  0.00  0.00    -0.087 C 
ATOM     34  C   UNL     1      -6.181   1.767  -3.610  0.00  0.00    +0.005 C 
ENDBRANCH  32  33
ENDBRANCH  30  32
ENDBRANCH  27  28
ENDBRANCH  17  27
BRANCH   6  35
ATOM     35  C   UNL     1       3.436   3.322   1.377  0.00  0.00    +0.165 C 
BRANCH  35  36
ATOM     36  O   UNL     1       4.802   3.739   1.417  0.00  0.00    -0.394 OA
ATOM     37  H   UNL     1       4.924   4.696   1.346  0.00  0.00    +0.209 HD
ENDBRANCH  35  36
ENDBRANCH   6  35
TORSDOF 8
