REMARK  Name = ZINC54533382
REMARK  3 active torsions:
REMARK  status: ('A' for Active; 'I' for Inactive)
REMARK    1  A    between atoms: C_1  and  C_2
REMARK    2  A    between atoms: C_2  and  C_3
REMARK    3  A    between atoms: C_11  and  C_20
REMARK                            x       y       z     vdW  Elec       q    Type
REMARK                         _______ _______ _______ _____ _____    ______ ____
ROOT
ATOM      1  C   UNL     1      -0.154  -1.537  -2.225  0.00  0.00    +0.075 C 
ATOM      2  C   UNL     1       0.578  -2.062  -3.463  0.00  0.00    +0.022 C 
ATOM      3  C   UNL     1       2.010  -1.522  -3.473  0.00  0.00    +0.003 C 
ATOM      4  C   UNL     1       1.979   0.007  -3.542  0.00  0.00    +0.019 C 
ATOM      5  C   UNL     1       1.263   0.556  -2.304  0.00  0.00    +0.107 C 
ATOM      6  N   UNL     1      -0.062  -0.071  -2.204  0.00  0.00    -0.313 N 
ATOM      7  C   UNL     1      -1.201   0.704  -2.098  0.00  0.00    +0.114 A 
ATOM      8  C   UNL     1      -1.630   1.151  -0.834  0.00  0.00    +0.101 A 
ATOM      9  C   UNL     1      -2.790   1.930  -0.762  0.00  0.00    +0.023 A 
ATOM     10  C   UNL     1      -3.468   2.232  -1.936  0.00  0.00    -0.027 A 
ATOM     11  C   UNL     1      -2.985   1.765  -3.139  0.00  0.00    +0.021 A 
ATOM     12  N   UNL     1      -1.881   1.028  -3.182  0.00  0.00    -0.346 N 
ATOM     13  C   UNL     1      -3.662   2.071  -4.452  0.00  0.00    +0.053 C 
ATOM     14  C   UNL     1      -5.099   2.533  -4.221  0.00  0.00    +0.006 C 
ATOM     15  C   UNL     1      -5.085   3.663  -3.184  0.00  0.00    +0.005 C 
ATOM     16  C   UNL     1      -4.718   3.066  -1.827  0.00  0.00    +0.037 C 
ATOM     17  H   UNL     1      -1.565   0.712  -4.042  0.00  0.00    +0.167 HD
ENDROOT
BRANCH   8  18
ATOM     18  C   UNL     1      -0.877   0.808   0.382  0.00  0.00    +0.390 C 
ATOM     19  O   UNL     1      -1.202   1.290   1.458  0.00  0.00    -0.240 OA
ATOM     20  O   UNL     1       0.073   0.040   0.317  0.00  0.00    -0.240 OA
ENDBRANCH   8  18
BRANCH   1  22
ATOM     21  C   UNL     1      -1.722  -3.481  -2.163  0.00  0.00    +0.006 C 
ATOM     22  C   UNL     1      -1.624  -1.958  -2.280  0.00  0.00    +0.019 C 
ENDBRANCH   1  22
TORSDOF 2
