REMARK  Name = ZINC38573461
REMARK  7 active torsions:
REMARK  status: ('A' for Active; 'I' for Inactive)
REMARK    1  A    between atoms: C_1  and  C_2
REMARK    2  A    between atoms: C_5  and  C_9
REMARK    3  A    between atoms: C_9  and  C_11
REMARK    4  A    between atoms: C_13  and  N_22
REMARK    5  A    between atoms: C_23  and  C_25
REMARK    6  A    between atoms: C_28  and  C_31
REMARK    7  A    between atoms: C_36  and  O_37
REMARK                            x       y       z     vdW  Elec       q    Type
REMARK                         _______ _______ _______ _____ _____    ______ ____
ROOT
ATOM      1  C   UNL     1       0.077  -5.009   1.276  0.00  0.00    +0.268 C 
ATOM      2  C   UNL     1       1.493  -4.998   1.899  0.00  0.00    +0.155 C 
ATOM      3  C   UNL     1       1.578  -6.383   2.509  0.00  0.00    +0.018 A 
ATOM      4  C   UNL     1       2.436  -6.936   3.434  0.00  0.00    +0.009 A 
ATOM      5  C   UNL     1       2.277  -8.253   3.825  0.00  0.00    +0.001 A 
ATOM      6  C   UNL     1       1.256  -9.011   3.283  0.00  0.00    +0.004 A 
ATOM      7  C   UNL     1       0.397  -8.461   2.354  0.00  0.00    +0.046 A 
ATOM      8  C   UNL     1       0.553  -7.137   1.953  0.00  0.00    +0.127 A 
ATOM      9  O   UNL     1      -0.163  -6.409   1.049  0.00  0.00    -0.478 OA
ENDROOT
BRANCH   2  10
ATOM     10  N   UNL     1       1.602  -3.963   2.931  0.00  0.00    -0.302 N 
ATOM     11  C   UNL     1       2.806  -3.440   3.237  0.00  0.00    +0.244 C 
ATOM     12  O   UNL     1       3.799  -3.826   2.657  0.00  0.00    -0.273 OA
ATOM     13  H   UNL     1       0.808  -3.655   3.395  0.00  0.00    +0.150 HD
BRANCH  11  14
ATOM     14  C   UNL     1       2.918  -2.376   4.298  0.00  0.00    +0.238 C 
ATOM     15  C   UNL     1       2.586  -1.010   3.725  0.00  0.00    +0.041 C 
ATOM     16  C   UNL     1       3.723  -0.307   3.888  0.00  0.00    +0.095 C 
ATOM     17  N   UNL     1       4.676  -1.075   4.479  0.00  0.00    -0.153 NA
ATOM     18  N   UNL     1       4.314  -2.229   4.741  0.00  0.00    -0.170 NA
BRANCH  16  19
ATOM     19  C   UNL     1       3.910   1.107   3.481  0.00  0.00    +0.043 A 
ATOM     20  C   UNL     1       5.133   1.741   3.692  0.00  0.00    +0.014 A 
ATOM     21  C   UNL     1       5.301   3.056   3.310  0.00  0.00    +0.001 A 
ATOM     22  C   UNL     1       4.259   3.750   2.720  0.00  0.00    +0.004 A 
ATOM     23  C   UNL     1       3.042   3.131   2.506  0.00  0.00    +0.046 A 
ATOM     24  C   UNL     1       2.861   1.809   2.879  0.00  0.00    +0.126 A 
BRANCH  24  25
ATOM     25  O   UNL     1       1.667   1.198   2.664  0.00  0.00    -0.506 OA
ATOM     26  H   UNL     1       1.042   1.286   3.397  0.00  0.00    +0.292 HD
ENDBRANCH  24  25
ENDBRANCH  16  19
ENDBRANCH  11  14
ENDBRANCH   2  10
BRANCH   1  27
ATOM     27  C   UNL     1       0.060  -4.247  -0.024  0.00  0.00    +0.206 C 
ATOM     28  O   UNL     1       0.063  -4.846  -1.079  0.00  0.00    -0.288 OA
BRANCH  27  33
ATOM     29  C   UNL     1      -0.018   1.503   0.010  0.00  0.00    +0.047 C 
ATOM     30  C   UNL     1       0.002  -0.004   0.002  0.00  0.00    -0.015 A 
ATOM     31  C   UNL     1       0.006  -0.686  -1.202  0.00  0.00    +0.007 A 
ATOM     32  C   UNL     1       0.025  -2.064  -1.218  0.00  0.00    +0.012 A 
ATOM     33  C   UNL     1       0.041  -2.775  -0.014  0.00  0.00    +0.024 A 
ATOM     34  C   UNL     1       0.037  -2.081   1.200  0.00  0.00    +0.050 A 
ATOM     35  C   UNL     1       0.023  -0.700   1.200  0.00  0.00    +0.127 A 
ATOM     36  F   UNL     1       0.025  -0.026   2.371  0.00  0.00    -0.205 F 
ENDBRANCH  27  33
ENDBRANCH   1  27
TORSDOF 6
