REMARK  Name = ZINC46905964
REMARK  6 active torsions:
REMARK  status: ('A' for Active; 'I' for Inactive)
REMARK    1  A    between atoms: C_1  and  N_2
REMARK    2  A    between atoms: N_5  and  C_6
REMARK    3  A    between atoms: N_5  and  C_14
REMARK    4  A    between atoms: C_6  and  C_7
REMARK    5  A    between atoms: C_12  and  O_13
REMARK    6  A    between atoms: C_14  and  C_15
REMARK                            x       y       z     vdW  Elec       q    Type
REMARK                         _______ _______ _______ _____ _____    ______ ____
ROOT
ATOM      1  C   UNL     1      -0.018   1.461   0.010  0.00  0.00    +0.129 C 
ATOM      2  N   UNL     1       0.002  -0.004   0.002  0.00  0.00    -0.302 N 
ATOM      3  C   UNL     1      -1.156  -0.694   0.009  0.00  0.00    +0.302 C 
ATOM      4  O   UNL     1      -2.217  -0.100   0.023  0.00  0.00    -0.253 OA
ATOM      5  N   UNL     1      -1.137  -2.041   0.002  0.00  0.00    -0.279 N 
ATOM      6  H   UNL     1       0.849  -0.478  -0.009  0.00  0.00    +0.150 HD
ENDROOT
BRANCH   5   7
ATOM      7  C   UNL     1      -2.396  -2.791   0.010  0.00  0.00    +0.148 C 
BRANCH   7   8
ATOM      8  C   UNL     1      -2.841  -3.041  -1.408  0.00  0.00    +0.011 A 
ATOM      9  C   UNL     1      -3.812  -2.240  -1.979  0.00  0.00    +0.009 A 
ATOM     10  C   UNL     1      -4.221  -2.469  -3.280  0.00  0.00    +0.001 A 
ATOM     11  C   UNL     1      -3.660  -3.498  -4.013  0.00  0.00    +0.004 A 
ATOM     12  C   UNL     1      -2.689  -4.301  -3.446  0.00  0.00    +0.046 A 
ATOM     13  C   UNL     1      -2.273  -4.071  -2.143  0.00  0.00    +0.122 A 
BRANCH  13  14
ATOM     14  O   UNL     1      -1.314  -4.856  -1.586  0.00  0.00    -0.506 OA
ATOM     15  H   UNL     1      -1.659  -5.636  -1.131  0.00  0.00    +0.292 HD
ENDBRANCH  13  14
ENDBRANCH   7   8
ENDBRANCH   5   7
BRANCH   5  16
ATOM     16  C   UNL     1       0.141  -2.756  -0.014  0.00  0.00    +0.141 C 
BRANCH  16  17
ATOM     17  C   UNL     1       0.600  -3.013   1.423  0.00  0.00    +0.136 C 
ATOM     18  C   UNL     1       2.002  -3.658   1.417  0.00  0.00    +0.035 C 
ATOM     19  C   UNL     1       1.891  -4.698   2.565  0.00  0.00    +0.031 C 
ATOM     20  C   UNL     1       0.408  -5.127   2.432  0.00  0.00    +0.160 C 
ATOM     21  O   UNL     1      -0.297  -3.929   2.063  0.00  0.00    -0.375 OA
ENDBRANCH  16  17
ENDBRANCH   5  16
TORSDOF 5
