REMARK  Name = ZINC66142096
REMARK  8 active torsions:
REMARK  status: ('A' for Active; 'I' for Inactive)
REMARK    1  A    between atoms: C_1  and  C_2
REMARK    2  A    between atoms: C_4  and  C_7
REMARK    3  A    between atoms: N_15  and  C_16
REMARK    4  A    between atoms: C_16  and  C_17
REMARK    5  A    between atoms: C_17  and  C_18
REMARK    6  A    between atoms: C_18  and  C_19
REMARK    7  A    between atoms: C_19  and  C_20
REMARK    8  A    between atoms: C_22  and  C_25
REMARK                            x       y       z     vdW  Elec       q    Type
REMARK                         _______ _______ _______ _____ _____    ______ ____
ROOT
ATOM      1  C   UNL     1       0.039  -3.320  -1.631  0.00  0.00    +0.146 C 
ATOM      2  C   UNL     1       1.474  -3.877  -1.741  0.00  0.00    +0.032 C 
ATOM      3  C   UNL     1       1.484  -5.021  -0.693  0.00  0.00    +0.021 C 
ATOM      4  C   UNL     1       0.041  -5.570  -0.819  0.00  0.00    +0.110 C 
ATOM      5  N   UNL     1      -0.800  -4.378  -1.052  0.00  0.00    -0.275 N 
ATOM      6  C   UNL     1      -2.116  -4.276  -0.777  0.00  0.00    +0.303 C 
ATOM      7  O   UNL     1      -2.707  -3.239  -1.011  0.00  0.00    -0.253 OA
ATOM      8  N   UNL     1      -2.777  -5.322  -0.244  0.00  0.00    -0.299 N 
ATOM      9  H   UNL     1      -2.306  -6.149  -0.058  0.00  0.00    +0.150 HD
ENDROOT
BRANCH   1  13
ATOM     10  C   UNL     1      -0.018   1.503   0.010  0.00  0.00    +0.069 C 
ATOM     11  C   UNL     1       0.002  -0.004   0.002  0.00  0.00    +0.081 A 
ATOM     12  C   UNL     1       0.008  -0.824  -1.141  0.00  0.00    +0.072 A 
ATOM     13  C   UNL     1       0.027  -2.108  -0.735  0.00  0.00    +0.158 A 
ATOM     14  O   UNL     1       0.034  -2.119   0.606  0.00  0.00    -0.357 OA
ATOM     15  N   UNL     1       0.023  -0.775   1.052  0.00  0.00    -0.083 NA
ENDBRANCH   1  13
BRANCH   8  16
ATOM     16  C   UNL     1      -4.207  -5.211   0.053  0.00  0.00    +0.106 C 
BRANCH  16  17
ATOM     17  C   UNL     1      -4.708  -6.529   0.647  0.00  0.00    +0.019 C 
BRANCH  17  18
ATOM     18  C   UNL     1      -6.202  -6.413   0.958  0.00  0.00    +0.008 C 
BRANCH  18  19
ATOM     19  C   UNL     1      -6.704  -7.731   1.551  0.00  0.00    +0.063 C 
BRANCH  19  20
ATOM     20  C   UNL     1      -8.175  -7.616   1.857  0.00  0.00    +0.079 A 
ATOM     21  N   UNL     1      -9.192  -7.899   1.082  0.00  0.00    -0.249 NA
ATOM     22  C   UNL     1     -10.434  -7.745   1.496  0.00  0.00    +0.046 A 
ATOM     23  C   UNL     1     -10.608  -7.281   2.760  0.00  0.00    +0.070 A 
ATOM     24  S   UNL     1      -8.909  -7.101   3.281  0.00  0.00    -0.080 S 
ATOM     25  C   UNL     1     -11.607  -8.068   0.607  0.00  0.00    +0.066 C 
ENDBRANCH  19  20
ENDBRANCH  18  19
ENDBRANCH  17  18
ENDBRANCH  16  17
ENDBRANCH   8  16
TORSDOF 6
