REMARK  Name = ZINC41252898
REMARK  6 active torsions:
REMARK  status: ('A' for Active; 'I' for Inactive)
REMARK    1  A    between atoms: C_6  and  C_7
REMARK    2  A    between atoms: N_12  and  C_14
REMARK    3  A    between atoms: C_14  and  C_15
REMARK    4  A    between atoms: C_15  and  C_16
REMARK    5  A    between atoms: C_21  and  C_24
REMARK    6  A    between atoms: C_21  and  N_27
REMARK                            x       y       z     vdW  Elec       q    Type
REMARK                         _______ _______ _______ _____ _____    ______ ____
ROOT
ATOM      1  C   UNL     1      -5.666   0.328   2.347  0.00  0.00    +0.217 C 
ATOM      2  O   UNL     1      -5.830   0.517   1.160  0.00  0.00    -0.276 OA
ATOM      3  N   UNL     1      -6.467   0.938   3.243  0.00  0.00    -0.302 N 
ATOM      4  C   UNL     1      -6.277   0.724   4.684  0.00  0.00    +0.107 C 
ATOM      5  C   UNL     1      -7.607   0.271   5.295  0.00  0.00    +0.016 C 
ATOM      6  C   UNL     1      -8.695   1.290   4.949  0.00  0.00    +0.015 C 
ATOM      7  C   UNL     1      -8.862   1.365   3.430  0.00  0.00    +0.016 C 
ATOM      8  C   UNL     1      -7.543   1.834   2.798  0.00  0.00    +0.107 C 
ENDROOT
BRANCH   6   9
ATOM      9  N   UNL     1      -9.965   0.876   5.561  0.00  0.00    +0.389 N 
ATOM     10  C   UNL     1      -9.807   0.819   7.019  0.00  0.00    -0.077 C 
ATOM     11  C   UNL     1     -11.103   0.311   7.657  0.00  0.00    -0.019 C 
ATOM     12  C   UNL     1     -12.248   1.264   7.302  0.00  0.00    -0.004 C 
ATOM     13  C   UNL     1     -12.354   1.374   5.778  0.00  0.00    -0.019 C 
ATOM     14  C   UNL     1     -11.013   1.843   5.211  0.00  0.00    -0.077 C 
ATOM     15  H   UNL     1     -10.222  -0.036   5.217  0.00  0.00    -0.080 HD
ENDBRANCH   6   9
BRANCH   6  16
ATOM     16  C   UNL     1      -8.301   2.645   5.478  0.00  0.00    +0.200 C 
ATOM     17  O   UNL     1      -7.440   2.737   6.327  0.00  0.00    -0.278 OA
ATOM     18  N   UNL     1      -8.905   3.754   5.007  0.00  0.00    -0.330 N 
ATOM     19  H   UNL     1      -9.641   3.676   4.381  0.00  0.00    +0.145 HD
ATOM     20  H   UNL     1      -8.602   4.630   5.294  0.00  0.00    +0.145 HD
ENDBRANCH   6  16
BRANCH   1  21
ATOM     21  C   UNL     1      -4.566  -0.588   2.819  0.00  0.00    +0.119 C 
BRANCH  21  22
ATOM     22  C   UNL     1      -3.812  -1.145   1.610  0.00  0.00    +0.156 C 
BRANCH  22  28
ATOM     23  C   UNL     1      -0.579  -2.286   2.719  0.00  0.00    +0.092 A 
ATOM     24  C   UNL     1      -0.755  -3.675   2.921  0.00  0.00    +0.035 A 
ATOM     25  C   UNL     1      -1.984  -4.213   2.675  0.00  0.00    +0.074 A 
ATOM     26  C   UNL     1      -3.007  -3.346   2.232  0.00  0.00    +0.267 A 
ATOM     27  O   UNL     1      -4.124  -3.782   1.999  0.00  0.00    -0.266 OA
ATOM     28  N   UNL     1      -2.744  -2.036   2.070  0.00  0.00    -0.228 N 
ATOM     29  N   UNL     1      -1.582  -1.545   2.311  0.00  0.00    -0.168 NA
BRANCH  23  35
ATOM     30  C   UNL     1       0.920  -0.294   2.785  0.00  0.00    +0.013 A 
ATOM     31  C   UNL     1       2.151   0.280   3.026  0.00  0.00    +0.039 A 
ATOM     32  C   UNL     1       3.210  -0.501   3.458  0.00  0.00    +0.123 A 
ATOM     33  C   UNL     1       3.039  -1.863   3.649  0.00  0.00    +0.039 A 
ATOM     34  C   UNL     1       1.811  -2.446   3.411  0.00  0.00    +0.013 A 
ATOM     35  C   UNL     1       0.743  -1.664   2.977  0.00  0.00    +0.002 A 
ATOM     36  F   UNL     1       4.414   0.065   3.692  0.00  0.00    -0.205 F 
ENDBRANCH  23  35
ENDBRANCH  22  28
ENDBRANCH  21  22
ENDBRANCH   1  21
TORSDOF 6
