REMARK  Name = ZINC46793111
REMARK  7 active torsions:
REMARK  status: ('A' for Active; 'I' for Inactive)
REMARK    1  A    between atoms: C_1  and  C_2
REMARK    2  A    between atoms: C_6  and  N_12
REMARK    3  A    between atoms: C_13  and  C_15
REMARK    4  A    between atoms: C_15  and  C_17
REMARK    5  A    between atoms: C_15  and  N_18
REMARK    6  A    between atoms: C_19  and  C_21
REMARK    7  A    between atoms: C_25  and  N_27
REMARK                            x       y       z     vdW  Elec       q    Type
REMARK                         _______ _______ _______ _____ _____    ______ ____
ROOT
ATOM      1  N   UNL     1       0.074  -5.800  -1.246  0.00  0.00    -0.284 N 
ATOM      2  C   UNL     1       0.194  -6.941  -0.538  0.00  0.00    +0.237 C 
ATOM      3  O   UNL     1       0.199  -6.904   0.674  0.00  0.00    -0.273 OA
ATOM      4  H   UNL     1       0.002  -5.835  -2.213  0.00  0.00    +0.155 HD
ENDROOT
BRANCH   1  10
ATOM      5  C   UNL     1      -1.188  -0.565   3.845  0.00  0.00    +0.063 C 
ATOM      6  C   UNL     1      -0.820  -1.449   2.681  0.00  0.00    +0.014 A 
ATOM      7  C   UNL     1      -1.106  -2.757   2.587  0.00  0.00    +0.030 A 
ATOM      8  C   UNL     1      -0.570  -3.221   1.304  0.00  0.00    +0.002 A 
ATOM      9  C   UNL     1      -0.552  -4.456   0.652  0.00  0.00    +0.033 A 
ATOM     10  C   UNL     1       0.052  -4.564  -0.586  0.00  0.00    +0.034 A 
ATOM     11  C   UNL     1       0.641  -3.449  -1.180  0.00  0.00    +0.025 A 
ATOM     12  C   UNL     1       0.629  -2.228  -0.545  0.00  0.00    +0.028 A 
ATOM     13  C   UNL     1       0.025  -2.098   0.702  0.00  0.00    +0.047 A 
ATOM     14  N   UNL     1      -0.150  -1.036   1.563  0.00  0.00    -0.358 N 
ATOM     15  H   UNL     1       0.159  -0.131   1.400  0.00  0.00    +0.166 HD
ENDBRANCH   1  10
BRANCH   2  16
ATOM     16  C   UNL     1       0.322  -8.261  -1.252  0.00  0.00    +0.156 C 
ATOM     17  C   UNL     1       1.569  -8.243  -2.138  0.00  0.00    +0.038 C 
BRANCH  16  18
ATOM     18  N   UNL     1       0.438  -9.340  -0.268  0.00  0.00    -0.300 N 
ATOM     19  C   UNL     1       0.066 -10.594  -0.595  0.00  0.00    +0.245 C 
ATOM     20  O   UNL     1      -0.366 -10.829  -1.706  0.00  0.00    -0.270 OA
ATOM     21  H   UNL     1       0.782  -9.152   0.619  0.00  0.00    +0.150 HD
BRANCH  19  22
ATOM     22  C   UNL     1       0.182 -11.682   0.399  0.00  0.00    +0.039 A 
ATOM     23  C   UNL     1       0.672 -11.414   1.678  0.00  0.00    +0.013 A 
ATOM     24  C   UNL     1       0.779 -12.434   2.601  0.00  0.00    +0.003 A 
ATOM     25  C   UNL     1       0.401 -13.721   2.260  0.00  0.00    +0.033 A 
ATOM     26  C   UNL     1      -0.085 -13.994   0.994  0.00  0.00    +0.127 A 
ATOM     27  C   UNL     1      -0.202 -12.981   0.064  0.00  0.00    +0.045 A 
BRANCH  26  28
ATOM     28  N   UNL     1      -0.485 -15.373   0.638  0.00  0.00    +0.056 N 
ATOM     29  O   UNL     1      -0.388 -16.260   1.454  0.00  0.00    -0.126 OA
ATOM     30  O   UNL     1      -0.910 -15.613  -0.468  0.00  0.00    -0.126 OA
ENDBRANCH  26  28
ENDBRANCH  19  22
ENDBRANCH  16  18
ENDBRANCH   2  16
TORSDOF 5
