REMARK  Name = ZINC20837840
REMARK  6 active torsions:
REMARK  status: ('A' for Active; 'I' for Inactive)
REMARK    1  A    between atoms: N_6  and  N_7
REMARK    2  A    between atoms: C_10  and  S_13
REMARK    3  A    between atoms: S_13  and  C_14
REMARK    4  A    between atoms: C_14  and  C_15
REMARK    5  A    between atoms: N_17  and  N_18
REMARK    6  A    between atoms: C_19  and  C_21
REMARK                            x       y       z     vdW  Elec       q    Type
REMARK                         _______ _______ _______ _____ _____    ______ ____
ROOT
ATOM      1  N   UNL     1      -0.010   0.968  -0.016  0.00  0.00    -0.205 N 
ATOM      2  C   UNL     1       1.176   1.659   0.192  0.00  0.00    +0.232 A 
ATOM      3  N   UNL     1       2.432   1.121   0.182  0.00  0.00    -0.186 NA
ATOM      4  C   UNL     1       3.324   2.126   0.426  0.00  0.00    +0.211 A 
ATOM      5  N   UNL     1       2.648   3.239   0.582  0.00  0.00    -0.144 NA
ATOM      6  N   UNL     1       1.287   2.944   0.428  0.00  0.00    -0.245 N 
ATOM      7  H   UNL     1       0.011  -0.115  -0.207  0.00  0.00    +0.177 HD
ATOM      8  H   UNL     1       0.388   3.575   0.473  0.00  0.00    +0.192 HD
ENDROOT
BRANCH   1  14
ATOM      9  C   UNL     1      -4.705  -1.250  -0.187  0.00  0.00    +0.000 C 
ATOM     10  C   UNL     1      -5.430   0.004  -0.404  0.00  0.00    +0.000 C 
ATOM     11  C   UNL     1      -4.590   1.054  -1.143  0.00  0.00    +0.006 C 
ATOM     12  C   UNL     1      -3.661   1.740  -0.178  0.00  0.00    +0.052 C 
ATOM     13  C   UNL     1      -2.332   0.998  -0.073  0.00  0.00    +0.037 C 
ATOM     14  N   UNL     1      -1.234   1.650   0.017  0.00  0.00    -0.189 NA
ATOM     15  C   UNL     1      -2.325  -0.527  -0.082  0.00  0.00    +0.052 C 
ATOM     16  C   UNL     1      -3.479  -1.076   0.720  0.00  0.00    +0.006 C 
ENDBRANCH   1  14
BRANCH   4  17
ATOM     17  S   UNL     1       5.076   1.957   0.517  0.00  0.00    -0.075 S 
BRANCH  17  18
ATOM     18  C   UNL     1       5.662   3.638   0.863  0.00  0.00    +0.174 C 
BRANCH  18  19
ATOM     19  C   UNL     1       7.165   3.635   0.967  0.00  0.00    +0.239 C 
ATOM     20  O   UNL     1       7.781   2.600   0.821  0.00  0.00    -0.273 OA
ATOM     21  N   UNL     1       7.826   4.782   1.221  0.00  0.00    -0.233 N 
ATOM     22  H   UNL     1       7.267   5.720   1.353  0.00  0.00    +0.173 HD
BRANCH  21  23
ATOM     23  N   UNL     1       9.223   4.779   1.317  0.00  0.00    -0.227 N 
ATOM     24  C   UNL     1       9.884   5.926   1.571  0.00  0.00    +0.333 C 
ATOM     25  O   UNL     1       9.268   6.960   1.717  0.00  0.00    -0.264 OA
ATOM     26  H   UNL     1       9.782   3.840   1.185  0.00  0.00    +0.173 HD
BRANCH  24  27
ATOM     27  C   UNL     1      11.387   5.922   1.675  0.00  0.00    +0.471 C 
ATOM     28  F   UNL     1      11.839   7.219   1.942  0.00  0.00    -0.162 F 
ATOM     29  F   UNL     1      11.782   5.068   2.711  0.00  0.00    -0.162 F 
ATOM     30  F   UNL     1      11.937   5.476   0.468  0.00  0.00    -0.162 F 
ENDBRANCH  24  27
ENDBRANCH  21  23
ENDBRANCH  18  19
ENDBRANCH  17  18
ENDBRANCH   4  17
TORSDOF 6
