REMARK  Name = ZINC04128356
REMARK  10 active torsions:
REMARK  status: ('A' for Active; 'I' for Inactive)
REMARK    1  A    between atoms: C_1  and  C_2
REMARK    2  A    between atoms: C_2  and  C_3
REMARK    3  A    between atoms: C_3  and  C_4
REMARK    4  A    between atoms: C_3  and  C_5
REMARK    5  A    between atoms: C_3  and  N_13
REMARK    6  A    between atoms: N_7  and  C_8
REMARK    7  A    between atoms: N_13  and  C_14
REMARK    8  A    between atoms: C_14  and  C_15
REMARK    9  A    between atoms: C_20  and  C_22
REMARK   10  A    between atoms: C_22  and  C_23
REMARK                            x       y       z     vdW  Elec       q    Type
REMARK                         _______ _______ _______ _____ _____    ______ ____
ROOT
ATOM      1  N   UNL     1      -0.612   2.950   0.981  0.00  0.00    -0.280 N 
ATOM      2  C   UNL     1       0.630   3.473   0.967  0.00  0.00    +0.219 C 
ATOM      3  O   UNL     1       1.596   2.744   1.047  0.00  0.00    -0.275 OA
ENDROOT
BRANCH   1   4
ATOM      4  C   UNL     1      -0.795   1.501   1.095  0.00  0.00    +0.111 C 
ATOM      5  C   UNL     1      -0.201   1.014   2.417  0.00  0.00    +0.042 C 
BRANCH   4   6
ATOM      6  C   UNL     1      -2.266   1.176   1.055  0.00  0.00    +0.237 C 
ATOM      7  O   UNL     1      -2.776   0.798   0.022  0.00  0.00    -0.273 OA
ATOM      8  N   UNL     1      -3.015   1.306   2.168  0.00  0.00    -0.311 N 
ATOM      9  H   UNL     1      -2.624   1.676   2.975  0.00  0.00    +0.149 HD
BRANCH   8  10
ATOM     10  C   UNL     1      -4.419   0.888   2.160  0.00  0.00    +0.073 C 
ATOM     11  C   UNL     1      -5.298   2.002   1.556  0.00  0.00    +0.022 C 
ATOM     12  C   UNL     1      -6.600   1.955   2.397  0.00  0.00    +0.002 C 
ATOM     13  C   UNL     1      -6.075   1.657   3.824  0.00  0.00    +0.002 C 
ATOM     14  C   UNL     1      -4.913   0.668   3.600  0.00  0.00    +0.022 C 
ENDBRANCH   8  10
ENDBRANCH   4   6
BRANCH   4  16
ATOM     15  C   UNL     1      -0.567   1.408  -1.392  0.00  0.00    +0.006 C 
ATOM     16  C   UNL     1      -0.088   0.805  -0.070  0.00  0.00    +0.032 C 
ENDBRANCH   4  16
ENDBRANCH   1   4
BRANCH   1  17
ATOM     17  C   UNL     1      -1.779   3.831   0.884  0.00  0.00    +0.183 C 
BRANCH  17  18
ATOM     18  C   UNL     1      -2.126   4.357   2.252  0.00  0.00    +0.122 A 
ATOM     19  C   UNL     1      -1.751   5.547   2.756  0.00  0.00    +0.046 A 
ATOM     20  C   UNL     1      -2.296   5.630   4.058  0.00  0.00    +0.041 A 
ATOM     21  C   UNL     1      -2.965   4.484   4.275  0.00  0.00    +0.195 A 
ATOM     22  O   UNL     1      -2.859   3.716   3.178  0.00  0.00    -0.466 OA
ENDBRANCH  17  18
ENDBRANCH   1  17
BRANCH   2  23
ATOM     23  C   UNL     1       0.819   4.964   0.850  0.00  0.00    +0.127 C 
BRANCH  23  24
ATOM     24  C   UNL     1       2.313   5.291   0.857  0.00  0.00    +0.169 C 
ATOM     25  C   UNL     1       2.534   6.779   0.670  0.00  0.00    +0.241 C 
ATOM     26  O   UNL     1       2.212   7.453  -0.285  0.00  0.00    -0.273 OA
ATOM     27  N   UNL     1       3.163   7.197   1.786  0.00  0.00    -0.239 N 
ATOM     28  C   UNL     1       3.367   6.191   2.644  0.00  0.00    +0.307 C 
ATOM     29  O   UNL     1       3.916   6.321   3.720  0.00  0.00    -0.252 OA
ATOM     30  N   UNL     1       2.898   5.014   2.180  0.00  0.00    -0.287 N 
ATOM     31  H   UNL     1       3.434   8.114   1.948  0.00  0.00    +0.159 HD
ATOM     32  H   UNL     1       2.937   4.155   2.629  0.00  0.00    +0.151 HD
ENDBRANCH  23  24
ENDBRANCH   2  23
TORSDOF 8
