REMARK  Name = ZINC51173196
REMARK  6 active torsions:
REMARK  status: ('A' for Active; 'I' for Inactive)
REMARK    1  A    between atoms: C_1  and  C_2
REMARK    2  A    between atoms: C_2  and  C_3
REMARK    3  A    between atoms: C_2  and  C_4
REMARK    4  A    between atoms: C_2  and  N_8
REMARK    5  A    between atoms: N_5  and  O_6
REMARK    6  A    between atoms: C_9  and  C_11
REMARK                            x       y       z     vdW  Elec       q    Type
REMARK                         _______ _______ _______ _____ _____    ______ ____
ROOT
ATOM      1  C   UNL     1      -0.019   1.526   0.010  0.00  0.00    +0.039 C 
ATOM      2  C   UNL     1       0.002  -0.004   0.002  0.00  0.00    +0.088 C 
ATOM      3  C   UNL     1       0.742  -0.511   1.242  0.00  0.00    +0.039 C 
ENDROOT
BRANCH   2   4
ATOM      4  C   UNL     1      -1.412  -0.526   0.013  0.00  0.00    +0.155 C 
ATOM      5  N   UNL     1      -1.844  -1.198   1.027  0.00  0.00    -0.075 NA
ATOM      6  N   UNL     1      -2.243  -0.285  -1.059  0.00  0.00    -0.342 N 
ATOM      7  H   UNL     1      -1.918   0.220  -1.821  0.00  0.00    +0.144 HD
ATOM      8  H   UNL     1      -3.152  -0.621  -1.052  0.00  0.00    +0.144 HD
BRANCH   5   9
ATOM      9  O   UNL     1      -3.173  -1.688   1.037  0.00  0.00    -0.408 OA
ATOM     10  H   UNL     1      -3.405  -2.179   1.838  0.00  0.00    +0.328 HD
ENDBRANCH   5   9
ENDBRANCH   2   4
BRANCH   2  11
ATOM     11  N   UNL     1       0.688  -0.476  -1.203  0.00  0.00    -0.299 N 
ATOM     12  C   UNL     1       1.972  -0.132  -1.427  0.00  0.00    +0.251 C 
ATOM     13  O   UNL     1       2.561   0.571  -0.628  0.00  0.00    -0.270 OA
ATOM     14  H   UNL     1       0.218  -1.037  -1.840  0.00  0.00    +0.150 HD
BRANCH  12  15
ATOM     15  C   UNL     1       2.657  -0.605  -2.632  0.00  0.00    +0.075 A 
ATOM     16  C   UNL     1       3.961  -0.373  -3.043  0.00  0.00    +0.022 A 
ATOM     17  C   UNL     1       4.324  -0.955  -4.233  0.00  0.00    +0.028 A 
ATOM     18  C   UNL     1       3.411  -1.697  -4.910  0.00  0.00    +0.079 A 
ATOM     19  S   UNL     1       2.035  -1.633  -3.948  0.00  0.00    -0.072 S 
ATOM     20 CL   UNL     1       3.619  -2.527  -6.421  0.00  0.00    -0.076 Cl
ENDBRANCH  12  15
ENDBRANCH   2  11
TORSDOF 4
