REMARK  Name = ZINC14109737
REMARK  4 active torsions:
REMARK  status: ('A' for Active; 'I' for Inactive)
REMARK    1  A    between atoms: C_6  and  C_7
REMARK    2  A    between atoms: C_10  and  S_12
REMARK    3  A    between atoms: S_12  and  C_13
REMARK    4  A    between atoms: C_13  and  C_14
REMARK                            x       y       z     vdW  Elec       q    Type
REMARK                         _______ _______ _______ _____ _____    ______ ____
ROOT
ATOM      1  C   UNL     1      -1.305   2.115   0.020  0.00  0.00    +0.249 A 
ATOM      2  N   UNL     1      -2.499   1.574   0.023  0.00  0.00    -0.106 NA
ATOM      3  N   UNL     1      -3.389   2.502   0.032  0.00  0.00    -0.101 NA
ATOM      4  C   UNL     1      -2.799   3.675   0.035  0.00  0.00    +0.278 A 
ATOM      5  O   UNL     1      -1.470   3.457   0.033  0.00  0.00    -0.411 OA
ENDROOT
BRANCH   1  11
ATOM      6  C   UNL     1       1.185   2.103   0.002  0.00  0.00    +0.017 A 
ATOM      7  C   UNL     1       2.386   1.426  -0.013  0.00  0.00    +0.050 A 
ATOM      8  C   UNL     1       2.406   0.039  -0.021  0.00  0.00    +0.166 A 
ATOM      9  C   UNL     1       1.209  -0.677  -0.013  0.00  0.00    +0.167 A 
ATOM     10  C   UNL     1       0.002  -0.004   0.002  0.00  0.00    +0.062 A 
ATOM     11  C   UNL     1      -0.017   1.392   0.010  0.00  0.00    +0.042 A 
ATOM     12  O   UNL     1       1.500  -2.011  -0.023  0.00  0.00    -0.453 OA
ATOM     13  C   UNL     1       2.880  -2.107   0.376  0.00  0.00    +0.466 C 
ATOM     14  O   UNL     1       3.444  -0.848  -0.036  0.00  0.00    -0.453 OA
ENDBRANCH   1  11
BRANCH   4  15
ATOM     15  S   UNL     1      -3.598   5.245   0.047  0.00  0.00    -0.058 S 
BRANCH  15  16
ATOM     16  C   UNL     1      -5.329   4.717   0.053  0.00  0.00    +0.155 C 
BRANCH  16  17
ATOM     17  C   UNL     1      -6.224   5.929   0.064  0.00  0.00    +0.146 A 
ATOM     18  N   UNL     1      -6.614   6.450   1.214  0.00  0.00    -0.199 NA
ATOM     19  C   UNL     1      -7.401   7.524   1.228  0.00  0.00    +0.217 A 
ATOM     20  N   UNL     1      -7.803   8.065   0.083  0.00  0.00    -0.181 NA
ATOM     21  C   UNL     1      -7.413   7.535  -1.071  0.00  0.00    +0.217 A 
ATOM     22  N   UNL     1      -6.622   6.464  -1.077  0.00  0.00    -0.199 NA
ATOM     23  N   UNL     1      -7.828   8.093  -2.263  0.00  0.00    -0.327 N 
ATOM     24  N   UNL     1      -7.803   8.070   2.429  0.00  0.00    -0.327 N 
ATOM     25  H   UNL     1      -7.543   7.706  -3.105  0.00  0.00    +0.145 HD
ATOM     26  H   UNL     1      -8.404   8.873  -2.259  0.00  0.00    +0.145 HD
ATOM     27  H   UNL     1      -8.380   8.850   2.438  0.00  0.00    +0.145 HD
ATOM     28  H   UNL     1      -7.510   7.675   3.265  0.00  0.00    +0.145 HD
ENDBRANCH  16  17
ENDBRANCH  15  16
ENDBRANCH   4  15
TORSDOF 4
