REMARK  Name = ZINC43025230
REMARK  8 active torsions:
REMARK  status: ('A' for Active; 'I' for Inactive)
REMARK    1  A    between atoms: C_1  and  C_2
REMARK    2  A    between atoms: C_2  and  C_3
REMARK    3  A    between atoms: C_3  and  C_5
REMARK    4  A    between atoms: C_3  and  N_23
REMARK    5  A    between atoms: C_5  and  C_7
REMARK    6  A    between atoms: C_5  and  S_14
REMARK    7  A    between atoms: S_14  and  C_15
REMARK    8  A    between atoms: C_19  and  N_21
REMARK                            x       y       z     vdW  Elec       q    Type
REMARK                         _______ _______ _______ _____ _____    ______ ____
ROOT
ATOM      1  C   UNL     1       0.808  -2.271   1.211  0.00  0.00    +0.070 C 
ENDROOT
BRANCH   1   2
ATOM      2  C   UNL     1       1.451  -3.128   2.271  0.00  0.00    -0.035 A 
ATOM      3  C   UNL     1       2.828  -3.247   2.323  0.00  0.00    +0.005 A 
ATOM      4  C   UNL     1       3.418  -4.033   3.295  0.00  0.00    +0.001 A 
ATOM      5  C   UNL     1       2.632  -4.701   4.215  0.00  0.00    +0.015 A 
ATOM      6  C   UNL     1       1.255  -4.582   4.164  0.00  0.00    +0.018 A 
ATOM      7  C   UNL     1       0.665  -3.791   3.195  0.00  0.00    +0.020 A 
ATOM      8 BR   UNL     1       0.179  -5.496   5.423  0.00  0.00    -0.050 Br
ENDBRANCH   1   2
BRANCH   1   9
ATOM      9  C   UNL     1       0.986  -0.795   1.572  0.00  0.00    -0.057 C 
BRANCH   9  10
ATOM     10  N   UNL     1       0.447  -0.551   2.917  0.00  0.00    +0.381 N 
ATOM     11  H   UNL     1      -0.505  -0.882   2.963  0.00  0.00    -0.090 HD
ATOM     12  H   UNL     1       1.008  -1.042   3.598  0.00  0.00    -0.090 HD
ATOM     13  H   UNL     1       0.469   0.438   3.114  0.00  0.00    -0.090 HD
ENDBRANCH   9  10
BRANCH   9  15
ATOM     14  C   UNL     1       2.642   1.066   1.760  0.00  0.00    +0.002 C 
ATOM     15  C   UNL     1       2.474  -0.440   1.546  0.00  0.00    -0.018 C 
ENDBRANCH   9  15
ENDBRANCH   1   9
BRANCH   1  16
ATOM     16  S   UNL     1       1.592  -2.601  -0.391  0.00  0.00    -0.079 S 
BRANCH  16  17
ATOM     17  C   UNL     1       0.560  -1.767  -1.550  0.00  0.00    +0.192 A 
ATOM     18  N   UNL     1      -0.470  -1.062  -1.106  0.00  0.00    -0.207 NA
ATOM     19  C   UNL     1      -1.270  -0.418  -1.953  0.00  0.00    +0.122 A 
ATOM     20  C   UNL     1      -1.013  -0.493  -3.319  0.00  0.00    +0.086 A 
ATOM     21  C   UNL     1       0.078  -1.244  -3.747  0.00  0.00    +0.122 A 
ATOM     22  N   UNL     1       0.838  -1.857  -2.843  0.00  0.00    -0.207 NA
ATOM     23  N   UNL     1      -2.347   0.317  -1.480  0.00  0.00    -0.343 N 
ATOM     24  H   UNL     1      -2.520   0.365  -0.527  0.00  0.00    +0.144 HD
ATOM     25  H   UNL     1      -2.926   0.783  -2.103  0.00  0.00    +0.144 HD
BRANCH  21  26
ATOM     26  N   UNL     1       0.372  -1.347  -5.098  0.00  0.00    -0.343 N 
ATOM     27  H   UNL     1      -0.184  -0.895  -5.751  0.00  0.00    +0.144 HD
ATOM     28  H   UNL     1       1.134  -1.872  -5.389  0.00  0.00    +0.144 HD
ENDBRANCH  21  26
ENDBRANCH  16  17
ENDBRANCH   1  16
TORSDOF 7
