REMARK  Name = ZINC25444690
REMARK  9 active torsions:
REMARK  status: ('A' for Active; 'I' for Inactive)
REMARK    1  A    between atoms: C_1  and  N_2
REMARK    2  A    between atoms: C_6  and  S_7
REMARK    3  A    between atoms: S_7  and  C_8
REMARK    4  A    between atoms: C_8  and  C_9
REMARK    5  A    between atoms: C_12  and  C_15
REMARK    6  A    between atoms: N_17  and  N_18
REMARK    7  A    between atoms: C_19  and  C_21
REMARK    8  A    between atoms: C_21  and  C_22
REMARK    9  A    between atoms: C_31  and  O_34
REMARK                            x       y       z     vdW  Elec       q    Type
REMARK                         _______ _______ _______ _____ _____    ______ ____
ROOT
ATOM      1  C   UNL     1      -0.421   1.372   4.836  0.00  0.00    +0.260 C 
ATOM      2  O   UNL     1       0.578   0.686   4.935  0.00  0.00    -0.269 OA
ATOM      3  N   UNL     1      -0.897   1.698   3.618  0.00  0.00    -0.230 N 
ATOM      4  H   UNL     1      -1.801   2.318   3.529  0.00  0.00    +0.173 HD
ENDROOT
BRANCH   1   8
ATOM      5  C   UNL     1      -2.409   2.742   8.331  0.00  0.00    -0.037 A 
ATOM      6  C   UNL     1      -1.272   1.961   8.447  0.00  0.00    +0.005 A 
ATOM      7  C   UNL     1      -0.622   1.513   7.316  0.00  0.00    +0.013 A 
ATOM      8  C   UNL     1      -1.113   1.849   6.053  0.00  0.00    +0.038 A 
ATOM      9  C   UNL     1      -2.257   2.641   5.943  0.00  0.00    +0.013 A 
ATOM     10  C   UNL     1      -2.901   3.078   7.082  0.00  0.00    +0.005 A 
BRANCH   5  11
ATOM     11  C   UNL     1      -3.115   3.228   9.571  0.00  0.00    +0.112 C 
BRANCH  11  12
ATOM     12  S   UNL     1      -2.431   4.829  10.066  0.00  0.00    -0.081 S 
BRANCH  12  18
ATOM     13  C   UNL     1      -2.416   7.385  12.163  0.00  0.00    +0.152 C 
ATOM     14  N   UNL     1      -3.327   6.247  12.306  0.00  0.00    -0.312 N 
ATOM     15  C   UNL     1      -4.274   6.063  13.275  0.00  0.00    +0.225 A 
ATOM     16  N   UNL     1      -4.856   4.921  13.037  0.00  0.00    -0.137 NA
ATOM     17  N   UNL     1      -4.349   4.378  11.988  0.00  0.00    -0.123 NA
ATOM     18  C   UNL     1      -3.408   5.150  11.496  0.00  0.00    +0.191 A 
ENDBRANCH  12  18
ENDBRANCH  11  12
ENDBRANCH   5  11
ENDBRANCH   1   8
BRANCH   3  19
ATOM     19  N   UNL     1      -0.242   1.246   2.466  0.00  0.00    -0.234 N 
ATOM     20  C   UNL     1      -0.718   1.572   1.248  0.00  0.00    +0.230 C 
ATOM     21  O   UNL     1      -1.714   2.256   1.150  0.00  0.00    -0.274 OA
ATOM     22  H   UNL     1       0.662   0.625   2.555  0.00  0.00    +0.173 HD
BRANCH  20  23
ATOM     23  C   UNL     1      -0.013   1.086   0.008  0.00  0.00    +0.104 C 
BRANCH  23  24
ATOM     24  C   UNL     1      -0.753   1.593  -1.232  0.00  0.00    -0.018 C 
ATOM     25  C   UNL     1      -2.188   1.063  -1.221  0.00  0.00    +0.011 C 
ATOM     26  C   UNL     1      -2.928   1.570  -2.460  0.00  0.00    -0.007 C 
ATOM     27  C   UNL     1      -2.949   3.100  -2.452  0.00  0.00    +0.007 C 
ATOM     28  C   UNL     1      -1.513   3.629  -2.463  0.00  0.00    -0.007 C 
ATOM     29  C   UNL     1      -0.773   3.123  -1.223  0.00  0.00    +0.011 C 
ATOM     30  C   UNL     1      -0.797   3.136  -3.721  0.00  0.00    +0.038 C 
ATOM     31  C   UNL     1      -0.777   1.606  -3.730  0.00  0.00    +0.067 C 
ATOM     32  C   UNL     1      -2.212   1.077  -3.719  0.00  0.00    +0.038 C 
ATOM     33  C   UNL     1      -0.037   1.099  -2.490  0.00  0.00    +0.042 C 
BRANCH  31  34
ATOM     34  O   UNL     1      -0.108   1.145  -4.906  0.00  0.00    -0.389 OA
ATOM     35  H   UNL     1       0.006   0.066  -5.087  0.00  0.00    +0.210 HD
ENDBRANCH  31  34
ENDBRANCH  23  24
ENDBRANCH  20  23
ENDBRANCH   3  19
TORSDOF 8
