REMARK  Name = ZINC22061115
REMARK  15 active torsions:
REMARK  status: ('A' for Active; 'I' for Inactive)
REMARK    1  A    between atoms: C_1  and  C_2
REMARK    2  A    between atoms: C_2  and  C_3
REMARK    3  A    between atoms: C_2  and  N_4
REMARK    4  A    between atoms: N_4  and  C_5
REMARK    5  A    between atoms: C_5  and  C_6
REMARK    6  A    between atoms: C_6  and  C_8
REMARK    7  A    between atoms: C_6  and  O_38
REMARK    8  A    between atoms: C_8  and  O_9
REMARK    9  A    between atoms: O_9  and  C_10
REMARK   10  A    between atoms: C_13  and  O_20
REMARK   11  A    between atoms: O_20  and  C_21
REMARK   12  A    between atoms: C_23  and  O_37
REMARK   13  A    between atoms: C_25  and  O_36
REMARK   14  A    between atoms: C_27  and  O_35
REMARK   15  A    between atoms: C_29  and  C_32
REMARK                            x       y       z     vdW  Elec       q    Type
REMARK                         _______ _______ _______ _____ _____    ______ ____
ROOT
ATOM      1  C   UNL     1      -5.602   2.896  -2.407  0.00  0.00    +0.129 A 
ATOM      2  C   UNL     1      -4.813   2.590  -1.334  0.00  0.00    +0.050 A 
ATOM      3  C   UNL     1      -3.452   2.883  -1.338  0.00  0.00    +0.050 A 
ATOM      4  C   UNL     1      -2.866   3.484  -2.415  0.00  0.00    +0.132 A 
ATOM      5  C   UNL     1      -3.648   3.819  -3.539  0.00  0.00    +0.027 A 
ATOM      6  C   UNL     1      -5.032   3.516  -3.536  0.00  0.00    +0.027 A 
ATOM      7  C   UNL     1      -5.811   3.846  -4.657  0.00  0.00    +0.012 A 
ATOM      8  C   UNL     1      -5.230   4.458  -5.725  0.00  0.00    +0.001 A 
ATOM      9  C   UNL     1      -3.867   4.752  -5.729  0.00  0.00    +0.001 A 
ATOM     10  C   UNL     1      -3.081   4.442  -4.662  0.00  0.00    +0.012 A 
ENDROOT
BRANCH   1  11
ATOM     11  O   UNL     1      -6.929   2.602  -2.385  0.00  0.00    -0.489 OA
BRANCH  11  12
ATOM     12  C   UNL     1      -7.434   1.973  -1.206  0.00  0.00    +0.258 C 
BRANCH  12  13
ATOM     13  C   UNL     1      -8.935   1.722  -1.365  0.00  0.00    +0.135 C 
BRANCH  13  14
ATOM     14  O   UNL     1      -9.152   0.781  -2.419  0.00  0.00    -0.390 OA
ATOM     15  H   UNL     1      -8.810   1.010  -3.439  0.00  0.00    +0.210 HD
ENDBRANCH  13  14
BRANCH  13  16
ATOM     16  C   UNL     1      -9.501   1.163  -0.058  0.00  0.00    -0.047 C 
BRANCH  16  17
ATOM     17  N   UNL     1     -10.942   0.923  -0.211  0.00  0.00    +0.382 N 
ATOM     18  H   UNL     1     -11.094   0.204  -1.030  0.00  0.00    -0.085 HD
ATOM     19  H   UNL     1     -11.434   1.874  -0.463  0.00  0.00    -0.085 HD
BRANCH  17  21
ATOM     20  C   UNL     1     -11.880   1.538   1.966  0.00  0.00    -0.014 C 
ATOM     21  C   UNL     1     -11.520   0.385   1.027  0.00  0.00    -0.078 C 
ATOM     22  C   UNL     1     -12.782  -0.415   0.695  0.00  0.00    -0.014 C 
ENDBRANCH  17  21
ENDBRANCH  16  17
ENDBRANCH  13  16
ENDBRANCH  12  13
ENDBRANCH  11  12
ENDBRANCH   1  11
BRANCH   4  23
ATOM     23  O   UNL     1      -1.535   3.763  -2.402  0.00  0.00    -0.460 OA
BRANCH  23  24
ATOM     24  C   UNL     1      -0.808   3.400  -1.226  0.00  0.00    +0.340 C 
ATOM     25  C   UNL     1       0.596   4.006  -1.287  0.00  0.00    +0.214 C 
ATOM     26  C   UNL     1       1.388   3.563  -0.053  0.00  0.00    +0.180 C 
ATOM     27  C   UNL     1       1.418   2.033  -0.001  0.00  0.00    +0.186 C 
ATOM     28  C   UNL     1      -0.018   1.503   0.010  0.00  0.00    +0.266 C 
ATOM     29  O   UNL     1      -0.708   1.976  -1.148  0.00  0.00    -0.322 OA
BRANCH  28  30
ATOM     30  C   UNL     1       0.002  -0.004   0.002  0.00  0.00    +0.387 C 
ATOM     31  O   UNL     1      -0.441  -0.609  -0.945  0.00  0.00    -0.243 OA
ATOM     32  O   UNL     1       0.512  -0.674   1.047  0.00  0.00    -0.243 OA
ENDBRANCH  28  30
BRANCH  27  33
ATOM     33  O   UNL     1       2.093   1.607   1.185  0.00  0.00    -0.386 OA
ATOM     34  H   UNL     1       2.212   0.534   1.395  0.00  0.00    +0.210 HD
ENDBRANCH  27  33
BRANCH  26  35
ATOM     35  O   UNL     1       2.724   4.065  -0.137  0.00  0.00    -0.386 OA
ATOM     36  H   UNL     1       3.445   3.847   0.664  0.00  0.00    +0.210 HD
ENDBRANCH  26  35
BRANCH  25  37
ATOM     37  O   UNL     1       1.261   3.554  -2.468  0.00  0.00    -0.383 OA
ATOM     38  H   UNL     1       2.287   3.888  -2.684  0.00  0.00    +0.210 HD
ENDBRANCH  25  37
ENDBRANCH  23  24
ENDBRANCH   4  23
TORSDOF 13
