REMARK  Name = ZINC45842297
REMARK  11 active torsions:
REMARK  status: ('A' for Active; 'I' for Inactive)
REMARK    1  A    between atoms: C_3  and  C_6
REMARK    2  A    between atoms: C_6  and  N_7
REMARK    3  A    between atoms: C_8  and  C_29
REMARK    4  A    between atoms: C_11  and  S_12
REMARK    5  A    between atoms: S_12  and  C_13
REMARK    6  A    between atoms: C_13  and  C_14
REMARK    7  A    between atoms: C_14  and  C_16
REMARK    8  A    between atoms: C_17  and  N_28
REMARK    9  A    between atoms: N_18  and  C_25
REMARK   10  A    between atoms: C_29  and  C_30
REMARK   11  A    between atoms: C_30  and  C_31
REMARK                            x       y       z     vdW  Elec       q    Type
REMARK                         _______ _______ _______ _____ _____    ______ ____
ROOT
ATOM      1  S   UNL     1       2.821  -2.633   2.115  0.00  0.00    -0.078 S 
ENDROOT
BRANCH   1   6
ATOM      2  N   UNL     1       1.730  -0.070   2.379  0.00  0.00    -0.299 N 
ATOM      3  C   UNL     1       1.630   0.861   3.375  0.00  0.00    +0.135 A 
ATOM      4  N   UNL     1       2.214   0.366   4.429  0.00  0.00    -0.133 NA
ATOM      5  N   UNL     1       2.673  -0.806   4.170  0.00  0.00    -0.122 NA
ATOM      6  C   UNL     1       2.400  -1.127   2.926  0.00  0.00    +0.192 A 
BRANCH   2   7
ATOM      7  C   UNL     1       1.220   0.041   1.010  0.00  0.00    +0.199 C 
BRANCH   7  10
ATOM      8  C   UNL     1       3.929   1.204  -1.201  0.00  0.00    +0.041 A 
ATOM      9  C   UNL     1       3.225   0.169  -0.543  0.00  0.00    +0.046 A 
ATOM     10  C   UNL     1       2.233   0.753   0.152  0.00  0.00    +0.125 A 
ATOM     11  O   UNL     1       2.299   2.080  -0.049  0.00  0.00    -0.466 OA
ATOM     12  C   UNL     1       3.325   2.358  -0.868  0.00  0.00    +0.195 A 
ENDBRANCH   7  10
ENDBRANCH   2   7
BRANCH   3  13
ATOM     13  C   UNL     1       0.968   2.211   3.273  0.00  0.00    +0.085 C 
BRANCH  13  14
ATOM     14  C   UNL     1      -0.477   2.109   3.767  0.00  0.00    +0.103 C 
BRANCH  14  15
ATOM     15  C   UNL     1      -1.162   3.440   3.596  0.00  0.00    +0.211 C 
ATOM     16  O   UNL     1      -0.554   4.379   3.126  0.00  0.00    -0.276 OA
ATOM     17  N   UNL     1      -2.449   3.588   3.966  0.00  0.00    -0.329 N 
ATOM     18  H   UNL     1      -2.935   2.838   4.342  0.00  0.00    +0.145 HD
ATOM     19  H   UNL     1      -2.890   4.445   3.856  0.00  0.00    +0.145 HD
ENDBRANCH  14  15
ENDBRANCH  13  14
ENDBRANCH   3  13
ENDBRANCH   1   6
BRANCH   1  20
ATOM     20  C   UNL     1       3.688  -3.590   3.390  0.00  0.00    +0.157 C 
BRANCH  20  21
ATOM     21  C   UNL     1       4.109  -4.920   2.820  0.00  0.00    +0.182 C 
ATOM     22  O   UNL     1       3.849  -5.196   1.667  0.00  0.00    -0.291 OA
BRANCH  21  23
ATOM     23  C   UNL     1       4.805  -5.845   3.628  0.00  0.00    +0.120 A 
ATOM     24  C   UNL     1       5.094  -7.140   3.163  0.00  0.00    +0.116 A 
ATOM     25  N   UNL     1       5.770  -7.999   3.981  0.00  0.00    -0.278 N 
ATOM     26  C   UNL     1       6.161  -7.630   5.211  0.00  0.00    +0.331 A 
ATOM     27  O   UNL     1       6.760  -8.432   5.900  0.00  0.00    -0.246 OA
ATOM     28  N   UNL     1       5.914  -6.407   5.708  0.00  0.00    -0.274 N 
ATOM     29  H   UNL     1       6.215  -6.184   6.603  0.00  0.00    +0.173 HD
ATOM     30  C   UNL     1       5.257  -5.483   4.977  0.00  0.00    +0.266 A 
ATOM     31  O   UNL     1       5.040  -4.374   5.429  0.00  0.00    -0.267 OA
BRANCH  25  32
ATOM     32  C   UNL     1       6.076  -9.351   3.507  0.00  0.00    +0.094 C 
ATOM     33  C   UNL     1       7.505  -9.861   3.699  0.00  0.00    +0.027 C 
ATOM     34  C   UNL     1       7.010  -9.483   2.302  0.00  0.00    +0.027 C 
ENDBRANCH  25  32
BRANCH  24  35
ATOM     35  N   UNL     1       4.705  -7.531   1.920  0.00  0.00    -0.344 N 
ATOM     36  H   UNL     1       4.601  -6.873   1.214  0.00  0.00    +0.144 HD
ATOM     37  H   UNL     1       4.530  -8.468   1.738  0.00  0.00    +0.144 HD
ENDBRANCH  24  35
ENDBRANCH  21  23
ENDBRANCH  20  21
ENDBRANCH   1  20
TORSDOF 11
