REMARK  Name = ZINC66767589
REMARK  9 active torsions:
REMARK  status: ('A' for Active; 'I' for Inactive)
REMARK    1  A    between atoms: C_1  and  C_2
REMARK    2  A    between atoms: C_2  and  O_3
REMARK    3  A    between atoms: O_3  and  C_4
REMARK    4  A    between atoms: C_6  and  N_11
REMARK    5  A    between atoms: C_9  and  C_10
REMARK    6  A    between atoms: C_12  and  C_14
REMARK    7  A    between atoms: C_14  and  C_15
REMARK    8  A    between atoms: C_14  and  C_16
REMARK    9  A    between atoms: C_14  and  N_17
REMARK                            x       y       z     vdW  Elec       q    Type
REMARK                         _______ _______ _______ _____ _____    ______ ____
ROOT
ATOM      1  N   UNL     1      -0.184  -4.909   0.401  0.00  0.00    -0.283 N 
ATOM      2  C   UNL     1      -0.167  -6.240   0.188  0.00  0.00    +0.244 C 
ATOM      3  O   UNL     1       0.394  -6.690  -0.788  0.00  0.00    -0.273 OA
ATOM      4  H   UNL     1      -0.574  -4.553   1.215  0.00  0.00    +0.155 HD
ENDROOT
BRANCH   1   7
ATOM      5  C   UNL     1       0.323  -1.942  -1.716  0.00  0.00    +0.125 A 
ATOM      6  C   UNL     1      -0.220  -2.799  -0.772  0.00  0.00    +0.069 A 
ATOM      7  C   UNL     1       0.360  -4.041  -0.552  0.00  0.00    +0.037 A 
ATOM      8  C   UNL     1       1.482  -4.420  -1.278  0.00  0.00    +0.024 A 
ATOM      9  C   UNL     1       2.019  -3.563  -2.218  0.00  0.00    +0.009 A 
ATOM     10  C   UNL     1       1.440  -2.329  -2.443  0.00  0.00    -0.009 A 
ATOM     11  C   UNL     1       2.026  -1.399  -3.474  0.00  0.00    +0.047 C 
BRANCH   5  12
ATOM     12  O   UNL     1      -0.242  -0.725  -1.934  0.00  0.00    -0.492 OA
BRANCH  12  14
ATOM     13  C   UNL     1      -1.882   1.004  -1.533  0.00  0.00    +0.048 C 
ATOM     14  C   UNL     1      -1.390  -0.393  -1.150  0.00  0.00    +0.225 C 
ENDBRANCH  12  14
ENDBRANCH   5  12
ENDBRANCH   1   7
BRANCH   2  15
ATOM     15  C   UNL     1      -0.845  -7.168   1.163  0.00  0.00    +0.134 C 
ATOM     16  C   UNL     1      -0.211  -7.006   2.546  0.00  0.00    +0.046 C 
ATOM     17  C   UNL     1      -2.334  -6.825   1.242  0.00  0.00    +0.046 C 
BRANCH  15  18
ATOM     18  N   UNL     1      -0.685  -8.552   0.711  0.00  0.00    -0.256 N 
ATOM     19  C   UNL     1      -0.908  -9.660   1.451  0.00  0.00    +0.129 A 
ATOM     20  C   UNL     1      -0.648 -10.735   0.671  0.00  0.00    +0.078 A 
ATOM     21  C   UNL     1      -0.254 -10.268  -0.588  0.00  0.00    +0.154 A 
ATOM     22  N   UNL     1      -0.281  -8.960  -0.567  0.00  0.00    -0.177 NA
ATOM     23 CL   UNL     1      -0.780 -12.399   1.148  0.00  0.00    -0.080 Cl
ENDBRANCH  15  18
ENDBRANCH   2  15
TORSDOF 5
