REMARK  Name = ZINC21023542
REMARK  9 active torsions:
REMARK  status: ('A' for Active; 'I' for Inactive)
REMARK    1  A    between atoms: C_1  and  C_2
REMARK    2  A    between atoms: C_2  and  N_3
REMARK    3  A    between atoms: N_3  and  C_4
REMARK    4  A    between atoms: N_3  and  S_6
REMARK    5  A    between atoms: C_4  and  C_5
REMARK    6  A    between atoms: S_6  and  C_9
REMARK    7  A    between atoms: C_16  and  C_22
REMARK    8  A    between atoms: C_19  and  C_21
REMARK    9  A    between atoms: N_24  and  C_25
REMARK                            x       y       z     vdW  Elec       q    Type
REMARK                         _______ _______ _______ _____ _____    ______ ____
ROOT
ATOM      1  C   UNL     1       0.249   3.002   4.411  0.00  0.00    +0.106 A 
ATOM      2  C   UNL     1      -0.280   4.236   4.081  0.00  0.00    +0.030 A 
ATOM      3  C   UNL     1      -0.945   4.982   5.030  0.00  0.00    +0.026 A 
ATOM      4  C   UNL     1      -1.081   4.502   6.334  0.00  0.00    +0.040 A 
ATOM      5  C   UNL     1      -0.543   3.266   6.656  0.00  0.00    -0.022 A 
ATOM      6  C   UNL     1       0.118   2.520   5.700  0.00  0.00    +0.034 A 
ATOM      7  C   UNL     1      -0.825   2.984   8.114  0.00  0.00    +0.069 C 
ATOM      8  C   UNL     1      -1.600   4.218   8.605  0.00  0.00    +0.171 C 
ATOM      9  N   UNL     1      -1.706   5.094   7.436  0.00  0.00    -0.259 N 
ATOM     10  C   UNL     1      -2.318   6.295   7.424  0.00  0.00    +0.217 C 
ATOM     11  O   UNL     1      -2.272   6.989   6.430  0.00  0.00    -0.276 OA
ATOM     12  C   UNL     1      -3.058   6.776   8.645  0.00  0.00    +0.109 C 
ENDROOT
BRANCH   8  13
ATOM     13  C   UNL     1      -0.840   4.907   9.709  0.00  0.00    +0.234 C 
ATOM     14  O   UNL     1      -0.179   5.895   9.464  0.00  0.00    -0.274 OA
ATOM     15  N   UNL     1      -0.894   4.427  10.967  0.00  0.00    -0.311 N 
ATOM     16  H   UNL     1      -1.493   3.532  11.188  0.00  0.00    +0.149 HD
BRANCH  15  17
ATOM     17  C   UNL     1      -0.155   5.098  12.039  0.00  0.00    +0.073 C 
ATOM     18  C   UNL     1       1.304   4.598  12.028  0.00  0.00    +0.022 C 
ATOM     19  C   UNL     1       2.161   5.611  12.741  0.00  0.00    +0.002 C 
ATOM     20  C   UNL     1       2.358   5.269  14.230  0.00  0.00    +0.000 C 
ATOM     21  C   UNL     1       1.066   4.769  14.905  0.00  0.00    +0.000 C 
ATOM     22  C   UNL     1      -0.144   5.560  14.488  0.00  0.00    +0.002 C 
ATOM     23  C   UNL     1      -0.821   4.834  13.306  0.00  0.00    +0.022 C 
ENDBRANCH  15  17
ENDBRANCH   8  13
BRANCH   1  24
ATOM     24  S   UNL     1       1.094   2.048   3.193  0.00  0.00    +0.061 S 
ATOM     25  O   UNL     1       1.972   1.180   3.895  0.00  0.00    -0.153 OA
ATOM     26  O   UNL     1       1.553   2.963   2.208  0.00  0.00    -0.153 OA
BRANCH  24  27
ATOM     27  N   UNL     1      -0.034   1.086   2.456  0.00  0.00    -0.177 NA
BRANCH  27  29
ATOM     28  C   UNL     1      -0.035   1.073   0.010  0.00  0.00    +0.022 C 
ATOM     29  C   UNL     1      -0.747   1.569   1.270  0.00  0.00    +0.106 C 
ENDBRANCH  27  29
BRANCH  27  30
ATOM     30  C   UNL     1      -0.320  -0.249   2.989  0.00  0.00    +0.106 C 
ATOM     31  C   UNL     1       0.520  -1.287   2.242  0.00  0.00    +0.022 C 
ENDBRANCH  27  30
ENDBRANCH  24  27
ENDBRANCH   1  24
TORSDOF 6
