REMARK  Name = ZINC20988527
REMARK  7 active torsions:
REMARK  status: ('A' for Active; 'I' for Inactive)
REMARK    1  A    between atoms: C_4  and  C_7
REMARK    2  A    between atoms: C_10  and  C_12
REMARK    3  A    between atoms: C_12  and  C_14
REMARK    4  A    between atoms: C_12  and  N_21
REMARK    5  A    between atoms: N_21  and  C_22
REMARK    6  A    between atoms: C_22  and  C_23
REMARK    7  A    between atoms: C_23  and  C_24
REMARK                            x       y       z     vdW  Elec       q    Type
REMARK                         _______ _______ _______ _____ _____    ______ ____
ROOT
ATOM      1  C   UNL     1       1.620   3.184   0.004  0.00  0.00    +0.049 C 
ENDROOT
BRANCH   1   2
ATOM      2  C   UNL     1       1.390   3.776  -1.363  0.00  0.00    -0.052 A 
ATOM      3  C   UNL     1       0.119   4.168  -1.741  0.00  0.00    +0.005 A 
ATOM      4  C   UNL     1      -0.092   4.716  -2.993  0.00  0.00    +0.038 A 
ATOM      5  C   UNL     1       0.968   4.860  -3.872  0.00  0.00    +0.123 A 
ATOM      6  C   UNL     1       2.239   4.462  -3.494  0.00  0.00    +0.038 A 
ATOM      7  C   UNL     1       2.449   3.920  -2.240  0.00  0.00    +0.005 A 
ATOM      8  F   UNL     1       0.762   5.390  -5.098  0.00  0.00    -0.205 F 
ENDBRANCH   1   2
BRANCH   1  12
ATOM      9  C   UNL     1       1.247  -0.420  -0.012  0.00  0.00    +0.248 A 
ATOM     10  N   UNL     1       0.002  -0.004   0.002  0.00  0.00    -0.107 NA
ATOM     11  N   UNL     1      -0.015   1.282   0.009  0.00  0.00    -0.113 NA
ATOM     12  C   UNL     1       1.207   1.735  -0.000  0.00  0.00    +0.208 A 
ATOM     13  O   UNL     1       2.034   0.675  -0.014  0.00  0.00    -0.422 OA
BRANCH   9  17
ATOM     14  C   UNL     1       2.553  -4.462  -0.047  0.00  0.00    +0.000 A 
ATOM     15  C   UNL     1       1.199  -4.175  -0.032  0.00  0.00    +0.001 A 
ATOM     16  C   UNL     1       0.768  -2.865  -0.020  0.00  0.00    +0.013 A 
ATOM     17  C   UNL     1       1.701  -1.827  -0.024  0.00  0.00    +0.038 A 
ATOM     18  C   UNL     1       3.065  -2.122  -0.045  0.00  0.00    +0.013 A 
ATOM     19  C   UNL     1       3.483  -3.437  -0.051  0.00  0.00    +0.001 A 
ENDBRANCH   9  17
ENDBRANCH   1  12
BRANCH   1  20
ATOM     20  N   UNL     1       0.822   3.918   0.995  0.00  0.00    +0.390 N 
ATOM     21  H   UNL     1      -0.131   4.229   0.541  0.00  0.00    -0.084 HD
ATOM     22  H   UNL     1       0.621   3.267   1.859  0.00  0.00    -0.084 HD
BRANCH  20  23
ATOM     23  C   UNL     1       1.534   5.115   1.462  0.00  0.00    -0.077 C 
BRANCH  23  24
ATOM     24  C   UNL     1       0.673   5.851   2.491  0.00  0.00    +0.011 C 
BRANCH  24  25
ATOM     25  C   UNL     1       1.403   7.079   2.971  0.00  0.00    -0.075 C 
ATOM     26  C   UNL     1       1.143   8.206   2.388  0.00  0.00    -0.028 C 
ATOM     27  C   UNL     1       1.796   9.508   2.748  0.00  0.00    +0.027 C 
ATOM     28  C   UNL     1       2.455   9.404   4.125  0.00  0.00    +0.004 C 
ATOM     29  C   UNL     1       3.314   8.134   4.157  0.00  0.00    +0.005 C 
ATOM     30  C   UNL     1       2.381   6.921   4.098  0.00  0.00    +0.030 C 
ENDBRANCH  24  25
ENDBRANCH  23  24
ENDBRANCH  20  23
ENDBRANCH   1  20
TORSDOF 7
