REMARK  Name = ZINC01366174
REMARK  7 active torsions:
REMARK  status: ('A' for Active; 'I' for Inactive)
REMARK    1  A    between atoms: C_1  and  C_2
REMARK    2  A    between atoms: C_2  and  C_3
REMARK    3  A    between atoms: N_11  and  C_12
REMARK    4  A    between atoms: C_14  and  S_17
REMARK    5  A    between atoms: S_17  and  C_18
REMARK    6  A    between atoms: C_18  and  C_19
REMARK    7  A    between atoms: N_21  and  C_22
REMARK                            x       y       z     vdW  Elec       q    Type
REMARK                         _______ _______ _______ _____ _____    ______ ____
ROOT
ATOM      1  C   UNL     1     -10.181  -3.294   0.033  0.00  0.00    -0.047 A 
ATOM      2  C   UNL     1     -11.157  -2.309   0.044  0.00  0.00    +0.005 A 
ATOM      3  C   UNL     1     -10.807  -0.976   0.049  0.00  0.00    +0.027 A 
ATOM      4  C   UNL     1      -9.466  -0.607   0.044  0.00  0.00    +0.053 A 
ATOM      5  C   UNL     1      -8.479  -1.605   0.034  0.00  0.00    +0.029 A 
ATOM      6  C   UNL     1      -8.847  -2.949   0.028  0.00  0.00    +0.016 A 
ATOM      7  C   UNL     1      -7.183  -0.907   0.031  0.00  0.00    +0.138 A 
ATOM      8  C   UNL     1      -7.475   0.473   0.040  0.00  0.00    +0.165 A 
ATOM      9  N   UNL     1      -8.839   0.628   0.047  0.00  0.00    -0.327 N 
ATOM     10  C   UNL     1      -9.534   1.918   0.058  0.00  0.00    +0.151 C 
ATOM     11  N   UNL     1      -6.462   1.333   0.045  0.00  0.00    -0.201 NA
ATOM     12  C   UNL     1      -5.218   0.872   0.032  0.00  0.00    +0.212 A 
ATOM     13  N   UNL     1      -4.968  -0.434   0.023  0.00  0.00    -0.122 NA
ATOM     14  N   UNL     1      -5.919  -1.304   0.023  0.00  0.00    -0.143 NA
ENDROOT
BRANCH   1  16
ATOM     15  C   UNL     1     -10.709  -5.246   1.468  0.00  0.00    +0.009 C 
ATOM     16  C   UNL     1     -10.581  -4.747   0.028  0.00  0.00    +0.032 C 
ENDBRANCH   1  16
BRANCH  12  17
ATOM     17  S   UNL     1      -3.874   2.010   0.031  0.00  0.00    -0.075 S 
BRANCH  17  18
ATOM     18  C   UNL     1      -2.482   0.853   0.018  0.00  0.00    +0.173 C 
BRANCH  18  19
ATOM     19  C   UNL     1      -1.187   1.624   0.017  0.00  0.00    +0.224 C 
ATOM     20  O   UNL     1      -1.204   2.837   0.023  0.00  0.00    -0.275 OA
ATOM     21  N   UNL     1      -0.011   0.966   0.007  0.00  0.00    -0.312 N 
ATOM     22  H   UNL     1       0.002  -0.004   0.002  0.00  0.00    +0.149 HD
BRANCH  21  23
ATOM     23  C   UNL     1       1.248   1.716  -0.001  0.00  0.00    +0.073 C 
ATOM     24  C   UNL     1       2.347   1.240  -0.952  0.00  0.00    +0.024 C 
ATOM     25  C   UNL     1       2.490   1.016   0.555  0.00  0.00    +0.024 C 
ENDBRANCH  21  23
ENDBRANCH  18  19
ENDBRANCH  17  18
ENDBRANCH  12  17
TORSDOF 5
