REMARK  Name = ZINC45873426
REMARK  12 active torsions:
REMARK  status: ('A' for Active; 'I' for Inactive)
REMARK    1  A    between atoms: C_1  and  C_2
REMARK    2  A    between atoms: C_8  and  N_10
REMARK    3  A    between atoms: C_11  and  C_13
REMARK    4  A    between atoms: C_13  and  N_14
REMARK    5  A    between atoms: N_14  and  C_15
REMARK    6  A    between atoms: N_14  and  C_19
REMARK    7  A    between atoms: C_15  and  C_16
REMARK    8  A    between atoms: C_16  and  O_17
REMARK    9  A    between atoms: O_17  and  C_18
REMARK   10  A    between atoms: C_20  and  N_35
REMARK   11  A    between atoms: N_21  and  C_28
REMARK   12  A    between atoms: C_28  and  C_29
REMARK                            x       y       z     vdW  Elec       q    Type
REMARK                         _______ _______ _______ _____ _____    ______ ____
ROOT
ATOM      1  C   UNL     1       4.557   1.833   4.684  0.00  0.00    +0.134 A 
ATOM      2  C   UNL     1       4.882   3.071   4.199  0.00  0.00    +0.127 A 
ATOM      3  N   UNL     1       4.431   4.193   4.857  0.00  0.00    -0.276 N 
ATOM      4  C   UNL     1       3.678   4.075   5.965  0.00  0.00    +0.331 A 
ATOM      5  O   UNL     1       3.288   5.077   6.533  0.00  0.00    -0.246 OA
ATOM      6  N   UNL     1       3.349   2.866   6.455  0.00  0.00    -0.273 N 
ATOM      7  H   UNL     1       2.804   2.804   7.256  0.00  0.00    +0.173 HD
ATOM      8  C   UNL     1       3.763   1.741   5.841  0.00  0.00    +0.277 A 
ATOM      9  O   UNL     1       3.456   0.649   6.289  0.00  0.00    -0.266 OA
ENDROOT
BRANCH   2  10
ATOM     10  N   UNL     1       5.653   3.193   3.066  0.00  0.00    -0.343 N 
ATOM     11  H   UNL     1       5.915   2.401   2.570  0.00  0.00    +0.144 HD
ATOM     12  H   UNL     1       5.934   4.071   2.762  0.00  0.00    +0.144 HD
ENDBRANCH   2  10
BRANCH   1  13
ATOM     13  N   UNL     1       5.008   0.665   4.027  0.00  0.00    -0.312 N 
BRANCH  13  14
ATOM     14  C   UNL     1       4.536   0.356   2.675  0.00  0.00    +0.201 C 
BRANCH  14  16
ATOM     15  N   UNL     1       2.755  -1.004   1.628  0.00  0.00    -0.311 N 
ATOM     16  C   UNL     1       3.358  -0.581   2.756  0.00  0.00    +0.231 C 
ATOM     17  O   UNL     1       2.953  -0.954   3.837  0.00  0.00    -0.274 OA
ATOM     18  H   UNL     1       3.079  -0.706   0.763  0.00  0.00    +0.149 HD
BRANCH  15  25
ATOM     19  C   UNL     1       0.246  -0.317   0.353  0.00  0.00    +0.009 C 
ATOM     20  C   UNL     1       0.747  -1.759   0.452  0.00  0.00    +0.006 C 
ATOM     21  C   UNL     1      -0.449  -2.710   0.534  0.00  0.00    +0.005 C 
ATOM     22  C   UNL     1       0.053  -4.152   0.633  0.00  0.00    +0.000 C 
ATOM     23  C   UNL     1       0.915  -4.308   1.887  0.00  0.00    +0.002 C 
ATOM     24  C   UNL     1       2.111  -3.357   1.805  0.00  0.00    +0.022 C 
ATOM     25  C   UNL     1       1.610  -1.915   1.706  0.00  0.00    +0.076 C 
ENDBRANCH  15  25
ENDBRANCH  14  16
ENDBRANCH  13  14
BRANCH  13  26
ATOM     26  C   UNL     1       5.947  -0.237   4.699  0.00  0.00    +0.134 C 
BRANCH  26  27
ATOM     27  C   UNL     1       7.376   0.107   4.276  0.00  0.00    +0.178 C 
BRANCH  27  28
ATOM     28  O   UNL     1       7.709   1.416   4.743  0.00  0.00    -0.381 OA
ATOM     29  C   UNL     1       9.030   1.837   4.400  0.00  0.00    +0.194 C 
ENDBRANCH  27  28
ENDBRANCH  26  27
ENDBRANCH  13  26
ENDBRANCH   1  13
BRANCH   3  30
ATOM     30  C   UNL     1       4.773   5.523   4.347  0.00  0.00    +0.163 C 
BRANCH  30  31
ATOM     31  C   UNL     1       3.716   5.975   3.373  0.00  0.00    -0.028 A 
ATOM     32  C   UNL     1       3.841   5.676   2.029  0.00  0.00    +0.005 A 
ATOM     33  C   UNL     1       2.871   6.091   1.136  0.00  0.00    +0.000 A 
ATOM     34  C   UNL     1       1.776   6.804   1.586  0.00  0.00    +0.000 A 
ATOM     35  C   UNL     1       1.651   7.103   2.930  0.00  0.00    +0.000 A 
ATOM     36  C   UNL     1       2.619   6.684   3.824  0.00  0.00    +0.005 A 
ENDBRANCH  30  31
ENDBRANCH   3  30
TORSDOF 10
