REMARK  Name = ZINC25782396
REMARK  7 active torsions:
REMARK  status: ('A' for Active; 'I' for Inactive)
REMARK    1  A    between atoms: C_1  and  C_2
REMARK    2  A    between atoms: N_8  and  C_9
REMARK    3  A    between atoms: C_9  and  C_10
REMARK    4  A    between atoms: C_11  and  C_21
REMARK    5  A    between atoms: N_23  and  N_24
REMARK    6  A    between atoms: C_25  and  C_26
REMARK    7  A    between atoms: C_25  and  C_27
REMARK                            x       y       z     vdW  Elec       q    Type
REMARK                         _______ _______ _______ _____ _____    ______ ____
ROOT
ATOM      1  C   UNL     1       1.381   2.119  -1.684  0.00  0.00    +0.063 A 
ATOM      2  C   UNL     1       0.396   2.703  -0.939  0.00  0.00    +0.170 A 
ATOM      3  N   UNL     1       0.809   3.929  -0.573  0.00  0.00    -0.124 NA
ATOM      4  N   UNL     1       1.991   4.142  -1.035  0.00  0.00    -0.058 NA
ATOM      5  N   UNL     1       2.395   3.010  -1.757  0.00  0.00    -0.194 N 
ATOM      6  C   UNL     1       3.613   2.835  -2.423  0.00  0.00    +0.240 A 
ATOM      7  C   UNL     1       4.700   3.816  -2.496  0.00  0.00    +0.206 A 
ATOM      8  N   UNL     1       5.672   3.300  -3.196  0.00  0.00    -0.032 NA
ATOM      9  O   UNL     1       5.271   2.005  -3.607  0.00  0.00    -0.239 OA
ATOM     10  N   UNL     1       3.972   1.775  -3.090  0.00  0.00    -0.027 NA
ATOM     11  N   UNL     1       4.697   5.078  -1.913  0.00  0.00    -0.337 N 
ATOM     12  H   UNL     1       5.568   5.739  -2.029  0.00  0.00    +0.144 HD
ATOM     13  H   UNL     1       3.823   5.416  -1.337  0.00  0.00    +0.144 HD
ENDROOT
BRANCH   2  14
ATOM     14  C   UNL     1      -0.904   2.094  -0.599  0.00  0.00    +0.285 C 
ATOM     15  O   UNL     1      -1.172   0.974  -0.991  0.00  0.00    -0.267 OA
ATOM     16  N   UNL     1      -1.796   2.780   0.143  0.00  0.00    -0.201 N 
ATOM     17  H   UNL     1      -1.553   3.792   0.498  0.00  0.00    +0.178 HD
BRANCH  16  18
ATOM     18  N   UNL     1      -3.032   2.203   0.461  0.00  0.00    -0.184 NA
ATOM     19  C   UNL     1      -3.938   2.906   1.069  0.00  0.00    +0.063 C 
ATOM     20  C   UNL     1      -5.204   2.246   1.554  0.00  0.00    +0.068 C 
BRANCH  19  21
ATOM     21  C   UNL     1      -3.730   4.349   1.287  0.00  0.00    -0.002 A 
ATOM     22  C   UNL     1      -4.164   4.951   2.470  0.00  0.00    +0.011 A 
ATOM     23  C   UNL     1      -3.961   6.300   2.669  0.00  0.00    +0.020 A 
ATOM     24  C   UNL     1      -3.338   7.061   1.694  0.00  0.00    +0.041 A 
ATOM     25  C   UNL     1      -2.910   6.472   0.516  0.00  0.00    +0.020 A 
ATOM     26  C   UNL     1      -3.102   5.122   0.307  0.00  0.00    +0.011 A 
ATOM     27 CL   UNL     1      -3.092   8.760   1.950  0.00  0.00    -0.084 Cl
ENDBRANCH  19  21
ENDBRANCH  16  18
ENDBRANCH   2  14
BRANCH   1  28
ATOM     28  C   UNL     1       1.343   0.747  -2.306  0.00  0.00    -0.019 C 
BRANCH  28  35
ATOM     29  C   UNL     1       0.372  -1.894  -2.336  0.00  0.00    -0.013 C 
ATOM     30  C   UNL     1       1.810  -1.595  -1.908  0.00  0.00    -0.071 C 
ATOM     31  C   UNL     1       2.245  -2.603  -0.842  0.00  0.00    -0.016 C 
ATOM     32  C   UNL     1       3.677  -2.288  -0.402  0.00  0.00    -0.003 C 
ATOM     33  C   UNL     1       3.737  -0.850   0.122  0.00  0.00    -0.019 C 
ATOM     34  C   UNL     1       3.259   0.107  -0.972  0.00  0.00    -0.078 C 
ATOM     35  N   UNL     1       1.884  -0.236  -1.357  0.00  0.00    +0.385 N 
ATOM     36  H   UNL     1       1.265  -0.208  -0.449  0.00  0.00    -0.081 HD
ENDBRANCH  28  35
ENDBRANCH   1  28
TORSDOF 5
