REMARK  Name = ZINC35050902
REMARK  12 active torsions:
REMARK  status: ('A' for Active; 'I' for Inactive)
REMARK    1  A    between atoms: C_1  and  C_2
REMARK    2  A    between atoms: C_4  and  O_34
REMARK    3  A    between atoms: C_6  and  O_30
REMARK    4  A    between atoms: C_9  and  C_10
REMARK    5  A    between atoms: C_9  and  C_11
REMARK    6  A    between atoms: C_14  and  O_29
REMARK    7  A    between atoms: C_18  and  C_28
REMARK    8  A    between atoms: C_21  and  O_27
REMARK    9  A    between atoms: C_23  and  C_25
REMARK   10  A    between atoms: C_25  and  O_26
REMARK   11  A    between atoms: O_30  and  C_31
REMARK   12  A    between atoms: C_31  and  C_33
REMARK                            x       y       z     vdW  Elec       q    Type
REMARK                         _______ _______ _______ _____ _____    ______ ____
ROOT
ATOM      1  C   UNL     1       0.048   1.716   0.512  0.00  0.00    +0.013 C 
ATOM      2  C   UNL     1       0.132   0.205   0.311  0.00  0.00    +0.051 C 
ATOM      3  C   UNL     1      -1.267  -0.350   0.034  0.00  0.00    +0.165 C 
ATOM      4  C   UNL     1      -2.164  -0.009   1.219  0.00  0.00    +0.149 C 
ATOM      5  C   UNL     1      -1.527   0.040   2.601  0.00  0.00    +0.055 C 
ATOM      6  C   UNL     1      -2.502  -1.075   2.258  0.00  0.00    +0.015 C 
ATOM      7  C   UNL     1      -2.004  -2.499   2.042  0.00  0.00    +0.015 C 
ATOM      8  C   UNL     1      -3.907  -0.990   2.885  0.00  0.00    +0.015 C 
ATOM      9  C   UNL     1      -0.046  -0.206   2.799  0.00  0.00    +0.052 C 
ATOM     10  C   UNL     1       0.740  -0.482   1.537  0.00  0.00    +0.087 C 
ATOM     11  C   UNL     1       2.169   0.021   1.700  0.00  0.00    +0.084 C 
ATOM     12  C   UNL     1       3.041  -0.389   0.540  0.00  0.00    -0.011 C 
ATOM     13  C   UNL     1       4.249  -0.719   0.990  0.00  0.00    -0.009 C 
ATOM     14  C   UNL     1       4.333  -0.599   2.446  0.00  0.00    +0.191 C 
ATOM     15  O   UNL     1       5.335  -0.606   3.127  0.00  0.00    -0.289 OA
ATOM     16  C   UNL     1       2.886  -0.506   2.945  0.00  0.00    +0.140 C 
ATOM     17  C   UNL     1       2.457  -1.932   3.274  0.00  0.00    +0.076 C 
ATOM     18  C   UNL     1       1.187  -1.985   4.053  0.00  0.00    -0.045 C 
ATOM     19  C   UNL     1       0.141  -1.256   3.853  0.00  0.00    -0.019 C 
ATOM     20  C   UNL     1       5.386  -1.161   0.103  0.00  0.00    +0.047 C 
ENDROOT
BRANCH  16  21
ATOM     21  O   UNL     1       2.775   0.374   4.073  0.00  0.00    -0.380 OA
ATOM     22  H   UNL     1       3.224   0.054   4.867  0.00  0.00    +0.211 HD
ENDBRANCH  16  21
BRANCH  10  23
ATOM     23  O   UNL     1       0.754  -1.887   1.267  0.00  0.00    -0.387 OA
ATOM     24  H   UNL     1       1.273  -2.133   0.489  0.00  0.00    +0.210 HD
ENDBRANCH  10  23
BRANCH   3  25
ATOM     25  O   UNL     1      -1.788   0.271  -1.151  0.00  0.00    -0.387 OA
ATOM     26  H   UNL     1      -1.253   0.119  -1.942  0.00  0.00    +0.210 HD
ENDBRANCH   3  25
BRANCH  18  27
ATOM     27  C   UNL     1       1.112  -2.986   5.185  0.00  0.00    +0.186 C 
BRANCH  27  28
ATOM     28  O   UNL     1      -0.167  -2.897   5.815  0.00  0.00    -0.391 OA
ATOM     29  H   UNL     1      -0.287  -3.512   6.552  0.00  0.00    +0.210 HD
ENDBRANCH  27  28
ENDBRANCH  18  27
BRANCH   4  30
ATOM     30  O   UNL     1      -3.186   0.960   0.943  0.00  0.00    -0.455 OA
BRANCH  30  31
ATOM     31  C   UNL     1      -4.147   0.602   0.077  0.00  0.00    +0.305 C 
ATOM     32  O   UNL     1      -4.173  -0.522  -0.366  0.00  0.00    -0.251 OA
ATOM     33  C   UNL     1      -5.193   1.601  -0.343  0.00  0.00    +0.136 C 
ENDBRANCH  30  31
ENDBRANCH   4  30
TORSDOF 7
