REMARK  Name = ZINC04875875
REMARK  9 active torsions:
REMARK  status: ('A' for Active; 'I' for Inactive)
REMARK    1  A    between atoms: C_1  and  C_2
REMARK    2  A    between atoms: C_5  and  C_8
REMARK    3  A    between atoms: C_10  and  C_23
REMARK    4  A    between atoms: C_11  and  C_22
REMARK    5  A    between atoms: C_16  and  C_18
REMARK    6  A    between atoms: C_18  and  O_20
REMARK    7  A    between atoms: O_20  and  C_21
REMARK    8  A    between atoms: C_23  and  O_25
REMARK    9  A    between atoms: O_25  and  C_26
REMARK                            x       y       z     vdW  Elec       q    Type
REMARK                         _______ _______ _______ _____ _____    ______ ____
ROOT
ATOM      1  C   UNL     1       0.155  -4.334  -0.048  0.00  0.00    +0.179 C 
ATOM      2  C   UNL     1      -1.086  -4.938   0.553  0.00  0.00    +0.082 C 
ATOM      3  C   UNL     1      -1.124  -5.455   1.791  0.00  0.00    +0.020 C 
ATOM      4  N   UNL     1      -0.021  -5.483   2.607  0.00  0.00    -0.287 N 
ATOM      5  C   UNL     1       1.209  -5.202   2.029  0.00  0.00    +0.219 A 
ATOM      6  N   UNL     1       1.309  -4.667   0.782  0.00  0.00    -0.220 N 
ATOM      7  N   UNL     1       2.670  -4.524   0.515  0.00  0.00    -0.141 NA
ATOM      8  C   UNL     1       3.313  -4.961   1.583  0.00  0.00    +0.260 A 
ATOM      9  N   UNL     1       2.412  -5.369   2.497  0.00  0.00    -0.187 NA
ATOM     10  C   UNL     1      -2.422  -6.024   2.302  0.00  0.00    +0.061 C 
ATOM     11  H   UNL     1      -0.099  -5.692   3.551  0.00  0.00    +0.155 HD
ENDROOT
BRANCH   1  16
ATOM     12  C   UNL     1      -0.436   1.409  -0.316  0.00  0.00    +0.044 C 
ATOM     13  C   UNL     1      -0.282  -0.089  -0.246  0.00  0.00    -0.050 A 
ATOM     14  C   UNL     1      -0.081  -0.818  -1.403  0.00  0.00    +0.004 A 
ATOM     15  C   UNL     1       0.060  -2.191  -1.339  0.00  0.00    +0.006 A 
ATOM     16  C   UNL     1       0.002  -2.836  -0.118  0.00  0.00    -0.018 A 
ATOM     17  C   UNL     1      -0.198  -2.107   1.040  0.00  0.00    +0.006 A 
ATOM     18  C   UNL     1      -0.336  -0.733   0.976  0.00  0.00    +0.004 A 
ENDBRANCH   1  16
BRANCH   8  19
ATOM     19  C   UNL     1       4.780  -4.996   1.747  0.00  0.00    +0.378 C 
ATOM     20  O   UNL     1       5.501  -4.600   0.853  0.00  0.00    -0.241 OA
BRANCH  19  21
ATOM     21  O   UNL     1       5.319  -5.466   2.889  0.00  0.00    -0.462 OA
ATOM     22  C   UNL     1       6.745  -5.471   2.979  0.00  0.00    +0.280 C 
ENDBRANCH  19  21
ENDBRANCH   8  19
BRANCH   2  23
ATOM     23  C   UNL     1      -2.267  -4.962  -0.223  0.00  0.00    +0.339 C 
ATOM     24  O   UNL     1      -2.425  -5.828  -1.062  0.00  0.00    -0.245 OA
BRANCH  23  25
ATOM     25  O   UNL     1      -3.218  -4.024  -0.033  0.00  0.00    -0.458 OA
BRANCH  25  26
ATOM     26  C   UNL     1      -4.386  -4.108  -0.852  0.00  0.00    +0.177 C 
ATOM     27  C   UNL     1      -4.170  -3.298  -2.132  0.00  0.00    +0.044 C 
ATOM     28  C   UNL     1      -5.420  -3.389  -3.009  0.00  0.00    +0.004 C 
ATOM     29  C   UNL     1      -6.622  -2.827  -2.246  0.00  0.00    +0.000 C 
ATOM     30  C   UNL     1      -6.837  -3.638  -0.966  0.00  0.00    +0.004 C 
ATOM     31  C   UNL     1      -5.587  -3.547  -0.088  0.00  0.00    +0.044 C 
ENDBRANCH  25  26
ENDBRANCH  23  25
ENDBRANCH   2  23
TORSDOF 6
