REMARK  Name = ZINC11816011
REMARK  6 active torsions:
REMARK  status: ('A' for Active; 'I' for Inactive)
REMARK    1  A    between atoms: C_2  and  C_12
REMARK    2  A    between atoms: C_6  and  C_7
REMARK    3  A    between atoms: C_12  and  N_13
REMARK    4  A    between atoms: C_14  and  C_16
REMARK    5  A    between atoms: C_16  and  C_17
REMARK    6  A    between atoms: C_24  and  N_51
REMARK                            x       y       z     vdW  Elec       q    Type
REMARK                         _______ _______ _______ _____ _____    ______ ____
ROOT
ATOM      1  N   UNL     1      -2.617   0.400  -4.042  0.00  0.00    -0.311 N 
ATOM      2  C   UNL     1      -3.586  -0.523  -3.881  0.00  0.00    +0.212 C 
ATOM      3  O   UNL     1      -4.673  -0.355  -4.391  0.00  0.00    -0.276 OA
ATOM      4  H   UNL     1      -1.747   0.267  -3.634  0.00  0.00    +0.149 HD
ENDROOT
BRANCH   1   5
ATOM      5  C   UNL     1      -2.877   1.605  -4.833  0.00  0.00    +0.139 C 
BRANCH   5   7
ATOM      6  C   UNL     1      -0.699   2.296  -5.854  0.00  0.00    +0.017 A 
ATOM      7  C   UNL     1      -1.641   2.467  -4.857  0.00  0.00    -0.027 A 
ATOM      8  C   UNL     1      -1.450   3.429  -3.883  0.00  0.00    +0.043 A 
ATOM      9  C   UNL     1      -0.315   4.221  -3.905  0.00  0.00    +0.124 A 
ATOM     10  C   UNL     1       0.628   4.049  -4.904  0.00  0.00    +0.050 A 
ATOM     11  C   UNL     1       0.435   3.087  -5.878  0.00  0.00    +0.058 A 
ATOM     12  F   UNL     1      -0.127   5.161  -2.953  0.00  0.00    -0.205 F 
BRANCH  11  13
ATOM     13  C   UNL     1       1.462   2.899  -6.965  0.00  0.00    +0.418 C 
ATOM     14  F   UNL     1       1.148   3.724  -8.050  0.00  0.00    -0.166 F 
ATOM     15  F   UNL     1       2.728   3.235  -6.474  0.00  0.00    -0.166 F 
ATOM     16  F   UNL     1       1.462   1.563  -7.380  0.00  0.00    -0.166 F 
ENDBRANCH  11  13
ENDBRANCH   5   7
ENDBRANCH   1   5
BRANCH   2  17
ATOM     17  C   UNL     1      -3.318  -1.762  -3.067  0.00  0.00    +0.089 C 
BRANCH  17  18
ATOM     18  C   UNL     1      -4.605  -2.579  -2.943  0.00  0.00    +0.028 C 
ATOM     19  C   UNL     1      -5.035  -3.042  -4.307  0.00  0.00    +0.200 C 
ATOM     20  O   UNL     1      -4.192  -3.464  -5.069  0.00  0.00    -0.278 OA
ATOM     21  N   UNL     1      -6.308  -3.009  -4.714  0.00  0.00    -0.318 N 
ATOM     22  C   UNL     1      -7.393  -2.486  -3.888  0.00  0.00    +0.085 C 
ATOM     23  C   UNL     1      -6.955  -2.432  -2.422  0.00  0.00    -0.058 C 
ATOM     24  H   UNL     1      -6.521  -3.346  -5.598  0.00  0.00    +0.149 HD
ATOM     25  N   UNL     1      -5.659  -1.729  -2.358  0.00  0.00    +0.390 N 
ATOM     26  H   UNL     1      -5.723  -0.856  -2.895  0.00  0.00    -0.080 HD
BRANCH  25  27
ATOM     27  C   UNL     1      -5.325  -1.405  -0.952  0.00  0.00    -0.067 C 
ATOM     28  C   UNL     1      -5.360  -2.673  -0.074  0.00  0.00    -0.015 C 
ATOM     29  C   UNL     1      -5.950  -2.186   1.273  0.00  0.00    -0.002 C 
ATOM     30  C   UNL     1      -7.023  -1.163   0.826  0.00  0.00    -0.002 C 
ATOM     31  C   UNL     1      -6.383  -0.445  -0.380  0.00  0.00    -0.015 C 
ENDBRANCH  25  27
ENDBRANCH  17  18
ENDBRANCH   2  17
TORSDOF 6
