REMARK  Name = ZINC05487298
REMARK  8 active torsions:
REMARK  status: ('A' for Active; 'I' for Inactive)
REMARK    1  A    between atoms: C_1  and  C_2
REMARK    2  A    between atoms: C_2  and  C_4
REMARK    3  A    between atoms: C_2  and  C_5
REMARK    4  A    between atoms: C_5  and  C_7
REMARK    5  A    between atoms: C_5  and  N_13
REMARK    6  A    between atoms: N_9  and  C_10
REMARK    7  A    between atoms: C_10  and  C_11
REMARK    8  A    between atoms: C_10  and  C_12
REMARK                            x       y       z     vdW  Elec       q    Type
REMARK                         _______ _______ _______ _____ _____    ______ ____
ROOT
ATOM      1  N   UNL     1       1.322   1.996   2.767  0.00  0.00    -0.287 N 
ATOM      2  C   UNL     1       1.376   3.303   3.093  0.00  0.00    +0.309 C 
ATOM      3  O   UNL     1       0.348   3.929   3.263  0.00  0.00    -0.252 OA
ATOM      4  N   UNL     1       2.569   3.915   3.229  0.00  0.00    -0.224 N 
ATOM      5  C   UNL     1       2.765   5.326   3.578  0.00  0.00    +0.140 C 
ATOM      6  C   UNL     1       4.292   5.508   3.602  0.00  0.00    +0.144 C 
ATOM      7  N   UNL     1       4.830   4.183   3.264  0.00  0.00    -0.310 N 
ATOM      8  C   UNL     1       3.806   3.309   3.067  0.00  0.00    +0.207 A 
ATOM      9  N   UNL     1       4.300   2.124   2.758  0.00  0.00    -0.214 NA
ATOM     10  C   UNL     1       5.655   2.177   2.753  0.00  0.00    +0.091 A 
ATOM     11  C   UNL     1       6.018   3.494   3.076  0.00  0.00    +0.070 A 
ATOM     12  C   UNL     1       7.356   3.849   3.147  0.00  0.00    +0.028 A 
ATOM     13  C   UNL     1       8.330   2.903   2.897  0.00  0.00    +0.002 A 
ATOM     14  C   UNL     1       7.978   1.600   2.578  0.00  0.00    +0.002 A 
ATOM     15  C   UNL     1       6.654   1.231   2.503  0.00  0.00    +0.030 A 
ATOM     16  H   UNL     1       2.142   1.496   2.631  0.00  0.00    +0.151 HD
ENDROOT
BRANCH   1  17
ATOM     17  C   UNL     1       0.025   1.330   2.619  0.00  0.00    +0.163 C 
BRANCH  17  18
ATOM     18  C   UNL     1       0.188  -0.147   2.868  0.00  0.00    +0.234 C 
ATOM     19  O   UNL     1       1.266  -0.676   2.696  0.00  0.00    -0.274 OA
ATOM     20  N   UNL     1      -0.865  -0.881   3.280  0.00  0.00    -0.311 N 
ATOM     21  H   UNL     1      -1.708  -0.447   3.483  0.00  0.00    +0.149 HD
BRANCH  20  22
ATOM     22  C   UNL     1      -0.734  -2.333   3.424  0.00  0.00    +0.067 C 
ATOM     23  C   UNL     1      -0.153  -2.659   4.801  0.00  0.00    +0.027 C 
ATOM     24  C   UNL     1      -2.111  -2.985   3.283  0.00  0.00    +0.027 C 
ENDBRANCH  20  22
ENDBRANCH  17  18
BRANCH  17  26
ATOM     25  C   UNL     1       0.434   0.883   0.195  0.00  0.00    +0.009 C 
ATOM     26  C   UNL     1      -0.504   1.554   1.201  0.00  0.00    +0.012 C 
ATOM     27  C   UNL     1      -1.903   0.948   1.077  0.00  0.00    +0.009 C 
ENDBRANCH  17  26
ENDBRANCH   1  17
TORSDOF 4
