REMARK  Name = ZINC39671368
REMARK  4 active torsions:
REMARK  status: ('A' for Active; 'I' for Inactive)
REMARK    1  A    between atoms: C_6  and  C_11
REMARK    2  A    between atoms: C_11  and  N_12
REMARK    3  A    between atoms: C_13  and  C_15
REMARK    4  A    between atoms: C_26  and  C_28
REMARK                            x       y       z     vdW  Elec       q    Type
REMARK                         _______ _______ _______ _____ _____    ______ ____
ROOT
ATOM      1  C   UNL     1      -8.311   0.158   3.117  0.00  0.00    +0.100 C 
ATOM      2  C   UNL     1      -7.919  -1.230   3.670  0.00  0.00    +0.121 C 
ATOM      3  N   UNL     1      -9.070  -1.638   4.509  0.00  0.00    -0.296 N 
ATOM      4  C   UNL     1     -10.259  -1.184   3.749  0.00  0.00    +0.115 C 
ATOM      5  C   UNL     1      -9.848   0.184   3.170  0.00  0.00    -0.004 C 
ATOM      6  C   UNL     1     -10.422   0.356   1.767  0.00  0.00    -0.010 C 
ATOM      7  C   UNL     1     -11.948   0.438   1.851  0.00  0.00    -0.082 C 
ATOM      8  N   UNL     1     -12.333   1.571   2.701  0.00  0.00    +0.379 N 
ATOM      9  C   UNL     1     -11.857   1.353   4.072  0.00  0.00    -0.082 C 
ATOM     10  C   UNL     1     -10.326   1.310   4.082  0.00  0.00    -0.010 C 
ATOM     11  C   UNL     1      -9.042  -2.277   5.696  0.00  0.00    +0.248 C 
ATOM     12  O   UNL     1      -7.979  -2.498   6.242  0.00  0.00    -0.270 OA
ATOM     13  H   UNL     1     -11.925   2.418   2.335  0.00  0.00    -0.086 HD
ATOM     14  H   UNL     1     -13.338   1.660   2.706  0.00  0.00    -0.086 HD
ENDROOT
BRANCH  11  15
ATOM     15  C   UNL     1     -10.304  -2.708   6.332  0.00  0.00    +0.055 A 
ATOM     16  C   UNL     1     -11.371  -3.149   5.546  0.00  0.00    +0.016 A 
ATOM     17  C   UNL     1     -12.545  -3.550   6.145  0.00  0.00    +0.021 A 
ATOM     18  C   UNL     1     -12.670  -3.516   7.525  0.00  0.00    +0.042 A 
ATOM     19  C   UNL     1     -11.617  -3.080   8.311  0.00  0.00    +0.040 A 
ATOM     20  C   UNL     1     -10.433  -2.682   7.723  0.00  0.00    +0.054 A 
ATOM     21 CL   UNL     1      -9.110  -2.143   8.710  0.00  0.00    -0.083 Cl
ATOM     22 CL   UNL     1     -14.153  -4.023   8.271  0.00  0.00    -0.083 Cl
ENDBRANCH  11  15
BRANCH   1  24
ATOM     23  N   UNL     1      -7.687   1.540   1.163  0.00  0.00    -0.309 N 
ATOM     24  C   UNL     1      -7.832   0.311   1.696  0.00  0.00    +0.219 C 
ATOM     25  O   UNL     1      -7.577  -0.672   1.033  0.00  0.00    -0.275 OA
ATOM     26  H   UNL     1      -7.891   2.326   1.693  0.00  0.00    +0.149 HD
BRANCH  23  27
ATOM     27  C   UNL     1      -7.221   1.689  -0.218  0.00  0.00    +0.157 C 
BRANCH  27  33
ATOM     28  C   UNL     1      -7.439   7.547  -1.854  0.00  0.00    +0.001 A 
ATOM     29  C   UNL     1      -6.172   7.573  -1.287  0.00  0.00    +0.002 A 
ATOM     30  C   UNL     1      -5.624   6.433  -0.740  0.00  0.00    +0.026 A 
ATOM     31  C   UNL     1      -6.345   5.244  -0.754  0.00  0.00    +0.047 A 
ATOM     32  N   UNL     1      -6.082   3.971  -0.301  0.00  0.00    -0.357 N 
ATOM     33  C   UNL     1      -7.146   3.153  -0.568  0.00  0.00    +0.034 A 
ATOM     34  H   UNL     1      -5.264   3.694   0.141  0.00  0.00    +0.166 HD
ATOM     35  C   UNL     1      -8.113   3.848  -1.188  0.00  0.00    +0.032 A 
ATOM     36  C   UNL     1      -7.629   5.223  -1.329  0.00  0.00    -0.000 A 
ATOM     37  C   UNL     1      -8.167   6.391  -1.873  0.00  0.00    +0.010 A 
ENDBRANCH  27  33
ENDBRANCH  23  27
ENDBRANCH   1  24
TORSDOF 4
