REMARK  Name = ZINC43347995
REMARK  7 active torsions:
REMARK  status: ('A' for Active; 'I' for Inactive)
REMARK    1  A    between atoms: C_1  and  C_2
REMARK    2  A    between atoms: C_3  and  N_11
REMARK    3  A    between atoms: C_7  and  N_8
REMARK    4  A    between atoms: N_14  and  C_15
REMARK    5  A    between atoms: C_15  and  C_16
REMARK    6  A    between atoms: C_16  and  C_18
REMARK    7  A    between atoms: C_16  and  N_24
REMARK                            x       y       z     vdW  Elec       q    Type
REMARK                         _______ _______ _______ _____ _____    ______ ____
ROOT
ATOM      1  N   UNL     1      -1.947  -4.150  -4.386  0.00  0.00    -0.269 N 
ATOM      2  C   UNL     1      -0.765  -3.503  -4.344  0.00  0.00    +0.304 C 
ATOM      3  O   UNL     1      -0.021  -3.659  -3.395  0.00  0.00    -0.253 OA
ATOM      4  N   UNL     1      -0.409  -2.684  -5.353  0.00  0.00    -0.300 N 
ATOM      5  H   UNL     1      -2.570  -3.976  -5.109  0.00  0.00    +0.156 HD
ATOM      6  H   UNL     1      -1.003  -2.560  -6.110  0.00  0.00    +0.150 HD
ENDROOT
BRANCH   1   9
ATOM      7  C   UNL     1      -3.664  -6.315  -5.067  0.00  0.00    +0.048 C 
ATOM      8  C   UNL     1      -3.110  -6.145  -3.676  0.00  0.00    +0.001 A 
ATOM      9  C   UNL     1      -2.276  -5.073  -3.386  0.00  0.00    +0.040 A 
ATOM     10  C   UNL     1      -1.768  -4.919  -2.103  0.00  0.00    +0.024 A 
ATOM     11  C   UNL     1      -2.094  -5.832  -1.119  0.00  0.00    +0.004 A 
ATOM     12  C   UNL     1      -2.925  -6.898  -1.411  0.00  0.00    +0.033 A 
ATOM     13  C   UNL     1      -3.437  -7.051  -2.686  0.00  0.00    +0.131 A 
BRANCH  13  14
ATOM     14  N   UNL     1      -4.331  -8.190  -2.992  0.00  0.00    +0.057 N 
ATOM     15  O   UNL     1      -5.275  -8.035  -3.731  0.00  0.00    -0.126 OA
ATOM     16  O   UNL     1      -4.117  -9.275  -2.504  0.00  0.00    -0.126 OA
ENDBRANCH  13  14
ENDBRANCH   1   9
BRANCH   4  17
ATOM     17  C   UNL     1       0.875  -1.981  -5.307  0.00  0.00    +0.095 C 
BRANCH  17  18
ATOM     18  C   UNL     1       0.988  -1.045  -6.512  0.00  0.00    -0.020 C 
BRANCH  18  19
ATOM     19  C   UNL     1       1.065  -1.862  -7.777  0.00  0.00    -0.059 A 
ATOM     20  C   UNL     1       2.261  -2.443  -8.152  0.00  0.00    +0.002 A 
ATOM     21  C   UNL     1       2.332  -3.192  -9.312  0.00  0.00    +0.000 A 
ATOM     22  C   UNL     1       1.205  -3.361 -10.095  0.00  0.00    +0.000 A 
ATOM     23  C   UNL     1       0.009  -2.781  -9.719  0.00  0.00    +0.000 A 
ATOM     24  C   UNL     1      -0.063  -2.035  -8.557  0.00  0.00    +0.002 A 
ENDBRANCH  18  19
BRANCH  18  25
ATOM     25  N   UNL     1       2.200  -0.226  -6.385  0.00  0.00    +0.385 N 
ATOM     26  C   UNL     1       2.304   0.718  -7.527  0.00  0.00    -0.078 C 
ATOM     27  C   UNL     1       3.236   1.830  -6.985  0.00  0.00    -0.020 C 
ATOM     28  C   UNL     1       2.800   1.958  -5.508  0.00  0.00    -0.020 C 
ATOM     29  C   UNL     1       2.120   0.617  -5.172  0.00  0.00    -0.078 C 
ATOM     30  H   UNL     1       3.017  -0.816  -6.345  0.00  0.00    -0.081 HD
ENDBRANCH  18  25
ENDBRANCH  17  18
ENDBRANCH   4  17
TORSDOF 6
