REMARK  Name = ZINC00647655
REMARK  9 active torsions:
REMARK  status: ('A' for Active; 'I' for Inactive)
REMARK    1  A    between atoms: C_1  and  C_2
REMARK    2  A    between atoms: C_2  and  O_3
REMARK    3  A    between atoms: O_3  and  C_4
REMARK    4  A    between atoms: C_6  and  C_11
REMARK    5  A    between atoms: C_9  and  O_10
REMARK    6  A    between atoms: C_14  and  C_30
REMARK    7  A    between atoms: N_16  and  C_24
REMARK    8  A    between atoms: C_19  and  N_23
REMARK    9  A    between atoms: C_20  and  C_21
REMARK                            x       y       z     vdW  Elec       q    Type
REMARK                         _______ _______ _______ _____ _____    ______ ____
ROOT
ATOM      1  C   UNL     1       5.888   0.664  -0.959  0.00  0.00    +0.101 C 
ATOM      2  C   UNL     1       4.489   0.557  -0.409  0.00  0.00    +0.050 A 
ATOM      3  C   UNL     1       3.931  -0.433   0.388  0.00  0.00    +0.068 A 
ATOM      4  N   UNL     1       2.683  -0.109   0.633  0.00  0.00    -0.168 NA
ATOM      5  N   UNL     1       2.404   1.105  -0.014  0.00  0.00    -0.200 N 
ATOM      6  C   UNL     1       3.529   1.501  -0.648  0.00  0.00    +0.230 A 
ATOM      7  O   UNL     1       3.758   2.604  -1.402  0.00  0.00    -0.423 OA
ATOM      8  C   UNL     1       4.881   2.629  -2.147  0.00  0.00    +0.200 C 
ATOM      9  C   UNL     1       5.904   1.760  -1.996  0.00  0.00    +0.098 C 
ATOM     10  C   UNL     1       4.638  -1.666   0.890  0.00  0.00    +0.068 C 
ENDROOT
BRANCH   1  13
ATOM     11  C   UNL     1       8.787   0.464   1.456  0.00  0.00    +0.162 A 
ATOM     12  C   UNL     1       7.901   0.152   0.437  0.00  0.00    +0.054 A 
ATOM     13  C   UNL     1       6.848   1.002   0.153  0.00  0.00    -0.031 A 
ATOM     14  C   UNL     1       6.670   2.158   0.890  0.00  0.00    +0.008 A 
ATOM     15  C   UNL     1       7.547   2.472   1.911  0.00  0.00    +0.049 A 
ATOM     16  C   UNL     1       8.608   1.628   2.198  0.00  0.00    +0.158 A 
BRANCH  16  17
ATOM     17  O   UNL     1       9.472   1.935   3.202  0.00  0.00    -0.503 OA
ATOM     18  H   UNL     1       9.214   1.582   4.064  0.00  0.00    +0.292 HD
ENDBRANCH  16  17
BRANCH  11  19
ATOM     19  O   UNL     1       9.826  -0.368   1.734  0.00  0.00    -0.489 OA
BRANCH  19  21
ATOM     20  C   UNL     1      11.165  -2.350   1.389  0.00  0.00    +0.048 C 
ATOM     21  C   UNL     1       9.947  -1.544   0.932  0.00  0.00    +0.226 C 
ENDBRANCH  19  21
ENDBRANCH  11  19
ENDBRANCH   1  13
BRANCH   5  22
ATOM     22  C   UNL     1       1.180   1.787   0.000  0.00  0.00    +0.069 A 
ATOM     23  C   UNL     1      -0.013   1.076   0.008  0.00  0.00    +0.028 A 
ATOM     24  C   UNL     1      -1.218   1.751   0.017  0.00  0.00    +0.002 A 
ATOM     25  C   UNL     1      -1.237   3.133   0.030  0.00  0.00    +0.000 A 
ATOM     26  C   UNL     1      -0.051   3.845   0.022  0.00  0.00    +0.002 A 
ATOM     27  C   UNL     1       1.157   3.175   0.008  0.00  0.00    +0.028 A 
ENDBRANCH   5  22
BRANCH   8  28
ATOM     28  N   UNL     1       4.992   3.595  -3.117  0.00  0.00    -0.328 N 
ATOM     29  H   UNL     1       4.275   4.234  -3.249  0.00  0.00    +0.145 HD
ATOM     30  H   UNL     1       5.789   3.638  -3.669  0.00  0.00    +0.145 HD
ENDBRANCH   8  28
BRANCH   9  31
ATOM     31  C   UNL     1       7.047   1.883  -2.851  0.00  0.00    +0.101 C 
ATOM     32  N   UNL     1       7.953   1.980  -3.529  0.00  0.00    -0.191 NA
ENDBRANCH   9  31
TORSDOF 7
