REMARK  Name = ZINC59005077
REMARK  9 active torsions:
REMARK  status: ('A' for Active; 'I' for Inactive)
REMARK    1  A    between atoms: C_1  and  N_2
REMARK    2  A    between atoms: N_2  and  C_3
REMARK    3  A    between atoms: N_2  and  S_4
REMARK    4  A    between atoms: S_4  and  C_7
REMARK    5  A    between atoms: C_10  and  C_12
REMARK    6  A    between atoms: C_12  and  S_13
REMARK    7  A    between atoms: S_13  and  C_14
REMARK    8  A    between atoms: C_17  and  C_20
REMARK    9  A    between atoms: N_18  and  N_19
REMARK                            x       y       z     vdW  Elec       q    Type
REMARK                         _______ _______ _______ _____ _____    ______ ____
ROOT
ATOM      1  C   UNL     1      -6.040  -0.005  -6.120  0.00  0.00    +0.209 A 
ATOM      2  N   UNL     1      -5.510   0.938  -6.865  0.00  0.00    -0.121 NA
ATOM      3  N   UNL     1      -6.378   1.379  -7.704  0.00  0.00    -0.127 NA
ATOM      4  C   UNL     1      -7.517   0.744  -7.545  0.00  0.00    +0.183 A 
ATOM      5  N   UNL     1      -7.333  -0.166  -6.529  0.00  0.00    -0.224 N 
ENDROOT
BRANCH   4   6
ATOM      6  C   UNL     1      -8.759   0.962  -8.316  0.00  0.00    +0.039 A 
ATOM      7  C   UNL     1      -9.980   1.096  -7.654  0.00  0.00    +0.014 A 
ATOM      8  C   UNL     1     -11.136   1.300  -8.379  0.00  0.00    +0.021 A 
ATOM      9  C   UNL     1     -11.087   1.371  -9.761  0.00  0.00    +0.042 A 
ATOM     10  C   UNL     1      -9.879   1.239 -10.424  0.00  0.00    +0.040 A 
ATOM     11  C   UNL     1      -8.714   1.040  -9.710  0.00  0.00    +0.053 A 
ATOM     12 CL   UNL     1      -7.199   0.882 -10.542  0.00  0.00    -0.083 Cl
ATOM     13 CL   UNL     1     -12.547   1.627 -10.666  0.00  0.00    -0.083 Cl
ENDBRANCH   4   6
BRANCH   5  14
ATOM     14  N   UNL     1      -8.254  -1.044  -6.032  0.00  0.00    -0.295 N 
ATOM     15  H   UNL     1      -8.833  -0.604  -5.333  0.00  0.00    +0.163 HD
ATOM     16  H   UNL     1      -8.816  -1.436  -6.773  0.00  0.00    +0.163 HD
ENDBRANCH   5  14
BRANCH   1  17
ATOM     17  S   UNL     1      -5.232  -0.900  -4.835  0.00  0.00    -0.077 S 
BRANCH  17  18
ATOM     18  C   UNL     1      -3.556  -0.207  -4.805  0.00  0.00    +0.151 C 
BRANCH  18  22
ATOM     19  C   UNL     1      -1.844  -1.352  -1.789  0.00  0.00    +0.258 A 
ATOM     20  C   UNL     1      -1.420  -2.297  -2.648  0.00  0.00    +0.071 A 
ATOM     21  C   UNL     1      -2.002  -2.002  -3.902  0.00  0.00    +0.047 A 
ATOM     22  C   UNL     1      -2.747  -0.895  -3.735  0.00  0.00    +0.118 A 
ATOM     23  O   UNL     1      -2.652  -0.509  -2.452  0.00  0.00    -0.441 OA
BRANCH  19  24
ATOM     24  S   UNL     1      -1.417  -1.243  -0.083  0.00  0.00    +0.093 S 
ATOM     25  O   UNL     1      -1.047  -2.552   0.327  0.00  0.00    -0.150 OA
ATOM     26  O   UNL     1      -2.459  -0.513   0.550  0.00  0.00    -0.150 OA
BRANCH  24  28
ATOM     27  C   UNL     1      -0.169   1.141   0.182  0.00  0.00    +0.131 C 
ATOM     28  N   UNL     1      -0.053  -0.310   0.022  0.00  0.00    -0.180 NA
ATOM     29  C   UNL     1       1.269  -0.936  -0.045  0.00  0.00    +0.131 C 
ENDBRANCH  24  28
ENDBRANCH  19  24
ENDBRANCH  18  22
ENDBRANCH  17  18
ENDBRANCH   1  17
TORSDOF 7
