REMARK  Name = ZINC42426410
REMARK  3 active torsions:
REMARK  status: ('A' for Active; 'I' for Inactive)
REMARK    1  A    between atoms: C_1  and  N_2
REMARK    2  A    between atoms: C_3  and  C_5
REMARK    3  A    between atoms: C_15  and  C_17
REMARK                            x       y       z     vdW  Elec       q    Type
REMARK                         _______ _______ _______ _____ _____    ______ ____
ROOT
ATOM      1  C   UNL     1      -1.140  -2.200  -0.007  0.00  0.00    +0.163 C 
ATOM      2  C   UNL     1      -1.033  -2.702  -1.450  0.00  0.00    +0.032 C 
ATOM      3  C   UNL     1      -1.155  -4.227  -1.467  0.00  0.00    +0.004 C 
ATOM      4  C   UNL     1      -2.521  -4.638  -0.912  0.00  0.00    +0.019 C 
ATOM      5  C   UNL     1      -2.644  -4.159   0.537  0.00  0.00    +0.110 C 
ATOM      6  N   UNL     1      -2.383  -2.713   0.584  0.00  0.00    -0.274 N 
ATOM      7  C   UNL     1      -3.269  -1.873   1.155  0.00  0.00    +0.309 C 
ATOM      8  O   UNL     1      -3.087  -0.673   1.107  0.00  0.00    -0.252 OA
ATOM      9  N   UNL     1      -4.358  -2.365   1.780  0.00  0.00    -0.239 N 
ATOM     10  C   UNL     1      -5.298  -1.525   2.257  0.00  0.00    +0.235 C 
ATOM     11  O   UNL     1      -5.163  -0.327   2.126  0.00  0.00    -0.274 OA
ATOM     12  H   UNL     1      -4.465  -3.323   1.885  0.00  0.00    +0.159 HD
ENDROOT
BRANCH   1  15
ATOM     13  C   UNL     1      -0.192   1.453   0.635  0.00  0.00    +0.128 C 
ATOM     14  N   UNL     1      -0.174  -0.012   0.624  0.00  0.00    -0.317 N 
ATOM     15  C   UNL     1      -1.158  -0.694   0.005  0.00  0.00    +0.233 C 
ATOM     16  O   UNL     1      -2.059  -0.094  -0.543  0.00  0.00    -0.274 OA
ATOM     17  H   UNL     1       0.546  -0.491   1.062  0.00  0.00    +0.148 HD
ENDBRANCH   1  15
BRANCH  10  18
ATOM     18  C   UNL     1      -6.515  -2.075   2.955  0.00  0.00    +0.204 C 
ATOM     19 CL   UNL     1      -7.576  -0.713   3.475  0.00  0.00    -0.116 Cl
ENDBRANCH  10  18
TORSDOF 2
