REMARK  Name = ZINC37270367
REMARK  6 active torsions:
REMARK  status: ('A' for Active; 'I' for Inactive)
REMARK    1  A    between atoms: C_1  and  N_2
REMARK    2  A    between atoms: N_2  and  C_3
REMARK    3  A    between atoms: N_2  and  S_7
REMARK    4  A    between atoms: C_3  and  C_4
REMARK    5  A    between atoms: S_7  and  C_10
REMARK    6  A    between atoms: C_13  and  N_17
REMARK                            x       y       z     vdW  Elec       q    Type
REMARK                         _______ _______ _______ _____ _____    ______ ____
ROOT
ATOM      1  S   UNL     1      -0.000  -0.824  -1.437  0.00  0.00    +0.062 S 
ATOM      2  O   UNL     1      -0.531  -2.115  -1.167  0.00  0.00    -0.153 OA
ATOM      3  O   UNL     1      -0.572   0.049  -2.401  0.00  0.00    -0.153 OA
ENDROOT
BRANCH   1   4
ATOM      4  C   UNL     1       1.682  -1.059  -1.905  0.00  0.00    +0.124 A 
ATOM      5  C   UNL     1       2.207  -2.337  -1.975  0.00  0.00    +0.032 A 
ATOM      6  C   UNL     1       3.524  -2.525  -2.342  0.00  0.00    +0.025 A 
ATOM      7  C   UNL     1       4.324  -1.429  -2.642  0.00  0.00    +0.026 A 
ATOM      8  C   UNL     1       3.795  -0.147  -2.571  0.00  0.00    +0.044 A 
ATOM      9  C   UNL     1       2.474   0.034  -2.208  0.00  0.00    +0.069 A 
ATOM     10 CL   UNL     1       1.809   1.636  -2.125  0.00  0.00    -0.081 Cl
BRANCH   7  11
ATOM     11  N   UNL     1       5.658  -1.616  -3.012  0.00  0.00    -0.358 N 
ATOM     12  H   UNL     1       6.026  -2.512  -3.061  0.00  0.00    +0.142 HD
ATOM     13  H   UNL     1       6.215  -0.850  -3.221  0.00  0.00    +0.142 HD
ENDBRANCH   7  11
ENDBRANCH   1   4
BRANCH   1  15
ATOM     14  C   UNL     1      -0.018   1.461   0.010  0.00  0.00    +0.132 C 
ATOM     15  N   UNL     1       0.002  -0.004   0.002  0.00  0.00    -0.171 NA
BRANCH  15  16
ATOM     16  C   UNL     1       0.024  -0.743   1.267  0.00  0.00    +0.204 C 
BRANCH  16  17
ATOM     17  C   UNL     1      -1.384  -0.909   1.776  0.00  0.00    +0.226 C 
ATOM     18  O   UNL     1      -2.315  -0.455   1.145  0.00  0.00    -0.275 OA
ATOM     19  N   UNL     1      -1.610  -1.563   2.933  0.00  0.00    -0.328 N 
ATOM     20  H   UNL     1      -0.866  -1.926   3.438  0.00  0.00    +0.145 HD
ATOM     21  H   UNL     1      -2.517  -1.669   3.261  0.00  0.00    +0.145 HD
ENDBRANCH  16  17
ENDBRANCH  15  16
ENDBRANCH   1  15
TORSDOF 5
