REMARK  Name = ZINC09403672
REMARK  4 active torsions:
REMARK  status: ('A' for Active; 'I' for Inactive)
REMARK    1  A    between atoms: C_1  and  C_2
REMARK    2  A    between atoms: C_7  and  C_12
REMARK    3  A    between atoms: C_12  and  C_14
REMARK    4  A    between atoms: C_19  and  C_21
REMARK                            x       y       z     vdW  Elec       q    Type
REMARK                         _______ _______ _______ _____ _____    ______ ____
ROOT
ATOM      1  C   UNL     1      -2.896   1.158   1.373  0.00  0.00    +0.077 C 
ATOM      2  C   UNL     1      -4.048   1.844   1.185  0.00  0.00    +0.250 C 
ATOM      3  C   UNL     1      -3.987   2.548  -0.112  0.00  0.00    +0.293 C 
ATOM      4  O   UNL     1      -4.869   3.249  -0.567  0.00  0.00    -0.266 OA
ATOM      5  N   UNL     1      -2.811   2.299  -0.716  0.00  0.00    -0.231 N 
ATOM      6  C   UNL     1      -2.034   1.413   0.159  0.00  0.00    +0.158 C 
ATOM      7  C   UNL     1      -2.405   2.792  -1.943  0.00  0.00    +0.169 A 
ATOM      8  N   UNL     1      -1.273   2.591  -2.578  0.00  0.00    -0.224 NA
ATOM      9  C   UNL     1      -1.012   3.136  -3.785  0.00  0.00    +0.080 A 
ATOM     10  C   UNL     1       0.155   2.996  -4.572  0.00  0.00    +0.030 A 
ATOM     11  C   UNL     1       0.264   3.628  -5.783  0.00  0.00    +0.022 A 
ATOM     12  C   UNL     1      -0.760   4.424  -6.280  0.00  0.00    +0.042 A 
ATOM     13  C   UNL     1      -1.916   4.583  -5.536  0.00  0.00    +0.037 A 
ATOM     14  C   UNL     1      -2.032   3.954  -4.322  0.00  0.00    +0.042 A 
ATOM     15  S   UNL     1      -3.285   3.869  -3.065  0.00  0.00    -0.052 S 
ATOM     16 CL   UNL     1      -0.591   5.211  -7.818  0.00  0.00    -0.084 Cl
ATOM     17  O   UNL     1      -5.090   1.878   2.047  0.00  0.00    -0.282 OA
ENDROOT
BRANCH   6  18
ATOM     18  C   UNL     1      -0.748   2.085   0.568  0.00  0.00    +0.015 A 
ATOM     19  C   UNL     1       0.484   1.545   0.728  0.00  0.00    +0.013 A 
ATOM     20  C   UNL     1       1.531   2.364   1.107  0.00  0.00    +0.008 A 
ATOM     21  C   UNL     1       1.293   3.682   1.314  0.00  0.00    +0.045 A 
ATOM     22  S   UNL     1      -0.455   3.800   0.970  0.00  0.00    -0.099 S 
ENDBRANCH   6  18
BRANCH   1  23
ATOM     23  C   UNL     1      -2.551   0.329   2.532  0.00  0.00    +0.195 C 
ATOM     24  O   UNL     1      -2.433   0.838   3.631  0.00  0.00    -0.287 OA
BRANCH  23  30
ATOM     25  C   UNL     1      -1.263  -6.840   3.869  0.00  0.00    +0.052 C 
ATOM     26  C   UNL     1      -0.904  -5.487   3.254  0.00  0.00    +0.175 C 
ATOM     27  C   UNL     1      -1.244  -4.334   4.228  0.00  0.00    +0.083 C 
ATOM     28  C   UNL     1      -1.720  -3.251   3.279  0.00  0.00    -0.002 A 
ATOM     29  C   UNL     1      -1.901  -1.900   3.441  0.00  0.00    +0.019 A 
ATOM     30  C   UNL     1      -2.348  -1.124   2.366  0.00  0.00    +0.023 A 
ATOM     31  C   UNL     1      -2.594  -1.733   1.132  0.00  0.00    +0.015 A 
ATOM     32  C   UNL     1      -2.407  -3.086   0.980  0.00  0.00    +0.046 A 
ATOM     33  C   UNL     1      -1.971  -3.865   2.054  0.00  0.00    +0.124 A 
ATOM     34  O   UNL     1      -1.743  -5.204   2.121  0.00  0.00    -0.488 OA
ENDBRANCH  23  30
ENDBRANCH   1  23
TORSDOF 3
