REMARK  Name = ZINC05315752
REMARK  10 active torsions:
REMARK  status: ('A' for Active; 'I' for Inactive)
REMARK    1  A    between atoms: C_1  and  C_2
REMARK    2  A    between atoms: C_2  and  C_3
REMARK    3  A    between atoms: C_2  and  C_4
REMARK    4  A    between atoms: C_2  and  N_5
REMARK    5  A    between atoms: N_5  and  N_6
REMARK    6  A    between atoms: C_7  and  C_8
REMARK    7  A    between atoms: C_7  and  C_20
REMARK    8  A    between atoms: C_20  and  C_22
REMARK    9  A    between atoms: C_20  and  O_29
REMARK   10  A    between atoms: C_27  and  O_28
REMARK                            x       y       z     vdW  Elec       q    Type
REMARK                         _______ _______ _______ _____ _____    ______ ____
ROOT
ATOM      1  N   UNL     1       1.743   0.028  -1.552  0.00  0.00    -0.186 NA
ATOM      2  C   UNL     1       2.512  -0.517  -2.449  0.00  0.00    +0.122 C 
ENDROOT
BRANCH   2   3
ATOM      3  C   UNL     1       3.941  -0.186  -2.489  0.00  0.00    +0.154 A 
ATOM      4  C   UNL     1       4.508   0.760  -1.508  0.00  0.00    +0.277 A 
ATOM      5  N   UNL     1       5.826   1.051  -1.562  0.00  0.00    -0.319 N 
ATOM      6  C   UNL     1       6.608   0.454  -2.534  0.00  0.00    +0.069 A 
ATOM      7  C   UNL     1       7.967   0.737  -2.610  0.00  0.00    +0.047 A 
ATOM      8  C   UNL     1       8.741   0.138  -3.582  0.00  0.00    +0.043 A 
ATOM      9  C   UNL     1       8.172  -0.749  -4.489  0.00  0.00    +0.022 A 
ATOM     10  C   UNL     1       6.841  -1.041  -4.433  0.00  0.00    +0.031 A 
ATOM     11  C   UNL     1       6.031  -0.444  -3.453  0.00  0.00    +0.088 A 
ATOM     12  N   UNL     1       4.720  -0.737  -3.396  0.00  0.00    -0.238 NA
ATOM     13 CL   UNL     1      10.438   0.494  -3.674  0.00  0.00    -0.083 Cl
ATOM     14  O   UNL     1       3.798   1.272  -0.662  0.00  0.00    -0.266 OA
ATOM     15  H   UNL     1       6.220   1.670  -0.927  0.00  0.00    +0.169 HD
ENDBRANCH   2   3
BRANCH   1  16
ATOM     16  N   UNL     1       0.411  -0.386  -1.426  0.00  0.00    -0.263 N 
ATOM     17  H   UNL     1       0.042  -1.030  -2.051  0.00  0.00    +0.169 HD
BRANCH  16  19
ATOM     18  C   UNL     1      -0.523   1.673  -0.494  0.00  0.00    +0.032 C 
ATOM     19  C   UNL     1      -0.426   0.153  -0.351  0.00  0.00    +0.041 C 
ATOM     20  C   UNL     1       0.198  -0.193   1.003  0.00  0.00    +0.032 C 
ATOM     21  C   UNL     1      -1.825  -0.459  -0.439  0.00  0.00    +0.032 C 
ENDBRANCH  16  19
ENDBRANCH   1  16
BRANCH   2  22
ATOM     22  C   UNL     1       1.935  -1.488  -3.447  0.00  0.00    +0.200 C 
BRANCH  22  23
ATOM     23  C   UNL     1       2.213  -0.996  -4.844  0.00  0.00    +0.028 A 
ATOM     24  C   UNL     1       3.290  -1.495  -5.552  0.00  0.00    +0.010 A 
ATOM     25  C   UNL     1       3.545  -1.044  -6.833  0.00  0.00    +0.001 A 
ATOM     26  C   UNL     1       2.724  -0.093  -7.411  0.00  0.00    +0.004 A 
ATOM     27  C   UNL     1       1.646   0.409  -6.708  0.00  0.00    +0.046 A 
ATOM     28  C   UNL     1       1.384  -0.046  -5.423  0.00  0.00    +0.123 A 
BRANCH  28  29
ATOM     29  O   UNL     1       0.321   0.442  -4.732  0.00  0.00    -0.506 OA
ATOM     30  H   UNL     1       0.522   1.227  -4.204  0.00  0.00    +0.292 HD
ENDBRANCH  28  29
ENDBRANCH  22  23
BRANCH  22  31
ATOM     31  O   UNL     1       2.537  -2.771  -3.265  0.00  0.00    -0.381 OA
ATOM     32  H   UNL     1       3.496  -2.776  -3.384  0.00  0.00    +0.211 HD
ENDBRANCH  22  31
ENDBRANCH   2  22
TORSDOF 7
