REMARK  Name = ZINC67605891
REMARK  13 active torsions:
REMARK  status: ('A' for Active; 'I' for Inactive)
REMARK    1  A    between atoms: C_1  and  C_2
REMARK    2  A    between atoms: C_6  and  C_29
REMARK    3  A    between atoms: C_7  and  O_8
REMARK    4  A    between atoms: O_8  and  C_9
REMARK    5  A    between atoms: C_9  and  C_10
REMARK    6  A    between atoms: C_10  and  C_12
REMARK    7  A    between atoms: C_10  and  O_28
REMARK    8  A    between atoms: C_12  and  N_13
REMARK    9  A    between atoms: N_16  and  C_17
REMARK   10  A    between atoms: C_17  and  C_19
REMARK   11  A    between atoms: C_17  and  C_20
REMARK   12  A    between atoms: C_20  and  C_21
REMARK   13  A    between atoms: C_24  and  O_27
REMARK                            x       y       z     vdW  Elec       q    Type
REMARK                         _______ _______ _______ _____ _____    ______ ____
ROOT
ATOM      1  N   UNL     1      -2.201   2.278   6.025  0.00  0.00    -0.297 N 
ATOM      2  C   UNL     1      -3.264   2.776   6.686  0.00  0.00    +0.300 C 
ATOM      3  O   UNL     1      -4.390   2.543   6.291  0.00  0.00    -0.253 OA
ATOM      4  N   UNL     1      -3.079   3.532   7.787  0.00  0.00    -0.297 N 
ATOM      5  H   UNL     1      -1.302   2.464   6.340  0.00  0.00    +0.150 HD
ATOM      6  H   UNL     1      -2.181   3.717   8.103  0.00  0.00    +0.151 HD
ENDROOT
BRANCH   4   7
ATOM      7  C   UNL     1      -4.235   4.073   8.506  0.00  0.00    +0.076 C 
ATOM      8  C   UNL     1      -4.671   5.387   7.856  0.00  0.00    +0.028 C 
BRANCH   7   9
ATOM      9  C   UNL     1      -3.854   4.328   9.966  0.00  0.00    +0.057 C 
BRANCH   9  10
ATOM     10  C   UNL     1      -3.542   3.017  10.640  0.00  0.00    -0.045 A 
ATOM     11  C   UNL     1      -4.550   2.305  11.264  0.00  0.00    +0.007 A 
ATOM     12  C   UNL     1      -4.267   1.103  11.883  0.00  0.00    +0.045 A 
ATOM     13  C   UNL     1      -2.970   0.610  11.879  0.00  0.00    +0.117 A 
ATOM     14  C   UNL     1      -1.961   1.326  11.252  0.00  0.00    +0.045 A 
ATOM     15  C   UNL     1      -2.250   2.525  10.630  0.00  0.00    +0.007 A 
BRANCH  13  16
ATOM     16  O   UNL     1      -2.689  -0.572  12.488  0.00  0.00    -0.507 OA
ATOM     17  H   UNL     1      -2.773  -1.342  11.910  0.00  0.00    +0.292 HD
ENDBRANCH  13  16
ENDBRANCH   9  10
ENDBRANCH   7   9
ENDBRANCH   4   7
BRANCH   1  18
ATOM     18  C   UNL     1      -2.401   1.456   4.828  0.00  0.00    +0.140 C 
BRANCH  18  19
ATOM     19  C   UNL     1      -1.043   1.022   4.274  0.00  0.00    +0.169 C 
BRANCH  19  20
ATOM     20  O   UNL     1      -0.396   0.166   5.217  0.00  0.00    -0.387 OA
ATOM     21  H   UNL     1      -0.891  -0.639   5.421  0.00  0.00    +0.210 HD
ENDBRANCH  19  20
BRANCH  19  22
ATOM     22  C   UNL     1      -1.246   0.270   2.957  0.00  0.00    +0.261 C 
BRANCH  22  23
ATOM     23  O   UNL     1       0.025  -0.033   2.381  0.00  0.00    -0.489 OA
BRANCH  23  30
ATOM     24  C   UNL     1      -0.018   1.503   0.010  0.00  0.00    +0.047 C 
ATOM     25  C   UNL     1       0.002  -0.004   0.002  0.00  0.00    -0.009 A 
ATOM     26  C   UNL     1       0.006  -0.689  -1.198  0.00  0.00    +0.007 A 
ATOM     27  C   UNL     1       0.024  -2.071  -1.206  0.00  0.00    +0.001 A 
ATOM     28  C   UNL     1       0.040  -2.772  -0.014  0.00  0.00    +0.007 A 
ATOM     29  C   UNL     1       0.036  -2.092   1.188  0.00  0.00    -0.009 A 
ATOM     30  C   UNL     1       0.023  -0.705   1.199  0.00  0.00    +0.126 A 
ATOM     31  C   UNL     1       0.052  -2.856   2.487  0.00  0.00    +0.047 C 
ENDBRANCH  23  30
ENDBRANCH  22  23
ENDBRANCH  19  22
ENDBRANCH  18  19
ENDBRANCH   1  18
TORSDOF 10
