REMARK  Name = ZINC13369658
REMARK  6 active torsions:
REMARK  status: ('A' for Active; 'I' for Inactive)
REMARK    1  A    between atoms: C_1  and  C_2
REMARK    2  A    between atoms: C_2  and  C_4
REMARK    3  A    between atoms: C_2  and  N_13
REMARK    4  A    between atoms: N_6  and  C_7
REMARK    5  A    between atoms: C_7  and  C_8
REMARK    6  A    between atoms: C_20  and  C_22
REMARK                            x       y       z     vdW  Elec       q    Type
REMARK                         _______ _______ _______ _____ _____    ______ ____
ROOT
ATOM      1  N   UNL     1      -0.311   1.285  -4.835  0.00  0.00    -0.251 N 
ATOM      2  C   UNL     1      -0.868   0.491  -5.805  0.00  0.00    +0.070 A 
ATOM      3  C   UNL     1      -2.126  -0.081  -5.975  0.00  0.00    +0.028 A 
ATOM      4  C   UNL     1      -2.383  -0.844  -7.079  0.00  0.00    +0.002 A 
ATOM      5  C   UNL     1      -1.402  -1.058  -8.039  0.00  0.00    +0.001 A 
ATOM      6  C   UNL     1      -0.160  -0.509  -7.898  0.00  0.00    +0.012 A 
ATOM      7  C   UNL     1       0.126   0.275  -6.777  0.00  0.00    +0.028 A 
ATOM      8  C   UNL     1       1.317   0.998  -6.316  0.00  0.00    +0.100 A 
ATOM      9  N   UNL     1       1.012   1.578  -5.181  0.00  0.00    -0.169 NA
ENDROOT
BRANCH   8  10
ATOM     10  C   UNL     1       2.624   1.066  -7.012  0.00  0.00    +0.003 A 
ATOM     11  C   UNL     1       3.099  -0.038  -7.718  0.00  0.00    +0.010 A 
ATOM     12  C   UNL     1       4.314   0.033  -8.369  0.00  0.00    +0.001 A 
ATOM     13  C   UNL     1       5.066   1.193  -8.310  0.00  0.00    +0.000 A 
ATOM     14  C   UNL     1       4.602   2.289  -7.606  0.00  0.00    +0.001 A 
ATOM     15  C   UNL     1       3.386   2.232  -6.957  0.00  0.00    +0.010 A 
ENDBRANCH   8  10
BRANCH   1  17
ATOM     16  C   UNL     1      -1.018   3.288  -3.622  0.00  0.00    +0.042 C 
ATOM     17  C   UNL     1      -0.997   1.758  -3.630  0.00  0.00    +0.190 C 
BRANCH  17  18
ATOM     18  C   UNL     1      -0.268   1.258  -2.409  0.00  0.00    +0.238 C 
ATOM     19  O   UNL     1       0.726   0.575  -2.534  0.00  0.00    -0.273 OA
ATOM     20  N   UNL     1      -0.721   1.571  -1.179  0.00  0.00    -0.306 N 
ATOM     21  H   UNL     1      -1.516   2.118  -1.079  0.00  0.00    +0.149 HD
BRANCH  20  22
ATOM     22  C   UNL     1      -0.013   1.086   0.008  0.00  0.00    +0.178 C 
BRANCH  22  23
ATOM     23  C   UNL     1      -0.718   1.572   1.248  0.00  0.00    +0.122 A 
ATOM     24  C   UNL     1      -1.704   0.926   1.896  0.00  0.00    +0.046 A 
ATOM     25  C   UNL     1      -2.070   1.736   2.996  0.00  0.00    +0.041 A 
ATOM     26  C   UNL     1      -1.286   2.828   2.954  0.00  0.00    +0.195 A 
ATOM     27  O   UNL     1      -0.465   2.720   1.896  0.00  0.00    -0.466 OA
ENDBRANCH  22  23
ENDBRANCH  20  22
ENDBRANCH  17  18
ENDBRANCH   1  17
TORSDOF 5
