REMARK  Name = ZINC23358404
REMARK  17 active torsions:
REMARK  status: ('A' for Active; 'I' for Inactive)
REMARK    1  A    between atoms: C_1  and  C_2
REMARK    2  A    between atoms: C_3  and  C_37
REMARK    3  A    between atoms: N_4  and  C_32
REMARK    4  A    between atoms: C_5  and  N_9
REMARK    5  A    between atoms: C_6  and  C_7
REMARK    6  A    between atoms: C_10  and  C_12
REMARK    7  A    between atoms: C_12  and  N_13
REMARK    8  A    between atoms: N_13  and  C_14
REMARK    9  A    between atoms: N_13  and  C_18
REMARK   10  A    between atoms: C_14  and  C_15
REMARK   11  A    between atoms: C_15  and  C_16
REMARK   12  A    between atoms: C_15  and  C_17
REMARK   13  A    between atoms: C_19  and  N_31
REMARK   14  A    between atoms: N_20  and  C_27
REMARK   15  A    between atoms: C_27  and  C_28
REMARK   16  A    between atoms: C_28  and  C_29
REMARK   17  A    between atoms: C_28  and  C_30
REMARK                            x       y       z     vdW  Elec       q    Type
REMARK                         _______ _______ _______ _____ _____    ______ ____
ROOT
ATOM      1  N   UNL     1      -3.241   1.908  -0.909  0.00  0.00    -0.314 N 
ENDROOT
BRANCH   1   2
ATOM      2  C   UNL     1      -4.492   1.260  -0.791  0.00  0.00    +0.134 A 
ATOM      3  C   UNL     1      -5.267   1.040  -1.898  0.00  0.00    +0.127 A 
ATOM      4  N   UNL     1      -6.481   0.408  -1.757  0.00  0.00    -0.280 N 
ATOM      5  C   UNL     1      -6.904   0.009  -0.543  0.00  0.00    +0.331 A 
ATOM      6  O   UNL     1      -7.979  -0.549  -0.437  0.00  0.00    -0.246 OA
ATOM      7  N   UNL     1      -6.155   0.217   0.555  0.00  0.00    -0.273 N 
ATOM      8  H   UNL     1      -6.520  -0.111   1.540  0.00  0.00    +0.173 HD
ATOM      9  C   UNL     1      -4.957   0.827   0.464  0.00  0.00    +0.277 A 
ATOM     10  O   UNL     1      -4.282   1.007   1.463  0.00  0.00    -0.266 OA
BRANCH   3  11
ATOM     11  N   UNL     1      -4.836   1.448  -3.140  0.00  0.00    -0.343 N 
ATOM     12  H   UNL     1      -5.463   1.268  -4.026  0.00  0.00    +0.144 HD
ATOM     13  H   UNL     1      -3.865   1.953  -3.246  0.00  0.00    +0.144 HD
ENDBRANCH   3  11
BRANCH   4  14
ATOM     14  C   UNL     1      -7.318   0.167  -2.935  0.00  0.00    +0.131 C 
BRANCH  14  15
ATOM     15  C   UNL     1      -6.968  -1.194  -3.540  0.00  0.00    +0.003 C 
ATOM     16  C   UNL     1      -7.925  -1.500  -4.694  0.00  0.00    +0.009 C 
ATOM     17  C   UNL     1      -5.530  -1.163  -4.064  0.00  0.00    +0.009 C 
ENDBRANCH  14  15
ENDBRANCH   4  14
ENDBRANCH   1   2
BRANCH   1  18
ATOM     18  C   UNL     1      -2.145   1.008  -0.525  0.00  0.00    +0.201 C 
BRANCH  18  20
ATOM     19  N   UNL     1       0.319   0.938  -0.740  0.00  0.00    -0.269 N 
ATOM     20  C   UNL     1      -0.839   1.560  -1.038  0.00  0.00    +0.236 C 
ATOM     21  O   UNL     1      -0.831   2.563  -1.720  0.00  0.00    -0.274 OA
ATOM     22  H   UNL     1       0.309   0.018  -0.138  0.00  0.00    +0.156 HD
BRANCH  19  27
ATOM     23  C   UNL     1       4.071   4.090  -1.976  0.00  0.00    +0.047 C 
ATOM     24  C   UNL     1       3.235   2.855  -1.761  0.00  0.00    -0.011 A 
ATOM     25  C   UNL     1       3.582   1.590  -2.052  0.00  0.00    +0.022 A 
ATOM     26  N   UNL     1       2.556   0.750  -1.711  0.00  0.00    -0.329 N 
ATOM     27  C   UNL     1       1.522   1.460  -1.191  0.00  0.00    +0.124 A 
ATOM     28  C   UNL     1       1.880   2.801  -1.197  0.00  0.00    +0.095 A 
ATOM     29  C   UNL     1       4.894   1.164  -2.658  0.00  0.00    +0.064 C 
BRANCH  26  30
ATOM     30  C   UNL     1       2.572  -0.705  -1.884  0.00  0.00    +0.089 C 
ATOM     31  C   UNL     1       1.428  -1.138  -2.824  0.00  0.00    +0.025 C 
ATOM     32  C   UNL     1       0.932  -2.478  -2.225  0.00  0.00    +0.002 C 
ATOM     33  C   UNL     1       1.029  -2.229  -0.700  0.00  0.00    +0.002 C 
ATOM     34  C   UNL     1       2.318  -1.399  -0.534  0.00  0.00    +0.025 C 
ENDBRANCH  26  30
BRANCH  28  35
ATOM     35  C   UNL     1       1.091   3.906  -0.743  0.00  0.00    +0.103 C 
ATOM     36  N   UNL     1       0.465   4.783  -0.383  0.00  0.00    -0.191 NA
ENDBRANCH  28  35
ENDBRANCH  19  27
ENDBRANCH  18  20
ENDBRANCH   1  18
BRANCH   1  37
ATOM     37  C   UNL     1      -3.211   3.143  -0.114  0.00  0.00    +0.109 C 
BRANCH  37  38
ATOM     38  C   UNL     1      -4.215   4.144  -0.690  0.00  0.00    +0.000 C 
ATOM     39  C   UNL     1      -4.297   5.367   0.226  0.00  0.00    +0.009 C 
ATOM     40  C   UNL     1      -3.758   4.580  -2.083  0.00  0.00    +0.009 C 
ENDBRANCH  37  38
ENDBRANCH   1  37
TORSDOF 11
