REMARK  Name = ZINC64291076
REMARK  10 active torsions:
REMARK  status: ('A' for Active; 'I' for Inactive)
REMARK    1  A    between atoms: C_1  and  C_2
REMARK    2  A    between atoms: C_2  and  C_3
REMARK    3  A    between atoms: C_3  and  C_4
REMARK    4  A    between atoms: C_4  and  C_5
REMARK    5  A    between atoms: C_4  and  N_24
REMARK    6  A    between atoms: N_7  and  C_8
REMARK    7  A    between atoms: C_11  and  O_15
REMARK    8  A    between atoms: C_13  and  C_14
REMARK    9  A    between atoms: O_15  and  C_16
REMARK   10  A    between atoms: C_17  and  C_22
REMARK                            x       y       z     vdW  Elec       q    Type
REMARK                         _______ _______ _______ _____ _____    ______ ____
ROOT
ATOM      1  C   UNL     1      -4.708  -3.197  -1.378  0.00  0.00    +0.037 A 
ATOM      2  C   UNL     1      -5.343  -3.618  -0.217  0.00  0.00    +0.027 A 
ATOM      3  C   UNL     1      -6.599  -4.186  -0.285  0.00  0.00    +0.048 A 
ATOM      4  C   UNL     1      -7.228  -4.336  -1.513  0.00  0.00    +0.131 A 
ATOM      5  C   UNL     1      -6.594  -3.915  -2.673  0.00  0.00    +0.051 A 
ATOM      6  C   UNL     1      -5.339  -3.341  -2.606  0.00  0.00    -0.026 A 
ATOM      7  C   UNL     1      -4.654  -2.878  -3.865  0.00  0.00    +0.046 C 
ENDROOT
BRANCH   1  10
ATOM      8  C   UNL     1      -3.026  -2.018  -0.174  0.00  0.00    +0.238 C 
ATOM      9  O   UNL     1      -3.796  -1.888   0.754  0.00  0.00    -0.273 OA
ATOM     10  N   UNL     1      -3.433  -2.620  -1.309  0.00  0.00    -0.284 N 
ATOM     11  H   UNL     1      -2.844  -2.653  -2.079  0.00  0.00    +0.155 HD
BRANCH   8  12
ATOM     12  C   UNL     1      -1.613  -1.508  -0.057  0.00  0.00    +0.161 C 
BRANCH  12  13
ATOM     13  N   UNL     1      -1.268  -1.346   1.358  0.00  0.00    -0.288 N 
ATOM     14  C   UNL     1      -1.982  -0.507   2.134  0.00  0.00    +0.298 C 
ATOM     15  O   UNL     1      -2.913   0.115   1.660  0.00  0.00    -0.253 OA
ATOM     16  N   UNL     1      -1.665  -0.358   3.435  0.00  0.00    -0.313 N 
ATOM     17  H   UNL     1      -0.525  -1.843   1.736  0.00  0.00    +0.151 HD
ATOM     18  H   UNL     1      -0.922  -0.854   3.813  0.00  0.00    +0.146 HD
ATOM     19  H   UNL     1      -2.179   0.246   3.994  0.00  0.00    +0.146 HD
ENDBRANCH  12  13
BRANCH  12  20
ATOM     20  C   UNL     1      -1.497  -0.159  -0.768  0.00  0.00    +0.031 C 
BRANCH  20  22
ATOM     21  C   UNL     1       0.078   1.650  -1.468  0.00  0.00    +0.004 C 
ATOM     22  C   UNL     1      -0.037   0.300  -0.757  0.00  0.00    -0.001 C 
ENDBRANCH  20  22
ENDBRANCH  12  20
ENDBRANCH   8  12
ENDBRANCH   1  10
BRANCH   4  23
ATOM     23  O   UNL     1      -8.465  -4.896  -1.580  0.00  0.00    -0.437 OA
BRANCH  23  24
ATOM     24  C   UNL     1      -9.523  -4.148  -1.187  0.00  0.00    +0.238 A 
ATOM     25  C   UNL     1     -10.826  -4.652  -1.332  0.00  0.00    +0.114 A 
ATOM     26  C   UNL     1     -11.904  -3.861  -0.919  0.00  0.00    +0.026 A 
ATOM     27  C   UNL     1     -11.637  -2.614  -0.383  0.00  0.00    +0.021 A 
ATOM     28  C   UNL     1     -10.326  -2.188  -0.272  0.00  0.00    +0.115 A 
ATOM     29  N   UNL     1      -9.324  -2.951  -0.663  0.00  0.00    -0.220 NA
BRANCH  25  30
ATOM     30  C   UNL     1     -11.047  -5.950  -1.894  0.00  0.00    +0.105 C 
ATOM     31  N   UNL     1     -11.222  -6.980  -2.340  0.00  0.00    -0.191 NA
ENDBRANCH  25  30
ENDBRANCH  23  24
ENDBRANCH   4  23
TORSDOF 8
