REMARK  Name = ZINC36869325
REMARK  6 active torsions:
REMARK  status: ('A' for Active; 'I' for Inactive)
REMARK    1  A    between atoms: C_1  and  C_2
REMARK    2  A    between atoms: C_2  and  N_3
REMARK    3  A    between atoms: C_5  and  N_20
REMARK    4  A    between atoms: C_7  and  C_8
REMARK    5  A    between atoms: N_10  and  C_11
REMARK    6  A    between atoms: N_10  and  C_12
REMARK                            x       y       z     vdW  Elec       q    Type
REMARK                         _______ _______ _______ _____ _____    ______ ____
ROOT
ATOM      1  C   UNL     1      -1.696  -0.466  -2.253  0.00  0.00    +0.263 C 
ATOM      2  O   UNL     1      -2.476  -0.530  -3.185  0.00  0.00    -0.268 OA
ATOM      3  N   UNL     1      -0.507   0.148  -2.410  0.00  0.00    -0.295 N 
ATOM      4  C   UNL     1       0.382   0.330  -1.260  0.00  0.00    +0.132 C 
ENDROOT
BRANCH   3   5
ATOM      5  C   UNL     1      -0.102   0.633  -3.732  0.00  0.00    +0.098 C 
ATOM      6  C   UNL     1       0.135   2.151  -3.668  0.00  0.00    +0.046 C 
ATOM      7  C   UNL     1       0.856   2.584  -4.976  0.00  0.00    +0.168 C 
ATOM      8  S   UNL     1       2.046   1.192  -5.182  0.00  0.00    -0.029 S 
ATOM      9  O   UNL     1       2.044   0.779  -6.542  0.00  0.00    -0.174 OA
ATOM     10  O   UNL     1       3.275   1.538  -4.558  0.00  0.00    -0.174 OA
ATOM     11  C   UNL     1       1.198  -0.085  -4.167  0.00  0.00    +0.188 C 
ENDBRANCH   3   5
BRANCH   1  16
ATOM     12  N   UNL     1      -3.273  -1.587  -0.616  0.00  0.00    -0.342 N 
ATOM     13  C   UNL     1      -3.208  -2.041   0.665  0.00  0.00    +0.109 A 
ATOM     14  C   UNL     1      -1.962  -1.801   1.150  0.00  0.00    +0.043 A 
ATOM     15  C   UNL     1      -1.221  -1.177   0.137  0.00  0.00    +0.055 A 
ATOM     16  C   UNL     1      -2.051  -1.056  -0.958  0.00  0.00    +0.106 A 
BRANCH  14  17
ATOM     17  N   UNL     1      -1.497  -2.123   2.439  0.00  0.00    -0.357 N 
ATOM     18  H   UNL     1      -2.089  -2.557   3.073  0.00  0.00    +0.142 HD
ATOM     19  H   UNL     1      -0.585  -1.911   2.693  0.00  0.00    +0.142 HD
ENDBRANCH  14  17
BRANCH  12  21
ATOM     20  C   UNL     1      -4.367  -2.920  -2.350  0.00  0.00    +0.027 C 
ATOM     21  C   UNL     1      -4.448  -1.659  -1.488  0.00  0.00    +0.118 C 
ENDBRANCH  12  21
ENDBRANCH   1  16
TORSDOF 4
