REMARK  Name = ZINC36643869
REMARK  10 active torsions:
REMARK  status: ('A' for Active; 'I' for Inactive)
REMARK    1  A    between atoms: C_1  and  C_2
REMARK    2  A    between atoms: C_5  and  C_9
REMARK    3  A    between atoms: C_6  and  C_8
REMARK    4  A    between atoms: N_11  and  C_12
REMARK    5  A    between atoms: C_14  and  S_19
REMARK    6  A    between atoms: C_17  and  O_18
REMARK    7  A    between atoms: S_19  and  N_22
REMARK    8  A    between atoms: N_22  and  C_23
REMARK    9  A    between atoms: C_28  and  O_29
REMARK   10  A    between atoms: O_29  and  C_30
REMARK                            x       y       z     vdW  Elec       q    Type
REMARK                         _______ _______ _______ _____ _____    ______ ____
ROOT
ATOM      1  C   UNL     1       1.943  -6.752  -3.484  0.00  0.00    +0.077 A 
ATOM      2  C   UNL     1       1.551  -7.473  -2.365  0.00  0.00    +0.055 A 
ATOM      3  C   UNL     1       1.488  -8.852  -2.420  0.00  0.00    +0.110 A 
ATOM      4  C   UNL     1       1.815  -9.517  -3.588  0.00  0.00    +0.032 A 
ATOM      5  C   UNL     1       2.206  -8.805  -4.707  0.00  0.00    +0.049 A 
ATOM      6  C   UNL     1       2.266  -7.422  -4.662  0.00  0.00    +0.138 A 
ENDROOT
BRANCH   1   9
ATOM      7  C   UNL     1       2.146  -4.730  -2.244  0.00  0.00    +0.249 C 
ATOM      8  O   UNL     1       2.315  -5.381  -1.231  0.00  0.00    -0.270 OA
ATOM      9  N   UNL     1       2.007  -5.354  -3.431  0.00  0.00    -0.279 N 
ATOM     10  H   UNL     1       1.952  -4.835  -4.248  0.00  0.00    +0.155 HD
BRANCH   7  15
ATOM     11  C   UNL     1       1.938   1.014  -1.971  0.00  0.00    +0.044 C 
ATOM     12  C   UNL     1       1.993  -0.490  -2.042  0.00  0.00    -0.050 A 
ATOM     13  C   UNL     1       1.970  -1.123  -3.273  0.00  0.00    +0.004 A 
ATOM     14  C   UNL     1       2.019  -2.499  -3.346  0.00  0.00    +0.013 A 
ATOM     15  C   UNL     1       2.093  -3.255  -2.174  0.00  0.00    +0.040 A 
ATOM     16  C   UNL     1       2.116  -2.611  -0.936  0.00  0.00    -0.038 A 
ATOM     17  C   UNL     1       2.072  -1.233  -0.878  0.00  0.00    +0.007 A 
ATOM     18  C   UNL     1       2.195  -3.418   0.334  0.00  0.00    +0.044 C 
ENDBRANCH   7  15
ENDBRANCH   1   9
BRANCH   3  19
ATOM     19  S   UNL     1       0.991  -9.767  -0.998  0.00  0.00    +0.073 S 
ATOM     20  O   UNL     1       1.538 -11.070  -1.142  0.00  0.00    -0.150 OA
ATOM     21  O   UNL     1       1.264  -8.946   0.129  0.00  0.00    -0.150 OA
BRANCH  19  22
ATOM     22  N   UNL     1      -0.655  -9.934  -1.075  0.00  0.00    -0.213 N 
ATOM     23  H   UNL     1      -1.211  -9.593  -0.356  0.00  0.00    +0.174 HD
BRANCH  22  24
ATOM     24  C   UNL     1      -1.244 -10.565  -2.176  0.00  0.00    +0.090 A 
ATOM     25  C   UNL     1      -0.605 -11.632  -2.790  0.00  0.00    +0.028 A 
ATOM     26  C   UNL     1      -1.189 -12.255  -3.877  0.00  0.00    +0.002 A 
ATOM     27  C   UNL     1      -2.410 -11.816  -4.355  0.00  0.00    +0.004 A 
ATOM     28  C   UNL     1      -3.053 -10.753  -3.748  0.00  0.00    +0.047 A 
ATOM     29  C   UNL     1      -2.477 -10.127  -2.655  0.00  0.00    +0.142 A 
BRANCH  29  30
ATOM     30  O   UNL     1      -3.111  -9.085  -2.054  0.00  0.00    -0.493 OA
ATOM     31  C   UNL     1      -4.371  -8.690  -2.599  0.00  0.00    +0.277 C 
ENDBRANCH  29  30
ENDBRANCH  22  24
ENDBRANCH  19  22
ENDBRANCH   3  19
BRANCH   6  32
ATOM     32  O   UNL     1       2.645  -6.720  -5.763  0.00  0.00    -0.505 OA
ATOM     33  H   UNL     1       3.598  -6.565  -5.822  0.00  0.00    +0.292 HD
ENDBRANCH   6  32
TORSDOF 7
