REMARK  Name = ZINC00931608
REMARK  13 active torsions:
REMARK  status: ('A' for Active; 'I' for Inactive)
REMARK    1  A    between atoms: C_1  and  C_2
REMARK    2  A    between atoms: C_2  and  C_3
REMARK    3  A    between atoms: C_3  and  C_4
REMARK    4  A    between atoms: C_5  and  C_29
REMARK    5  A    between atoms: C_6  and  C_14
REMARK    6  A    between atoms: C_8  and  C_12
REMARK    7  A    between atoms: C_9  and  N_11
REMARK    8  A    between atoms: C_18  and  O_26
REMARK    9  A    between atoms: O_26  and  C_27
REMARK   10  A    between atoms: C_27  and  C_28
REMARK   11  A    between atoms: C_29  and  O_31
REMARK   12  A    between atoms: O_31  and  C_32
REMARK   13  A    between atoms: C_32  and  C_33
REMARK                            x       y       z     vdW  Elec       q    Type
REMARK                         _______ _______ _______ _____ _____    ______ ____
ROOT
ATOM      1  C   UNL     1      -0.127   4.112  -0.462  0.00  0.00    +0.118 C 
ATOM      2  C   UNL     1       1.063   3.499  -0.496  0.00  0.00    +0.087 C 
ATOM      3  C   UNL     1       1.229   2.093   0.014  0.00  0.00    +0.110 C 
ATOM      4  C   UNL     1      -0.119   1.436   0.141  0.00  0.00    +0.098 C 
ATOM      5  C   UNL     1      -1.254   2.177   0.132  0.00  0.00    +0.198 C 
ATOM      6  O   UNL     1      -1.225   3.516   0.024  0.00  0.00    -0.445 OA
ENDROOT
BRANCH   3   7
ATOM      7  C   UNL     1       1.899   2.127   1.363  0.00  0.00    +0.030 A 
ATOM      8  C   UNL     1       3.087   1.499   1.544  0.00  0.00    +0.020 A 
ATOM      9  C   UNL     1       3.715   1.555   2.865  0.00  0.00    +0.002 A 
ATOM     10  C   UNL     1       4.943   0.930   3.107  0.00  0.00    +0.055 A 
ATOM     11  C   UNL     1       5.505   0.998   4.366  0.00  0.00    +0.121 A 
ATOM     12  C   UNL     1       4.855   1.683   5.390  0.00  0.00    +0.047 A 
ATOM     13  C   UNL     1       3.646   2.302   5.164  0.00  0.00    +0.030 A 
ATOM     14  C   UNL     1       3.062   2.247   3.902  0.00  0.00    +0.049 A 
ATOM     15  N   UNL     1       1.851   2.860   3.655  0.00  0.00    -0.322 N 
ATOM     16  H   UNL     1       1.388   3.351   4.393  0.00  0.00    +0.169 HD
ATOM     17  C   UNL     1       1.285   2.808   2.437  0.00  0.00    +0.253 A 
ATOM     18  O   UNL     1       0.215   3.361   2.255  0.00  0.00    -0.268 OA
BRANCH  11  19
ATOM     19  O   UNL     1       6.698   0.393   4.608  0.00  0.00    -0.492 OA
BRANCH  19  20
ATOM     20  C   UNL     1       7.224   0.501   5.933  0.00  0.00    +0.225 C 
ATOM     21  C   UNL     1       8.562  -0.237   6.012  0.00  0.00    +0.048 C 
ENDBRANCH  19  20
ENDBRANCH  11  19
ENDBRANCH   3   7
BRANCH   5  22
ATOM     22  N   UNL     1      -2.466   1.542   0.242  0.00  0.00    -0.328 N 
ATOM     23  H   UNL     1      -2.502   0.576   0.325  0.00  0.00    +0.145 HD
ATOM     24  H   UNL     1      -3.287   2.059   0.237  0.00  0.00    +0.145 HD
ENDBRANCH   5  22
BRANCH   4  25
ATOM     25  C   UNL     1      -0.204   0.012   0.267  0.00  0.00    +0.101 C 
ATOM     26  N   UNL     1      -0.271  -1.117   0.367  0.00  0.00    -0.191 NA
ENDBRANCH   4  25
BRANCH   2  27
ATOM     27  C   UNL     1       2.186   4.185  -1.022  0.00  0.00    +0.339 C 
ATOM     28  O   UNL     1       2.562   3.957  -2.156  0.00  0.00    -0.245 OA
BRANCH  27  29
ATOM     29  O   UNL     1       2.837   5.092  -0.265  0.00  0.00    -0.462 OA
BRANCH  29  30
ATOM     30  C   UNL     1       3.960   5.747  -0.859  0.00  0.00    +0.229 C 
ATOM     31  C   UNL     1       4.565   6.732   0.143  0.00  0.00    +0.048 C 
ENDBRANCH  29  30
ENDBRANCH  27  29
ENDBRANCH   2  27
BRANCH   1  32
ATOM     32  C   UNL     1      -0.235   5.520  -0.989  0.00  0.00    +0.075 C 
BRANCH  32  34
ATOM     33  C   UNL     1      -0.755   6.912  -2.997  0.00  0.00    +0.004 C 
ATOM     34  C   UNL     1      -0.645   5.483  -2.462  0.00  0.00    +0.004 C 
ENDBRANCH  32  34
ENDBRANCH   1  32
TORSDOF 10
