REMARK  Name = ZINC15520153
REMARK  4 active torsions:
REMARK  status: ('A' for Active; 'I' for Inactive)
REMARK    1  A    between atoms: C_4  and  S_8
REMARK    2  A    between atoms: S_8  and  N_11
REMARK    3  A    between atoms: N_11  and  N_12
REMARK    4  A    between atoms: C_13  and  C_15
REMARK                            x       y       z     vdW  Elec       q    Type
REMARK                         _______ _______ _______ _____ _____    ______ ____
ROOT
ATOM      1  N   UNL     1      -0.929   3.816  -1.635  0.00  0.00    -0.227 N 
ATOM      2  C   UNL     1      -1.839   4.709  -2.071  0.00  0.00    +0.265 C 
ATOM      3  O   UNL     1      -1.508   5.862  -2.278  0.00  0.00    -0.268 OA
ATOM      4  H   UNL     1      -1.192   2.897  -1.470  0.00  0.00    +0.171 HD
ENDROOT
BRANCH   2   5
ATOM      5  C   UNL     1      -3.226   4.293  -2.297  0.00  0.00    +0.076 A 
ATOM      6  C   UNL     1      -4.302   5.042  -2.738  0.00  0.00    +0.024 A 
ATOM      7  C   UNL     1      -5.529   4.405  -2.880  0.00  0.00    -0.036 A 
ATOM      8  C   UNL     1      -5.573   3.096  -2.543  0.00  0.00    -0.006 A 
ATOM      9  S   UNL     1      -3.967   2.682  -2.084  0.00  0.00    -0.088 S 
ATOM     10  C   UNL     1      -6.791   2.200  -2.558  0.00  0.00    +0.043 C 
ATOM     11  C   UNL     1      -7.191   2.001  -4.030  0.00  0.00    +0.005 C 
ATOM     12  C   UNL     1      -7.943   3.209  -4.537  0.00  0.00    +0.001 C 
ATOM     13  C   UNL     1      -7.132   4.460  -4.755  0.00  0.00    +0.005 C 
ATOM     14  C   UNL     1      -6.755   5.138  -3.437  0.00  0.00    +0.036 C 
ENDBRANCH   2   5
BRANCH   1  15
ATOM     15  N   UNL     1       0.397   4.214  -1.419  0.00  0.00    -0.108 NA
ATOM     16  H   UNL     1       0.900   4.632  -2.134  0.00  0.00    +0.172 HD
BRANCH  15  17
ATOM     17  S   UNL     1       1.104   3.971   0.059  0.00  0.00    +0.075 S 
ATOM     18  O   UNL     1       2.384   4.586   0.003  0.00  0.00    -0.152 OA
ATOM     19  O   UNL     1       0.932   2.595   0.370  0.00  0.00    -0.152 OA
BRANCH  17  23
ATOM     20  C   UNL     1      -1.316   6.299   3.098  0.00  0.00    +0.021 A 
ATOM     21  C   UNL     1      -0.635   6.968   2.098  0.00  0.00    +0.023 A 
ATOM     22  C   UNL     1       0.104   6.257   1.170  0.00  0.00    +0.067 A 
ATOM     23  C   UNL     1       0.163   4.877   1.242  0.00  0.00    +0.126 A 
ATOM     24  C   UNL     1      -0.518   4.208   2.242  0.00  0.00    +0.050 A 
ATOM     25  C   UNL     1      -1.257   4.918   3.170  0.00  0.00    +0.043 A 
ATOM     26 CL   UNL     1      -2.111   4.078   4.427  0.00  0.00    -0.083 Cl
ATOM     27 CL   UNL     1       0.953   7.097  -0.090  0.00  0.00    -0.082 Cl
ENDBRANCH  17  23
ENDBRANCH  15  17
ENDBRANCH   1  15
TORSDOF 4
