REMARK  Name = ZINC08610051
REMARK  8 active torsions:
REMARK  status: ('A' for Active; 'I' for Inactive)
REMARK    1  A    between atoms: C_1  and  C_2
REMARK    2  A    between atoms: C_2  and  O_3
REMARK    3  A    between atoms: O_3  and  C_4
REMARK    4  A    between atoms: C_9  and  N_10
REMARK    5  A    between atoms: C_11  and  C_13
REMARK    6  A    between atoms: C_14  and  C_29
REMARK    7  A    between atoms: C_21  and  C_23
REMARK    8  A    between atoms: C_24  and  C_28
REMARK                            x       y       z     vdW  Elec       q    Type
REMARK                         _______ _______ _______ _____ _____    ______ ____
ROOT
ATOM      1  C   UNL     1       3.152  -1.267  -5.605  0.00  0.00    +0.061 C 
ATOM      2  C   UNL     1       3.687  -1.893  -6.663  0.00  0.00    +0.018 C 
ATOM      3  N   UNL     1       4.244  -1.207  -7.715  0.00  0.00    -0.287 N 
ATOM      4  C   UNL     1       4.009   0.160  -7.782  0.00  0.00    +0.218 A 
ATOM      5  N   UNL     1       4.219   1.003  -8.755  0.00  0.00    -0.201 NA
ATOM      6  C   UNL     1       3.836   2.227  -8.377  0.00  0.00    +0.247 A 
ATOM      7  N   UNL     1       3.376   2.175  -7.151  0.00  0.00    -0.156 NA
ATOM      8  N   UNL     1       3.480   0.847  -6.739  0.00  0.00    -0.220 N 
ATOM      9  C   UNL     1       3.118   0.232  -5.467  0.00  0.00    +0.184 C 
ATOM     10  C   UNL     1       3.676  -3.399  -6.700  0.00  0.00    +0.061 C 
ATOM     11  H   UNL     1       4.781  -1.660  -8.384  0.00  0.00    +0.155 HD
ENDROOT
BRANCH   9  12
ATOM     12  C   UNL     1       4.101   0.662  -4.409  0.00  0.00    +0.022 A 
ATOM     13  C   UNL     1       3.871   1.330  -3.252  0.00  0.00    -0.038 A 
ATOM     14  C   UNL     1       4.939   1.620  -2.423  0.00  0.00    +0.011 A 
ATOM     15  C   UNL     1       6.183   1.228  -2.791  0.00  0.00    +0.046 A 
ATOM     16  S   UNL     1       5.868   0.416  -4.349  0.00  0.00    -0.099 S 
ATOM     17  C   UNL     1       2.474   1.750  -2.875  0.00  0.00    +0.044 C 
ENDBRANCH   9  12
BRANCH   1  19
ATOM     18  N   UNL     1       3.375  -2.547  -3.596  0.00  0.00    -0.279 N 
ATOM     19  C   UNL     1       2.588  -2.052  -4.572  0.00  0.00    +0.248 C 
ATOM     20  O   UNL     1       1.392  -2.281  -4.564  0.00  0.00    -0.270 OA
ATOM     21  H   UNL     1       4.312  -2.299  -3.555  0.00  0.00    +0.155 HD
BRANCH  18  27
ATOM     22  C   UNL     1       3.439  -3.535  -1.387  0.00  0.00    +0.142 A 
ATOM     23  C   UNL     1       2.902  -4.396  -0.444  0.00  0.00    +0.047 A 
ATOM     24  C   UNL     1       1.778  -5.142  -0.748  0.00  0.00    +0.004 A 
ATOM     25  C   UNL     1       1.187  -5.031  -1.992  0.00  0.00    +0.002 A 
ATOM     26  C   UNL     1       1.716  -4.175  -2.939  0.00  0.00    +0.027 A 
ATOM     27  C   UNL     1       2.840  -3.419  -2.640  0.00  0.00    +0.076 A 
BRANCH  22  28
ATOM     28  O   UNL     1       4.544  -2.801  -1.089  0.00  0.00    -0.490 OA
BRANCH  28  30
ATOM     29  C   UNL     1       6.331  -2.070   0.364  0.00  0.00    +0.048 C 
ATOM     30  C   UNL     1       5.104  -2.971   0.214  0.00  0.00    +0.226 C 
ENDBRANCH  28  30
ENDBRANCH  22  28
ENDBRANCH  18  27
ENDBRANCH   1  19
TORSDOF 5
