REMARK  Name = ZINC14157367
REMARK  7 active torsions:
REMARK  status: ('A' for Active; 'I' for Inactive)
REMARK    1  A    between atoms: C_1  and  C_2
REMARK    2  A    between atoms: C_5  and  N_8
REMARK    3  A    between atoms: C_9  and  N_11
REMARK    4  A    between atoms: N_13  and  C_14
REMARK    5  A    between atoms: C_14  and  C_15
REMARK    6  A    between atoms: C_23  and  C_28
REMARK    7  A    between atoms: C_25  and  C_27
REMARK                            x       y       z     vdW  Elec       q    Type
REMARK                         _______ _______ _______ _____ _____    ______ ____
ROOT
ATOM      1  N   UNL     1       3.167   5.426   1.823  0.00  0.00    -0.129 NA
ATOM      2  C   UNL     1       3.737   6.187   0.903  0.00  0.00    +0.198 C 
ATOM      3  N   UNL     1       4.700   5.667   0.090  0.00  0.00    -0.350 N 
ATOM      4  N   UNL     1       3.360   7.495   0.768  0.00  0.00    -0.297 N 
ATOM      5  C   UNL     1       3.886   8.267  -0.259  0.00  0.00    +0.231 A 
ATOM      6  N   UNL     1       4.666   7.694  -1.163  0.00  0.00    -0.217 NA
ATOM      7  C   UNL     1       5.180   8.399  -2.158  0.00  0.00    +0.044 A 
ATOM      8  C   UNL     1       4.902   9.754  -2.240  0.00  0.00    +0.046 A 
ATOM      9  C   UNL     1       4.086  10.322  -1.274  0.00  0.00    +0.044 A 
ATOM     10  N   UNL     1       3.601   9.559  -0.308  0.00  0.00    -0.217 NA
ATOM     11  C   UNL     1       3.755  11.792  -1.323  0.00  0.00    +0.066 C 
ATOM     12  C   UNL     1       6.061   7.737  -3.186  0.00  0.00    +0.066 C 
ATOM     13  H   UNL     1       5.337   6.255  -0.345  0.00  0.00    +0.163 HD
ATOM     14  H   UNL     1       2.725   7.884   1.391  0.00  0.00    +0.171 HD
ENDROOT
BRANCH   1  16
ATOM     15  N   UNL     1       2.159   3.419   2.437  0.00  0.00    -0.268 N 
ATOM     16  C   UNL     1       2.666   4.229   1.486  0.00  0.00    +0.330 C 
ATOM     17  O   UNL     1       2.668   3.874   0.321  0.00  0.00    -0.250 OA
ATOM     18  H   UNL     1       2.086   3.732   3.352  0.00  0.00    +0.156 HD
BRANCH  15  23
ATOM     19  C   UNL     1       0.458  -1.821   1.085  0.00  0.00    +0.044 C 
ATOM     20  C   UNL     1       0.910  -0.429   1.444  0.00  0.00    -0.050 A 
ATOM     21  C   UNL     1       1.903   0.186   0.704  0.00  0.00    +0.005 A 
ATOM     22  C   UNL     1       2.319   1.462   1.031  0.00  0.00    +0.023 A 
ATOM     23  C   UNL     1       1.740   2.127   2.103  0.00  0.00    +0.035 A 
ATOM     24  C   UNL     1       0.742   1.506   2.844  0.00  0.00    +0.023 A 
ATOM     25  C   UNL     1       0.331   0.230   2.513  0.00  0.00    +0.005 A 
ENDBRANCH  15  23
ENDBRANCH   1  16
BRANCH   3  26
ATOM     26  C   UNL     1       4.773   4.220  -0.128  0.00  0.00    +0.190 C 
BRANCH  26  27
ATOM     27  C   UNL     1       6.213   3.777  -0.084  0.00  0.00    +0.124 A 
ATOM     28  C   UNL     1       6.881   3.381   1.014  0.00  0.00    +0.046 A 
ATOM     29  C   UNL     1       8.194   3.058   0.600  0.00  0.00    +0.041 A 
ATOM     30  C   UNL     1       8.250   3.276  -0.726  0.00  0.00    +0.195 A 
ATOM     31  O   UNL     1       7.045   3.707  -1.136  0.00  0.00    -0.466 OA
ENDBRANCH  26  27
ENDBRANCH   3  26
TORSDOF 4
