REMARK  Name = ZINC13562917
REMARK  6 active torsions:
REMARK  status: ('A' for Active; 'I' for Inactive)
REMARK    1  A    between atoms: C_1  and  C_2
REMARK    2  A    between atoms: C_2  and  C_16
REMARK    3  A    between atoms: N_3  and  N_4
REMARK    4  A    between atoms: C_5  and  C_7
REMARK    5  A    between atoms: N_17  and  N_18
REMARK    6  A    between atoms: C_19  and  C_21
REMARK                            x       y       z     vdW  Elec       q    Type
REMARK                         _______ _______ _______ _____ _____    ______ ____
ROOT
ATOM      1  C   UNL     1      -0.715   1.441   0.020  0.00  0.00    +0.069 C 
ATOM      2  C   UNL     1      -0.317  -0.012   0.001  0.00  0.00    +0.076 C 
ATOM      3  N   UNL     1      -0.133  -0.652   1.120  0.00  0.00    -0.183 NA
ENDROOT
BRANCH   3   4
ATOM      4  N   UNL     1       0.349  -1.967   1.103  0.00  0.00    -0.200 N 
ATOM      5  C   UNL     1       0.634  -2.595   2.261  0.00  0.00    +0.299 C 
ATOM      6  O   UNL     1       0.387  -2.054   3.323  0.00  0.00    -0.265 OA
ATOM      7  H   UNL     1       0.478  -2.426   0.258  0.00  0.00    +0.178 HD
BRANCH   5   8
ATOM      8  C   UNL     1       1.242  -3.932   2.242  0.00  0.00    +0.192 A 
ATOM      9  C   UNL     1       1.480  -4.699   3.338  0.00  0.00    +0.063 A 
ATOM     10  C   UNL     1       2.089  -5.933   2.844  0.00  0.00    +0.021 A 
ATOM     11  C   UNL     1       2.557  -7.100   3.454  0.00  0.00    +0.011 A 
ATOM     12  C   UNL     1       3.087  -8.099   2.687  0.00  0.00    +0.001 A 
ATOM     13  C   UNL     1       3.163  -7.962   1.308  0.00  0.00    +0.004 A 
ATOM     14  C   UNL     1       2.707  -6.819   0.687  0.00  0.00    +0.047 A 
ATOM     15  C   UNL     1       2.163  -5.789   1.446  0.00  0.00    +0.136 A 
ATOM     16  O   UNL     1       1.644  -4.587   1.132  0.00  0.00    -0.450 OA
ENDBRANCH   5   8
ENDBRANCH   3   4
BRANCH   2  17
ATOM     17  C   UNL     1      -0.138  -0.704  -1.275  0.00  0.00    +0.155 C 
ATOM     18  N   UNL     1      -0.152  -0.029  -2.389  0.00  0.00    -0.186 NA
BRANCH  18  19
ATOM     19  N   UNL     1       0.051   1.357  -2.371  0.00  0.00    -0.200 N 
ATOM     20  C   UNL     1      -0.078   2.071  -3.506  0.00  0.00    +0.299 C 
ATOM     21  O   UNL     1      -0.460   1.529  -4.527  0.00  0.00    -0.265 OA
ATOM     22  H   UNL     1       0.285   1.802  -1.542  0.00  0.00    +0.178 HD
BRANCH  20  23
ATOM     23  C   UNL     1       0.241   3.505  -3.512  0.00  0.00    +0.192 A 
ATOM     24  C   UNL     1       0.055   4.344  -4.565  0.00  0.00    +0.063 A 
ATOM     25  C   UNL     1       0.508   5.660  -4.120  0.00  0.00    +0.021 A 
ATOM     26  C   UNL     1       0.578   6.920  -4.719  0.00  0.00    +0.011 A 
ATOM     27  C   UNL     1       1.068   7.981  -4.010  0.00  0.00    +0.001 A 
ATOM     28  C   UNL     1       1.496   7.814  -2.700  0.00  0.00    +0.004 A 
ATOM     29  C   UNL     1       1.436   6.580  -2.091  0.00  0.00    +0.047 A 
ATOM     30  C   UNL     1       0.941   5.486  -2.792  0.00  0.00    +0.136 A 
ATOM     31  O   UNL     1       0.758   4.190  -2.471  0.00  0.00    -0.450 OA
ENDBRANCH  20  23
ENDBRANCH  18  19
ENDBRANCH   2  17
TORSDOF 5
