REMARK  Name = ZINC36358031
REMARK  4 active torsions:
REMARK  status: ('A' for Active; 'I' for Inactive)
REMARK    1  A    between atoms: C_5  and  N_7
REMARK    2  A    between atoms: C_13  and  O_24
REMARK    3  A    between atoms: C_15  and  C_17
REMARK    4  A    between atoms: C_21  and  O_23
REMARK                            x       y       z     vdW  Elec       q    Type
REMARK                         _______ _______ _______ _____ _____    ______ ____
ROOT
ATOM      1  N   UNL     1       1.236  -2.083  -0.021  0.00  0.00    -0.282 N 
ATOM      2  C   UNL     1       0.781  -2.899  -1.017  0.00  0.00    +0.206 A 
ATOM      3  N   UNL     1       0.973  -4.146  -0.665  0.00  0.00    -0.237 NA
ATOM      4  C   UNL     1       1.542  -4.185   0.533  0.00  0.00    +0.094 A 
ATOM      5  C   UNL     1       1.722  -2.894   0.962  0.00  0.00    +0.165 A 
ATOM      6  N   UNL     1       2.285  -2.608   2.171  0.00  0.00    -0.197 NA
ATOM      7  C   UNL     1       2.951  -3.537   2.791  0.00  0.00    +0.190 C 
ATOM      8  C   UNL     1       3.169  -4.910   2.226  0.00  0.00    +0.110 C 
ATOM      9  C   UNL     1       1.972  -5.361   1.373  0.00  0.00    +0.080 C 
ENDROOT
BRANCH   1  14
ATOM     10  C   UNL     1      -0.017   1.377   0.010  0.00  0.00    +0.002 A 
ATOM     11  C   UNL     1       1.170   2.087   0.002  0.00  0.00    +0.002 A 
ATOM     12  C   UNL     1       2.380   1.417  -0.013  0.00  0.00    +0.022 A 
ATOM     13  C   UNL     1       2.405   0.034  -0.021  0.00  0.00    +0.065 A 
ATOM     14  C   UNL     1       1.214  -0.681  -0.013  0.00  0.00    +0.068 A 
ATOM     15  C   UNL     1       0.002  -0.004   0.002  0.00  0.00    +0.028 A 
ATOM     16 CL   UNL     1       3.924  -0.807  -0.041  0.00  0.00    -0.081 Cl
ENDBRANCH   1  14
BRANCH   9  17
ATOM     17  C   UNL     1       0.834  -5.800   2.258  0.00  0.00    -0.034 A 
ATOM     18  C   UNL     1       0.289  -4.917   3.172  0.00  0.00    +0.004 A 
ATOM     19  C   UNL     1      -0.755  -5.317   3.985  0.00  0.00    +0.004 A 
ATOM     20  C   UNL     1      -1.257  -6.600   3.886  0.00  0.00    +0.045 A 
ATOM     21  C   UNL     1      -0.713  -7.488   2.970  0.00  0.00    +0.117 A 
ATOM     22  C   UNL     1       0.332  -7.082   2.151  0.00  0.00    +0.049 A 
BRANCH  21  23
ATOM     23  O   UNL     1      -1.204  -8.751   2.870  0.00  0.00    -0.507 OA
ATOM     24  H   UNL     1      -1.926  -8.843   2.233  0.00  0.00    +0.292 HD
ENDBRANCH  21  23
ENDBRANCH   9  17
BRANCH   7  25
ATOM     25  O   UNL     1       3.474  -3.252   4.002  0.00  0.00    -0.495 OA
ATOM     26  H   UNL     1       3.296  -2.351   4.304  0.00  0.00    +0.293 HD
ENDBRANCH   7  25
TORSDOF 4
