REMARK  Name = ZINC38588007
REMARK  6 active torsions:
REMARK  status: ('A' for Active; 'I' for Inactive)
REMARK    1  A    between atoms: C_1  and  C_2
REMARK    2  A    between atoms: C_5  and  C_7
REMARK    3  A    between atoms: C_10  and  C_12
REMARK    4  A    between atoms: C_16  and  C_21
REMARK    5  A    between atoms: C_21  and  C_22
REMARK    6  A    between atoms: C_21  and  C_23
REMARK                            x       y       z     vdW  Elec       q    Type
REMARK                         _______ _______ _______ _____ _____    ______ ____
ROOT
ATOM      1  C   UNL     1       4.936  -5.164  -0.042  0.00  0.00    +0.199 C 
ATOM      2  N   UNL     1       4.995  -6.489   0.632  0.00  0.00    -0.262 N 
ATOM      3  N   UNL     1       6.128  -6.718   1.354  0.00  0.00    -0.224 N 
ATOM      4  C   UNL     1       6.815  -7.814   1.846  0.00  0.00    +0.154 A 
ATOM      5  N   UNL     1       7.838  -7.377   2.519  0.00  0.00    -0.132 NA
ATOM      6  N   UNL     1       7.873  -6.091   2.486  0.00  0.00    -0.121 NA
ATOM      7  C   UNL     1       6.877  -5.652   1.782  0.00  0.00    +0.211 A 
ATOM      8  S   UNL     1       6.050  -4.230   1.096  0.00  0.00    -0.055 S 
ATOM      9  H   UNL     1       4.171  -6.646   1.193  0.00  0.00    +0.168 HD
ENDROOT
BRANCH   1  13
ATOM     10  C   UNL     1       1.633  -3.176  -0.023  0.00  0.00    +0.111 C 
ATOM     11  N   UNL     1       1.311  -4.445  -0.034  0.00  0.00    -0.150 NA
ATOM     12  N   UNL     1       2.432  -5.269  -0.042  0.00  0.00    -0.155 NA
ATOM     13  C   UNL     1       3.539  -4.600  -0.036  0.00  0.00    +0.079 C 
ATOM     14  C   UNL     1       3.149  -3.136  -0.030  0.00  0.00    +0.116 C 
BRANCH  10  19
ATOM     15  C   UNL     1      -0.018   1.503   0.010  0.00  0.00    +0.086 C 
ATOM     16  C   UNL     1       0.002  -0.004   0.002  0.00  0.00    +0.103 A 
ATOM     17  C   UNL     1      -1.087  -0.803   0.003  0.00  0.00    +0.045 A 
ATOM     18  C   UNL     1      -0.629  -2.130  -0.007  0.00  0.00    +0.051 A 
ATOM     19  C   UNL     1       0.749  -2.069  -0.013  0.00  0.00    +0.151 A 
ATOM     20  O   UNL     1       1.104  -0.767  -0.013  0.00  0.00    -0.459 OA
ENDBRANCH  10  19
ENDBRANCH   1  13
BRANCH   4  21
ATOM     21  C   UNL     1       6.443  -9.259   1.639  0.00  0.00    +0.052 C 
ATOM     22  C   UNL     1       7.584  -9.982   0.920  0.00  0.00    +0.015 C 
ATOM     23  C   UNL     1       6.194  -9.921   2.995  0.00  0.00    +0.015 C 
ENDBRANCH   4  21
TORSDOF 3
