REMARK  Name = ZINC39655938
REMARK  12 active torsions:
REMARK  status: ('A' for Active; 'I' for Inactive)
REMARK    1  A    between atoms: C_1  and  C_2
REMARK    2  A    between atoms: C_8  and  C_11
REMARK    3  A    between atoms: C_11  and  C_12
REMARK    4  A    between atoms: C_12  and  N_13
REMARK    5  A    between atoms: C_14  and  C_16
REMARK    6  A    between atoms: C_27  and  C_29
REMARK    7  A    between atoms: C_31  and  O_39
REMARK    8  A    between atoms: C_32  and  O_37
REMARK    9  A    between atoms: C_33  and  O_35
REMARK   10  A    between atoms: O_35  and  C_36
REMARK   11  A    between atoms: O_37  and  C_38
REMARK   12  A    between atoms: O_39  and  C_40
REMARK                            x       y       z     vdW  Elec       q    Type
REMARK                         _______ _______ _______ _____ _____    ______ ____
ROOT
ATOM      1  C   UNL     1       5.232   0.109  -7.689  0.00  0.00    +0.100 C 
ATOM      2  C   UNL     1       5.992   0.455  -6.389  0.00  0.00    +0.121 C 
ATOM      3  N   UNL     1       6.362  -0.858  -5.811  0.00  0.00    -0.296 N 
ATOM      4  C   UNL     1       6.745  -1.682  -6.983  0.00  0.00    +0.115 C 
ATOM      5  C   UNL     1       5.732  -1.292  -8.078  0.00  0.00    -0.004 C 
ATOM      6  C   UNL     1       6.417  -1.250  -9.440  0.00  0.00    -0.010 C 
ATOM      7  C   UNL     1       6.854  -2.665  -9.831  0.00  0.00    -0.082 C 
ATOM      8  N   UNL     1       5.680  -3.546  -9.878  0.00  0.00    +0.379 N 
ATOM      9  C   UNL     1       5.082  -3.654  -8.542  0.00  0.00    -0.082 C 
ATOM     10  C   UNL     1       4.571  -2.281  -8.097  0.00  0.00    -0.010 C 
ATOM     11  C   UNL     1       6.354  -1.222  -4.513  0.00  0.00    +0.247 C 
ATOM     12  O   UNL     1       5.893  -0.471  -3.675  0.00  0.00    -0.270 OA
ATOM     13  H   UNL     1       5.001  -3.165 -10.520  0.00  0.00    -0.086 HD
ATOM     14  H   UNL     1       5.961  -4.462 -10.195  0.00  0.00    -0.086 HD
ENDROOT
BRANCH  11  15
ATOM     15  C   UNL     1       6.904  -2.531  -4.110  0.00  0.00    +0.044 A 
ATOM     16  C   UNL     1       7.809  -3.196  -4.941  0.00  0.00    +0.062 A 
ATOM     17  C   UNL     1       8.323  -4.421  -4.560  0.00  0.00    +0.166 A 
ATOM     18  C   UNL     1       7.939  -4.993  -3.350  0.00  0.00    +0.204 A 
ATOM     19  C   UNL     1       7.036  -4.333  -2.521  0.00  0.00    +0.166 A 
ATOM     20  C   UNL     1       6.524  -3.104  -2.894  0.00  0.00    +0.062 A 
BRANCH  19  21
ATOM     21  O   UNL     1       6.662  -4.895  -1.340  0.00  0.00    -0.491 OA
ATOM     22  C   UNL     1       5.733  -4.162  -0.538  0.00  0.00    +0.277 C 
ENDBRANCH  19  21
BRANCH  18  23
ATOM     23  O   UNL     1       8.445  -6.199  -2.979  0.00  0.00    -0.488 OA
ATOM     24  C   UNL     1       9.654  -6.187  -2.217  0.00  0.00    +0.277 C 
ENDBRANCH  18  23
BRANCH  17  25
ATOM     25  O   UNL     1       9.204  -5.069  -5.368  0.00  0.00    -0.491 OA
ATOM     26  C   UNL     1       9.554  -4.425  -6.595  0.00  0.00    +0.277 C 
ENDBRANCH  17  25
ENDBRANCH  11  15
BRANCH   1  28
ATOM     27  N   UNL     1       2.888   0.283  -8.458  0.00  0.00    -0.315 N 
ATOM     28  C   UNL     1       3.747   0.085  -7.438  0.00  0.00    +0.218 C 
ATOM     29  O   UNL     1       3.324  -0.112  -6.319  0.00  0.00    -0.275 OA
ATOM     30  H   UNL     1       3.226   0.441  -9.353  0.00  0.00    +0.149 HD
BRANCH  27  31
ATOM     31  C   UNL     1       1.444   0.260  -8.214  0.00  0.00    +0.109 C 
BRANCH  31  32
ATOM     32  C   UNL     1       0.700   0.510  -9.528  0.00  0.00    +0.056 C 
BRANCH  32  40
ATOM     33  C   UNL     1      -2.075   5.194  -7.745  0.00  0.00    +0.044 C 
ATOM     34  C   UNL     1      -2.363   3.757  -8.095  0.00  0.00    -0.050 A 
ATOM     35  C   UNL     1      -3.660   3.273  -8.004  0.00  0.00    +0.005 A 
ATOM     36  C   UNL     1      -3.946   1.962  -8.319  0.00  0.00    +0.026 A 
ATOM     37  C   UNL     1      -2.924   1.113  -8.732  0.00  0.00    +0.047 A 
ATOM     38  N   UNL     1      -2.885  -0.211  -9.106  0.00  0.00    -0.360 N 
ATOM     39  C   UNL     1      -1.604  -0.567  -9.428  0.00  0.00    +0.087 A 
ATOM     40  C   UNL     1      -0.785   0.487  -9.277  0.00  0.00    -0.021 A 
ATOM     41  C   UNL     1      -1.610   1.609  -8.823  0.00  0.00    +0.003 A 
ATOM     42  C   UNL     1      -1.345   2.941  -8.504  0.00  0.00    +0.013 A 
ATOM     43  H   UNL     1      -3.653  -0.804  -9.137  0.00  0.00    +0.165 HD
ENDBRANCH  32  40
ENDBRANCH  31  32
ENDBRANCH  27  31
ENDBRANCH   1  28
TORSDOF 8
