REMARK  Name = ZINC36922880
REMARK  4 active torsions:
REMARK  status: ('A' for Active; 'I' for Inactive)
REMARK    1  A    between atoms: C_3  and  N_19
REMARK    2  A    between atoms: C_6  and  C_7
REMARK    3  A    between atoms: C_7  and  N_8
REMARK    4  A    between atoms: N_8  and  C_9
REMARK                            x       y       z     vdW  Elec       q    Type
REMARK                         _______ _______ _______ _____ _____    ______ ____
ROOT
ATOM      1  N   UNL     1      -1.725  -1.018  -1.368  0.00  0.00    -0.337 N 
ATOM      2  H   UNL     1      -1.176  -0.709  -2.106  0.00  0.00    +0.147 HD
ENDROOT
BRANCH   1   3
ATOM      3  C   UNL     1      -2.850  -1.808  -1.619  0.00  0.00    +0.073 A 
ATOM      4  C   UNL     1      -3.371  -1.870  -2.893  0.00  0.00    +0.064 A 
ATOM      5  C   UNL     1      -4.487  -2.642  -3.181  0.00  0.00    +0.023 A 
ATOM      6  C   UNL     1      -5.091  -3.367  -2.170  0.00  0.00    +0.019 A 
ATOM      7  C   UNL     1      -4.580  -3.313  -0.895  0.00  0.00    +0.041 A 
ATOM      8  C   UNL     1      -3.443  -2.544  -0.559  0.00  0.00    +0.100 A 
ATOM      9  N   UNL     1      -3.061  -2.601   0.734  0.00  0.00    -0.246 NA
ATOM     10  C   UNL     1      -3.689  -3.319   1.625  0.00  0.00    +0.157 A 
ATOM     11  S   UNL     1      -5.008  -4.048   0.665  0.00  0.00    -0.075 S 
ATOM     12 CL   UNL     1      -2.616  -0.961  -4.164  0.00  0.00    -0.082 Cl
ENDBRANCH   1   3
BRANCH   1  13
ATOM     13  C   UNL     1      -1.376  -0.656   0.008  0.00  0.00    +0.137 C 
BRANCH  13  19
ATOM     14  C   UNL     1      -0.447   1.667  -0.059  0.00  0.00    +0.007 A 
ATOM     15  C   UNL     1       0.618   2.549  -0.071  0.00  0.00    +0.033 A 
ATOM     16  C   UNL     1       1.913   2.070  -0.028  0.00  0.00    +0.126 A 
ATOM     17  C   UNL     1       2.144   0.708   0.026  0.00  0.00    +0.033 A 
ATOM     18  C   UNL     1       1.080  -0.174   0.039  0.00  0.00    +0.007 A 
ATOM     19  C   UNL     1      -0.216   0.306  -0.005  0.00  0.00    -0.030 A 
BRANCH  16  20
ATOM     20  N   UNL     1       3.053   3.014  -0.042  0.00  0.00    +0.056 N 
ATOM     21  O   UNL     1       2.851   4.205  -0.090  0.00  0.00    -0.126 OA
ATOM     22  O   UNL     1       4.186   2.594  -0.005  0.00  0.00    -0.126 OA
ENDBRANCH  16  20
ENDBRANCH  13  19
ENDBRANCH   1  13
TORSDOF 4
