REMARK  Name = ZINC09630846
REMARK  8 active torsions:
REMARK  status: ('A' for Active; 'I' for Inactive)
REMARK    1  A    between atoms: C_1  and  C_2
REMARK    2  A    between atoms: C_7  and  N_12
REMARK    3  A    between atoms: C_9  and  C_11
REMARK    4  A    between atoms: C_13  and  C_15
REMARK    5  A    between atoms: C_15  and  O_16
REMARK    6  A    between atoms: O_16  and  C_17
REMARK    7  A    between atoms: C_17  and  C_19
REMARK    8  A    between atoms: N_24  and  C_26
REMARK                            x       y       z     vdW  Elec       q    Type
REMARK                         _______ _______ _______ _____ _____    ______ ____
ROOT
ATOM      1  C   UNL     1      -2.906  10.122  -2.724  0.00  0.00    +0.313 C 
ATOM      2  O   UNL     1      -2.177  10.005  -3.680  0.00  0.00    -0.250 OA
ENDROOT
BRANCH   1   3
ATOM      3  C   UNL     1      -3.282   8.910  -1.911  0.00  0.00    +0.124 C 
ATOM      4  C   UNL     1      -2.793   9.050  -0.451  0.00  0.00    +0.112 C 
ATOM      5  C   UNL     1      -2.364   7.651  -0.067  0.00  0.00    +0.221 C 
ATOM      6  O   UNL     1      -2.182   7.267   1.069  0.00  0.00    -0.275 OA
ATOM      7  N   UNL     1      -2.215   6.895  -1.168  0.00  0.00    -0.270 N 
ATOM      8  C   UNL     1      -2.498   7.664  -2.386  0.00  0.00    +0.128 C 
BRANCH   7   9
ATOM      9  C   UNL     1      -1.834   5.547  -1.156  0.00  0.00    +0.040 A 
ATOM     10  C   UNL     1      -1.821   4.818  -2.338  0.00  0.00    +0.027 A 
ATOM     11  C   UNL     1      -1.446   3.488  -2.326  0.00  0.00    +0.051 A 
ATOM     12  C   UNL     1      -1.080   2.878  -1.135  0.00  0.00    +0.162 A 
ATOM     13  C   UNL     1      -1.089   3.606   0.049  0.00  0.00    +0.164 A 
ATOM     14  C   UNL     1      -1.468   4.940   0.037  0.00  0.00    +0.073 A 
ATOM     15  O   UNL     1      -0.727   3.026   1.226  0.00  0.00    -0.485 OA
ATOM     16  C   UNL     1      -0.713   1.595   1.262  0.00  0.00    +0.270 C 
ATOM     17  C   UNL     1       0.001   1.090   0.001  0.00  0.00    +0.270 C 
ATOM     18  O   UNL     1      -0.716   1.565  -1.143  0.00  0.00    -0.485 OA
ENDBRANCH   7   9
ENDBRANCH   1   3
BRANCH   1  19
ATOM     19  O   UNL     1      -3.381  11.331  -2.386  0.00  0.00    -0.455 OA
BRANCH  19  20
ATOM     20  C   UNL     1      -2.978  12.453  -3.214  0.00  0.00    +0.327 C 
BRANCH  20  22
ATOM     21  N   UNL     1      -3.369  14.894  -3.300  0.00  0.00    -0.309 N 
ATOM     22  C   UNL     1      -3.604  13.718  -2.686  0.00  0.00    +0.251 C 
ATOM     23  O   UNL     1      -4.320  13.678  -1.708  0.00  0.00    -0.272 OA
ATOM     24  H   UNL     1      -2.796  14.926  -4.083  0.00  0.00    +0.149 HD
BRANCH  21  30
ATOM     25  C   UNL     1      -2.912  19.812  -3.082  0.00  0.00    +0.008 C 
ATOM     26  C   UNL     1      -3.763  18.610  -2.667  0.00  0.00    -0.009 C 
ATOM     27  C   UNL     1      -5.173  18.759  -3.241  0.00  0.00    +0.003 C 
ATOM     28  C   UNL     1      -6.023  17.557  -2.825  0.00  0.00    +0.002 C 
ATOM     29  C   UNL     1      -5.387  16.273  -3.362  0.00  0.00    +0.022 C 
ATOM     30  C   UNL     1      -3.977  16.124  -2.787  0.00  0.00    +0.076 C 
ATOM     31  C   UNL     1      -3.127  17.326  -3.203  0.00  0.00    +0.009 C 
ATOM     32  C   UNL     1      -1.717  17.176  -2.628  0.00  0.00    +0.009 C 
ENDBRANCH  21  30
ENDBRANCH  20  22
ENDBRANCH  19  20
ENDBRANCH   1  19
TORSDOF 6
