REMARK  Name = ZINC43736751
REMARK  13 active torsions:
REMARK  status: ('A' for Active; 'I' for Inactive)
REMARK    1  A    between atoms: C_1  and  C_2
REMARK    2  A    between atoms: C_2  and  C_4
REMARK    3  A    between atoms: C_10  and  C_45
REMARK    4  A    between atoms: N_22  and  O_23
REMARK    5  A    between atoms: O_23  and  C_24
REMARK    6  A    between atoms: C_24  and  C_25
REMARK    7  A    between atoms: N_27  and  C_28
REMARK    8  A    between atoms: C_28  and  C_30
REMARK    9  A    between atoms: C_28  and  C_37
REMARK   10  A    between atoms: C_30  and  C_31
REMARK   11  A    between atoms: C_37  and  O_39
REMARK   12  A    between atoms: O_39  and  C_40
REMARK   13  A    between atoms: C_43  and  C_44
REMARK                            x       y       z     vdW  Elec       q    Type
REMARK                         _______ _______ _______ _____ _____    ______ ____
ROOT
ATOM      1  C   UNL     1      -1.228  -0.806   0.078  0.00  0.00    +0.061 C 
ATOM      2  C   UNL     1      -1.653  -1.185   1.509  0.00  0.00    +0.012 C 
ATOM      3  C   UNL     1      -1.731  -2.729   1.552  0.00  0.00    +0.005 C 
ATOM      4  C   UNL     1      -0.811  -3.167   0.397  0.00  0.00    -0.001 C 
ATOM      5  C   UNL     1      -1.106  -2.138  -0.709  0.00  0.00    -0.019 C 
ATOM      6  C   UNL     1      -2.477  -2.402  -1.337  0.00  0.00    +0.008 C 
ATOM      7  C   UNL     1      -2.572  -3.841  -1.835  0.00  0.00    +0.005 C 
ATOM      8  C   UNL     1      -2.436  -4.787  -0.637  0.00  0.00    +0.002 C 
ATOM      9  C   UNL     1      -1.059  -4.592  -0.033  0.00  0.00    -0.003 C 
ATOM     10  C   UNL     1      -0.891  -5.537   1.159  0.00  0.00    +0.008 C 
ATOM     11  C   UNL     1      -0.991  -6.994   0.696  0.00  0.00    +0.031 C 
ATOM     12  C   UNL     1      -2.314  -7.152  -0.035  0.00  0.00    -0.062 C 
ATOM     13  C   UNL     1      -3.147  -8.109   0.349  0.00  0.00    +0.026 C 
ATOM     14  C   UNL     1      -4.451  -8.238  -0.332  0.00  0.00    +0.080 C 
ATOM     15  N   UNL     1      -5.094  -9.362  -0.378  0.00  0.00    -0.089 NA
ATOM     16  C   UNL     1      -4.992  -6.975  -0.976  0.00  0.00    +0.059 C 
ATOM     17  C   UNL     1      -3.899  -6.415  -1.885  0.00  0.00    +0.017 C 
ATOM     18  C   UNL     1      -2.587  -6.229  -1.126  0.00  0.00    -0.007 C 
ATOM     19  C   UNL     1      -1.494  -6.445  -2.174  0.00  0.00    +0.016 C 
ATOM     20  C   UNL     1       0.009  -2.086  -1.755  0.00  0.00    +0.012 C 
ENDROOT
BRANCH   1  22
ATOM     21  C   UNL     1       0.431   0.927  -0.952  0.00  0.00    +0.086 C 
ATOM     22  C   UNL     1       0.102  -0.097   0.104  0.00  0.00    +0.134 C 
ATOM     23  O   UNL     1       0.904  -0.349   0.971  0.00  0.00    -0.297 OA
ENDBRANCH   1  22
BRANCH  15  24
ATOM     24  O   UNL     1      -4.549 -10.515   0.238  0.00  0.00    -0.384 OA
BRANCH  24  25
ATOM     25  C   UNL     1      -5.363 -11.682   0.110  0.00  0.00    +0.358 C 
BRANCH  25  26
ATOM     26  C   UNL     1      -4.691 -12.842   0.798  0.00  0.00    +0.254 C 
ATOM     27  O   UNL     1      -3.619 -12.684   1.344  0.00  0.00    -0.272 OA
ATOM     28  N   UNL     1      -5.280 -14.054   0.806  0.00  0.00    -0.299 N 
ATOM     29  H   UNL     1      -6.137 -14.180   0.369  0.00  0.00    +0.150 HD
BRANCH  28  30
ATOM     30  C   UNL     1      -4.626 -15.181   1.475  0.00  0.00    +0.188 C 
BRANCH  30  31
ATOM     31  C   UNL     1      -3.644 -15.825   0.530  0.00  0.00    +0.328 C 
ATOM     32  O   UNL     1      -3.505 -15.387  -0.587  0.00  0.00    -0.249 OA
BRANCH  31  33
ATOM     33  O   UNL     1      -2.924 -16.885   0.930  0.00  0.00    -0.467 OA
ATOM     34  C   UNL     1      -2.013 -17.445  -0.017  0.00  0.00    +0.280 C 
ENDBRANCH  31  33
ENDBRANCH  30  31
BRANCH  30  35
ATOM     35  C   UNL     1      -5.681 -16.208   1.892  0.00  0.00    +0.090 C 
BRANCH  35  36
ATOM     36  C   UNL     1      -6.590 -15.602   2.930  0.00  0.00    +0.061 A 
ATOM     37  C   UNL     1      -7.933 -15.528   2.860  0.00  0.00    +0.107 A 
ATOM     38  N   UNL     1      -8.355 -14.908   4.004  0.00  0.00    -0.351 N 
ATOM     39  H   UNL     1      -9.274 -14.709   4.246  0.00  0.00    +0.166 HD
ATOM     40  C   UNL     1      -7.255 -14.623   4.734  0.00  0.00    +0.196 A 
ATOM     41  N   UNL     1      -6.203 -15.046   4.088  0.00  0.00    -0.241 NA
ENDBRANCH  35  36
ENDBRANCH  30  35
ENDBRANCH  28  30
ENDBRANCH  25  26
ENDBRANCH  24  25
ENDBRANCH  15  24
TORSDOF 9
