REMARK  Name = ZINC12922443
REMARK  5 active torsions:
REMARK  status: ('A' for Active; 'I' for Inactive)
REMARK    1  A    between atoms: N_7  and  C_12
REMARK    2  A    between atoms: C_12  and  C_13
REMARK    3  A    between atoms: N_15  and  N_16
REMARK    4  A    between atoms: C_17  and  C_19
REMARK    5  A    between atoms: C_22  and  C_24
REMARK                            x       y       z     vdW  Elec       q    Type
REMARK                         _______ _______ _______ _____ _____    ______ ____
ROOT
ATOM      1  C   UNL     1       3.839   3.364  -1.841  0.00  0.00    +0.247 C 
ATOM      2  O   UNL     1       3.019   3.925  -2.537  0.00  0.00    -0.273 OA
ATOM      3  N   UNL     1       4.949   2.838  -2.397  0.00  0.00    -0.233 N 
ATOM      4  H   UNL     1       5.604   2.390  -1.840  0.00  0.00    +0.173 HD
ENDROOT
BRANCH   3   5
ATOM      5  N   UNL     1       5.155   2.939  -3.779  0.00  0.00    -0.229 N 
ATOM      6  C   UNL     1       6.264   2.413  -4.334  0.00  0.00    +0.279 C 
ATOM      7  O   UNL     1       7.086   1.851  -3.636  0.00  0.00    -0.267 OA
ATOM      8  H   UNL     1       4.499   3.387  -4.336  0.00  0.00    +0.173 HD
BRANCH   6   9
ATOM      9  C   UNL     1       6.481   2.518  -5.788  0.00  0.00    +0.135 A 
ATOM     10  C   UNL     1       7.610   1.990  -6.362  0.00  0.00    +0.080 A 
ATOM     11  S   UNL     1       7.363   2.380  -8.037  0.00  0.00    -0.075 S 
ATOM     12  C   UNL     1       5.796   3.217  -7.858  0.00  0.00    +0.109 A 
ATOM     13  N   UNL     1       5.591   3.128  -6.556  0.00  0.00    -0.234 NA
BRANCH  12  14
ATOM     14  C   UNL     1       4.949   3.846  -8.895  0.00  0.00    +0.007 A 
ATOM     15  C   UNL     1       3.743   4.451  -8.542  0.00  0.00    +0.012 A 
ATOM     16  C   UNL     1       2.959   5.039  -9.513  0.00  0.00    +0.020 A 
ATOM     17  C   UNL     1       3.364   5.021 -10.838  0.00  0.00    +0.041 A 
ATOM     18  C   UNL     1       4.558   4.418 -11.194  0.00  0.00    +0.020 A 
ATOM     19  C   UNL     1       5.352   3.830 -10.231  0.00  0.00    +0.012 A 
ATOM     20 CL   UNL     1       2.369   5.757 -12.055  0.00  0.00    -0.084 Cl
ENDBRANCH  12  14
ENDBRANCH   6   9
ENDBRANCH   3   5
BRANCH   1  21
ATOM     21  C   UNL     1       3.617   3.256  -0.354  0.00  0.00    +0.211 C 
BRANCH  21  28
ATOM     22  C   UNL     1      -0.013   1.076   0.008  0.00  0.00    +0.002 A 
ATOM     23  C   UNL     1      -1.220   1.749   0.017  0.00  0.00    +0.004 A 
ATOM     24  C   UNL     1      -1.248   3.132   0.031  0.00  0.00    +0.047 A 
ATOM     25  C   UNL     1      -0.062   3.845   0.023  0.00  0.00    +0.143 A 
ATOM     26  C   UNL     1       1.156   3.166   0.008  0.00  0.00    +0.079 A 
ATOM     27  C   UNL     1       1.177   1.781   0.000  0.00  0.00    +0.027 A 
ATOM     28  N   UNL     1       2.350   3.901  -0.001  0.00  0.00    -0.256 N 
ATOM     29  C   UNL     1       2.314   5.213   0.321  0.00  0.00    +0.258 C 
ATOM     30  O   UNL     1       3.329   5.875   0.290  0.00  0.00    -0.271 OA
ATOM     31  C   UNL     1       1.006   5.849   0.718  0.00  0.00    +0.325 C 
ATOM     32  O   UNL     1      -0.070   5.204   0.032  0.00  0.00    -0.481 OA
ENDBRANCH  21  28
ENDBRANCH   1  21
TORSDOF 5
