REMARK  Name = ZINC20191155
REMARK  5 active torsions:
REMARK  status: ('A' for Active; 'I' for Inactive)
REMARK    1  A    between atoms: C_1  and  C_2
REMARK    2  A    between atoms: C_2  and  N_3
REMARK    3  A    between atoms: N_3  and  C_4
REMARK    4  A    between atoms: C_11  and  C_21
REMARK    5  A    between atoms: C_15  and  N_20
REMARK                            x       y       z     vdW  Elec       q    Type
REMARK                         _______ _______ _______ _____ _____    ______ ____
ROOT
ATOM      1  N   UNL     1      -2.427   1.042   0.020  0.00  0.00    -0.284 N 
ATOM      2  C   UNL     1      -2.515  -0.340   0.016  0.00  0.00    +0.144 A 
ATOM      3  C   UNL     1      -1.329  -1.111   0.056  0.00  0.00    +0.092 A 
ATOM      4  C   UNL     1      -1.417  -2.497   0.058  0.00  0.00    +0.032 A 
ATOM      5  C   UNL     1      -2.697  -3.079   0.008  0.00  0.00    +0.003 A 
ATOM      6  C   UNL     1      -2.856  -4.475   0.001  0.00  0.00    +0.032 A 
ATOM      7  C   UNL     1      -4.124  -5.012  -0.050  0.00  0.00    +0.025 A 
ATOM      8  C   UNL     1      -5.248  -4.179  -0.093  0.00  0.00    +0.025 A 
ATOM      9  C   UNL     1      -5.117  -2.826  -0.086  0.00  0.00    +0.030 A 
ATOM     10  C   UNL     1      -3.839  -2.242  -0.036  0.00  0.00    +0.073 A 
ATOM     11  N   UNL     1      -3.699  -0.910  -0.030  0.00  0.00    -0.230 NA
ENDROOT
BRANCH   1  12
ATOM     12  C   UNL     1      -2.446   1.747  -1.187  0.00  0.00    +0.035 A 
ATOM     13  C   UNL     1      -2.439   1.060  -2.395  0.00  0.00    +0.023 A 
ATOM     14  C   UNL     1      -2.464   1.759  -3.585  0.00  0.00    +0.002 A 
ATOM     15  C   UNL     1      -2.488   3.142  -3.576  0.00  0.00    +0.000 A 
ATOM     16  C   UNL     1      -2.490   3.829  -2.376  0.00  0.00    +0.002 A 
ATOM     17  C   UNL     1      -2.467   3.136  -1.182  0.00  0.00    +0.023 A 
ENDBRANCH   1  12
BRANCH   7  18
ATOM     18  N   UNL     1      -4.289  -6.400  -0.057  0.00  0.00    -0.358 N 
ATOM     19  H   UNL     1      -5.299  -6.834  -0.097  0.00  0.00    +0.142 HD
ATOM     20  H   UNL     1      -3.409  -7.059  -0.022  0.00  0.00    +0.142 HD
ENDBRANCH   7  18
BRANCH   1  22
ATOM     21  C   UNL     1      -3.711   2.109   1.807  0.00  0.00    +0.025 C 
ATOM     22  C   UNL     1      -2.313   1.765   1.289  0.00  0.00    +0.109 C 
ENDBRANCH   1  22
BRANCH   3  23
ATOM     23  C   UNL     1      -0.050  -0.468   0.099  0.00  0.00    +0.103 C 
ATOM     24  N   UNL     1       0.964   0.042   0.134  0.00  0.00    -0.191 NA
ENDBRANCH   3  23
TORSDOF 4
