REMARK  Name = ZINC43771685
REMARK  10 active torsions:
REMARK  status: ('A' for Active; 'I' for Inactive)
REMARK    1  A    between atoms: C_1  and  C_2
REMARK    2  A    between atoms: C_2  and  C_3
REMARK    3  A    between atoms: C_2  and  C_4
REMARK    4  A    between atoms: N_15  and  C1*_26
REMARK    5  A    between atoms: C_16  and  O_18
REMARK    6  A    between atoms: O_18  and  C_19
REMARK    7  A    between atoms: C_19  and  C_20
REMARK    8  A    between atoms: C3*_29  and  O3*_36
REMARK    9  A    between atoms: C4*_31  and  C5*_34
REMARK   10  A    between atoms: C5*_34  and  O5*_35
REMARK                            x       y       z     vdW  Elec       q    Type
REMARK                         _______ _______ _______ _____ _____    ______ ____
ROOT
ATOM      1  C   UNL     1      -1.412  -0.526   0.013  0.00  0.00    +0.222 C 
ATOM      2  O   UNL     1      -2.344   0.250   0.026  0.00  0.00    -0.275 OA
ATOM      3  N   UNL     1      -1.640  -1.854   0.008  0.00  0.00    -0.256 N 
ATOM      4  C   UNL     1      -2.934  -2.332   0.018  0.00  0.00    +0.204 A 
ATOM      5  N   UNL     1      -3.143  -3.678   0.018  0.00  0.00    -0.293 N 
ATOM      6  H   UNL     1      -2.385  -4.284   0.011  0.00  0.00    +0.172 HD
ATOM      7  C   UNL     1      -4.400  -4.174   0.028  0.00  0.00    +0.280 A 
ATOM      8  O   UNL     1      -4.597  -5.377   0.029  0.00  0.00    -0.265 OA
ATOM      9  C   UNL     1      -5.481  -3.262   0.037  0.00  0.00    +0.176 A 
ATOM     10  C   UNL     1      -5.201  -1.893   0.036  0.00  0.00    +0.174 A 
ATOM     11  N   UNL     1      -3.929  -1.476   0.032  0.00  0.00    -0.196 NA
ATOM     12  N   UNL     1      -6.415  -1.254   0.047  0.00  0.00    -0.251 N 
ATOM     13  C   UNL     1      -7.386  -2.216   0.054  0.00  0.00    +0.303 A 
ATOM     14  N   UNL     1      -6.832  -3.400   0.049  0.00  0.00    -0.188 NA
ATOM     15  H   UNL     1      -0.894  -2.474  -0.003  0.00  0.00    +0.158 HD
ENDROOT
BRANCH  12  16
ATOM     16  C1* UNL     1      -6.632   0.195   0.050  0.00  0.00    +0.228 C 
ATOM     17  C2* UNL     1      -7.131   0.667  -1.333  0.00  0.00    +0.088 C 
ATOM     18  C3* UNL     1      -8.154   1.778  -1.005  0.00  0.00    +0.150 C 
ATOM     19  C4* UNL     1      -8.152   1.845   0.539  0.00  0.00    +0.175 C 
ATOM     20  O4* UNL     1      -7.693   0.543   0.966  0.00  0.00    -0.348 OA
BRANCH  18  21
ATOM     21  O3* UNL     1      -7.736   3.025  -1.563  0.00  0.00    -0.389 OA
ATOM     22  H3* UNL     1      -7.663   3.019  -2.527  0.00  0.00    +0.210 HD
ENDBRANCH  18  21
BRANCH  19  23
ATOM     23  C5* UNL     1      -9.564   2.113   1.062  0.00  0.00    +0.190 C 
BRANCH  23  24
ATOM     24  O5* UNL     1      -9.522   2.287   2.480  0.00  0.00    -0.392 OA
ATOM     25  H5* UNL     1     -10.385   2.461   2.880  0.00  0.00    +0.210 HD
ENDBRANCH  23  24
ENDBRANCH  19  23
ENDBRANCH  12  16
BRANCH   1  27
ATOM     26  C   UNL     1      -0.019   1.526   0.010  0.00  0.00    +0.017 C 
ATOM     27  C   UNL     1       0.002  -0.004   0.002  0.00  0.00    +0.069 C 
ATOM     28  C   UNL     1       0.742  -0.511   1.242  0.00  0.00    +0.017 C 
ENDBRANCH   1  27
BRANCH  13  29
ATOM     29  O   UNL     1      -8.719  -1.979   0.065  0.00  0.00    -0.459 OA
BRANCH  29  30
ATOM     30  C   UNL     1      -9.581  -3.119   0.072  0.00  0.00    +0.267 C 
BRANCH  30  31
ATOM     31  C   UNL     1     -11.017  -2.663   0.084  0.00  0.00    -0.010 A 
ATOM     32  C   UNL     1     -11.664  -2.449   1.286  0.00  0.00    +0.007 A 
ATOM     33  C   UNL     1     -12.982  -2.031   1.298  0.00  0.00    +0.000 A 
ATOM     34  C   UNL     1     -13.652  -1.826   0.106  0.00  0.00    +0.000 A 
ATOM     35  C   UNL     1     -13.004  -2.039  -1.097  0.00  0.00    +0.000 A 
ATOM     36  C   UNL     1     -11.685  -2.453  -1.108  0.00  0.00    +0.007 A 
ENDBRANCH  30  31
ENDBRANCH  29  30
ENDBRANCH  13  29
TORSDOF 8
