REMARK  Name = ZINC56854428
REMARK  7 active torsions:
REMARK  status: ('A' for Active; 'I' for Inactive)
REMARK    1  A    between atoms: C_1  and  C_2
REMARK    2  A    between atoms: C_7  and  C_10
REMARK    3  A    between atoms: N_13  and  C_14
REMARK    4  A    between atoms: C_14  and  C_16
REMARK    5  A    between atoms: C_14  and  C_17
REMARK    6  A    between atoms: C_17  and  O_18
REMARK    7  A    between atoms: O_18  and  C_19
REMARK                            x       y       z     vdW  Elec       q    Type
REMARK                         _______ _______ _______ _____ _____    ______ ____
ROOT
ATOM      1  C   UNL     1      -0.020   1.529   0.007  0.00  0.00    +0.039 C 
ATOM      2  C   UNL     1       0.001  -0.001   0.001  0.00  0.00    +0.133 C 
ATOM      3  C   UNL     1       0.721  -0.498  -1.257  0.00  0.00    +0.140 C 
ATOM      4  N   UNL     1       2.143  -0.133  -1.153  0.00  0.00    -0.281 N 
ATOM      5  C   UNL     1       2.858  -0.485   0.084  0.00  0.00    +0.140 C 
ATOM      6  C   UNL     1       2.034   0.012   1.277  0.00  0.00    +0.133 C 
ATOM      7  O   UNL     1       0.694  -0.473   1.159  0.00  0.00    -0.371 OA
ATOM      8  C   UNL     1       2.653  -0.505   2.577  0.00  0.00    +0.039 C 
ATOM      9  C   UNL     1       2.771   0.504  -2.161  0.00  0.00    +0.303 C 
ATOM     10  O   UNL     1       2.190   0.705  -3.210  0.00  0.00    -0.253 OA
ATOM     11  N   UNL     1       4.044   0.918  -2.006  0.00  0.00    -0.293 N 
ATOM     12  H   UNL     1       4.533   0.694  -1.199  0.00  0.00    +0.151 HD
ENDROOT
BRANCH  11  13
ATOM     13  C   UNL     1       4.691   1.707  -3.058  0.00  0.00    +0.109 C 
ATOM     14  C   UNL     1       4.342   3.186  -2.873  0.00  0.00    +0.031 C 
BRANCH  13  15
ATOM     15  C   UNL     1       6.207   1.527  -2.972  0.00  0.00    +0.251 C 
BRANCH  15  16
ATOM     16  O   UNL     1       6.684   2.075  -1.741  0.00  0.00    -0.487 OA
BRANCH  16  17
ATOM     17  C   UNL     1       8.020   1.996  -1.506  0.00  0.00    +0.156 A 
ATOM     18  C   UNL     1       8.857   1.408  -2.443  0.00  0.00    +0.048 A 
ATOM     19  C   UNL     1      10.215   1.328  -2.202  0.00  0.00    +0.004 A 
ATOM     20  C   UNL     1      10.742   1.834  -1.028  0.00  0.00    +0.003 A 
ATOM     21  C   UNL     1       9.911   2.421  -0.091  0.00  0.00    +0.042 A 
ATOM     22  C   UNL     1       8.552   2.509  -0.330  0.00  0.00    +0.165 A 
ATOM     23  F   UNL     1       7.741   3.087   0.583  0.00  0.00    -0.202 F 
ENDBRANCH  16  17
ENDBRANCH  15  16
ENDBRANCH  13  15
ENDBRANCH  11  13
TORSDOF 4
