REMARK  Name = ZINC59760840
REMARK  3 active torsions:
REMARK  status: ('A' for Active; 'I' for Inactive)
REMARK    1  A    between atoms: C_5  and  N_9
REMARK    2  A    between atoms: C_10  and  C_12
REMARK    3  A    between atoms: C_18  and  C_20
REMARK                            x       y       z     vdW  Elec       q    Type
REMARK                         _______ _______ _______ _____ _____    ______ ____
ROOT
ATOM      1  C   UNL     1       6.666  -1.451  -0.349  0.00  0.00    +0.078 C 
ATOM      2  C   UNL     1       6.426  -2.890  -0.813  0.00  0.00    +0.032 C 
ATOM      3  C   UNL     1       7.754  -3.505  -1.265  0.00  0.00    +0.108 C 
ATOM      4  N   UNL     1       8.729  -3.378  -0.174  0.00  0.00    -0.299 N 
ATOM      5  C   UNL     1       8.970  -2.050   0.408  0.00  0.00    +0.108 C 
ATOM      6  C   UNL     1       7.628  -1.451   0.841  0.00  0.00    +0.032 C 
ATOM      7  C   UNL     1       9.391  -4.459   0.285  0.00  0.00    +0.244 C 
ATOM      8  O   UNL     1       9.183  -5.549  -0.203  0.00  0.00    -0.273 OA
ENDROOT
BRANCH   7   9
ATOM      9  C   UNL     1      10.389  -4.312   1.405  0.00  0.00    +0.204 C 
ATOM     10  C   UNL     1      11.580  -3.450   0.935  0.00  0.00    +0.043 C 
ATOM     11  C   UNL     1      12.788  -4.171   1.595  0.00  0.00    +0.031 C 
ATOM     12  C   UNL     1      12.318  -5.646   1.536  0.00  0.00    +0.161 C 
ATOM     13  O   UNL     1      10.900  -5.598   1.772  0.00  0.00    -0.367 OA
ENDBRANCH   7   9
BRANCH   1  15
ATOM     14  N   UNL     1       4.350  -0.724  -0.827  0.00  0.00    -0.312 N 
ATOM     15  C   UNL     1       5.356  -0.832   0.064  0.00  0.00    +0.216 C 
ATOM     16  O   UNL     1       5.206  -0.430   1.198  0.00  0.00    -0.276 OA
ATOM     17  H   UNL     1       4.470  -1.046  -1.734  0.00  0.00    +0.149 HD
BRANCH  14  22
ATOM     18  C   UNL     1      -0.019   1.526   0.010  0.00  0.00    +0.000 C 
ATOM     19  C   UNL     1       1.417   2.055  -0.000  0.00  0.00    +0.000 C 
ATOM     20  C   UNL     1       2.003   1.911  -1.406  0.00  0.00    +0.002 C 
ATOM     21  C   UNL     1       2.370   0.447  -1.657  0.00  0.00    +0.022 C 
ATOM     22  C   UNL     1       3.077  -0.122  -0.425  0.00  0.00    +0.073 C 
ATOM     23  C   UNL     1       2.191  -1.187   0.225  0.00  0.00    +0.022 C 
ATOM     24  C   UNL     1       1.056  -0.506   0.991  0.00  0.00    +0.002 C 
ATOM     25  C   UNL     1       0.002  -0.004   0.002  0.00  0.00    +0.000 C 
ENDBRANCH  14  22
ENDBRANCH   1  15
TORSDOF 3
