REMARK  Name = ZINC43553925
REMARK  12 active torsions:
REMARK  status: ('A' for Active; 'I' for Inactive)
REMARK    1  A    between atoms: C_1  and  C_2
REMARK    2  A    between atoms: C_5  and  O_30
REMARK    3  A    between atoms: C_7  and  C_27
REMARK    4  A    between atoms: C_7  and  C_28
REMARK    5  A    between atoms: C_12  and  O_26
REMARK    6  A    between atoms: C_14  and  C_16
REMARK    7  A    between atoms: C_16  and  C_17
REMARK    8  A    between atoms: N_19  and  C_20
REMARK    9  A    between atoms: C_20  and  C_21
REMARK   10  A    between atoms: C_28  and  O_29
REMARK   11  A    between atoms: O_30  and  C_31
REMARK   12  A    between atoms: N_33  and  C_34
REMARK                            x       y       z     vdW  Elec       q    Type
REMARK                         _______ _______ _______ _____ _____    ______ ____
ROOT
ATOM      1  C   UNL     1       0.117   1.242  -0.717  0.00  0.00    +0.012 C 
ATOM      2  C   UNL     1      -0.005  -0.272  -0.481  0.00  0.00    -0.023 C 
ATOM      3  C   UNL     1      -1.421  -0.701  -0.872  0.00  0.00    +0.011 C 
ATOM      4  C   UNL     1      -2.432  -0.035   0.064  0.00  0.00    +0.046 C 
ATOM      5  C   UNL     1      -2.192  -0.502   1.494  0.00  0.00    +0.186 C 
ATOM      6  C   UNL     1      -0.771  -0.203   1.967  0.00  0.00    +0.031 C 
ATOM      7  C   UNL     1       0.278  -0.641   0.964  0.00  0.00    +0.007 C 
ATOM      8  C   UNL     1       1.679  -0.175   1.360  0.00  0.00    +0.007 C 
ATOM      9  C   UNL     1       2.700  -0.901   0.476  0.00  0.00    +0.032 C 
ATOM     10  C   UNL     1       2.442  -0.593  -0.995  0.00  0.00    +0.119 C 
ATOM     11  C   UNL     1       1.015  -0.949  -1.404  0.00  0.00    +0.032 C 
ATOM     12  C   UNL     1      -0.648   1.274   2.342  0.00  0.00    +0.017 C 
ENDROOT
BRANCH  10  13
ATOM     13  O   UNL     1       3.356  -1.356  -1.797  0.00  0.00    -0.391 OA
ATOM     14  H   UNL     1       4.288  -1.166  -1.619  0.00  0.00    +0.210 HD
ENDBRANCH  10  13
BRANCH  11  15
ATOM     15  C   UNL     1       0.841  -2.465  -1.423  0.00  0.00    +0.102 C 
BRANCH  15  16
ATOM     16  C   UNL     1       1.601  -3.043  -2.588  0.00  0.00    +0.214 C 
ATOM     17  O   UNL     1       2.091  -2.307  -3.418  0.00  0.00    -0.276 OA
ATOM     18  N   UNL     1       1.737  -4.379  -2.708  0.00  0.00    -0.308 N 
ATOM     19  H   UNL     1       1.345  -4.968  -2.044  0.00  0.00    +0.149 HD
BRANCH  18  20
ATOM     20  C   UNL     1       2.476  -4.941  -3.840  0.00  0.00    +0.178 C 
BRANCH  20  21
ATOM     21  C   UNL     1       2.481  -6.445  -3.740  0.00  0.00    +0.122 A 
ATOM     22  C   UNL     1       1.564  -7.271  -4.274  0.00  0.00    +0.046 A 
ATOM     23  C   UNL     1       1.954  -8.588  -3.939  0.00  0.00    +0.041 A 
ATOM     24  C   UNL     1       3.087  -8.488  -3.220  0.00  0.00    +0.195 A 
ATOM     25  O   UNL     1       3.404  -7.187  -3.108  0.00  0.00    -0.466 OA
ENDBRANCH  20  21
ENDBRANCH  18  20
ENDBRANCH  15  16
ENDBRANCH  11  15
BRANCH   6  26
ATOM     26  C   UNL     1      -0.560  -1.020   3.266  0.00  0.00    +0.166 C 
BRANCH  26  27
ATOM     27  O   UNL     1      -1.520  -0.617   4.244  0.00  0.00    -0.394 OA
ATOM     28  H   UNL     1      -1.447  -1.088   5.085  0.00  0.00    +0.209 HD
ENDBRANCH  26  27
ENDBRANCH   6  26
BRANCH   5  29
ATOM     29  O   UNL     1      -2.434  -1.910   1.584  0.00  0.00    -0.446 OA
BRANCH  29  30
ATOM     30  C   UNL     1      -3.688  -2.297   1.885  0.00  0.00    +0.405 C 
ATOM     31  O   UNL     1      -4.554  -1.465   2.066  0.00  0.00    -0.226 OA
ATOM     32  N   UNL     1      -3.982  -3.609   1.986  0.00  0.00    -0.251 N 
ATOM     33  H   UNL     1      -3.279  -4.272   1.906  0.00  0.00    +0.158 HD
BRANCH  32  34
ATOM     34  C   UNL     1      -5.304  -4.014   2.206  0.00  0.00    +0.039 A 
ATOM     35  C   UNL     1      -5.782  -5.178   1.617  0.00  0.00    +0.023 A 
ATOM     36  C   UNL     1      -7.086  -5.577   1.835  0.00  0.00    +0.005 A 
ATOM     37  C   UNL     1      -7.917  -4.819   2.640  0.00  0.00    +0.038 A 
ATOM     38  C   UNL     1      -7.444  -3.659   3.229  0.00  0.00    +0.125 A 
ATOM     39  C   UNL     1      -6.137  -3.258   3.018  0.00  0.00    +0.061 A 
ATOM     40  F   UNL     1      -8.259  -2.920   4.015  0.00  0.00    -0.205 F 
ENDBRANCH  32  34
ENDBRANCH  29  30
ENDBRANCH   5  29
TORSDOF 10
