REMARK  Name = ZINC64312415
REMARK  11 active torsions:
REMARK  status: ('A' for Active; 'I' for Inactive)
REMARK    1  A    between atoms: C_1  and  C_2
REMARK    2  A    between atoms: C_2  and  C_3
REMARK    3  A    between atoms: C_3  and  C_4
REMARK    4  A    between atoms: C_4  and  C_5
REMARK    5  A    between atoms: C_4  and  N_21
REMARK    6  A    between atoms: N_7  and  C_8
REMARK    7  A    between atoms: N_7  and  C_18
REMARK    8  A    between atoms: C_8  and  C_9
REMARK    9  A    between atoms: C_12  and  N_15
REMARK   10  A    between atoms: C_18  and  C_19
REMARK   11  A    between atoms: C_18  and  C_20
REMARK                            x       y       z     vdW  Elec       q    Type
REMARK                         _______ _______ _______ _____ _____    ______ ____
ROOT
ATOM      1  C   UNL     1       1.233  -2.390  -2.128  0.00  0.00    +0.236 C 
ATOM      2  O   UNL     1       0.445  -2.946  -2.863  0.00  0.00    -0.274 OA
ATOM      3  N   UNL     1       2.478  -2.109  -2.564  0.00  0.00    -0.293 N 
ENDROOT
BRANCH   3   4
ATOM      4  C   UNL     1       3.466  -1.542  -1.643  0.00  0.00    +0.070 C 
ATOM      5  C   UNL     1       4.692  -2.455  -1.585  0.00  0.00    +0.028 C 
ATOM      6  C   UNL     1       3.885  -0.155  -2.135  0.00  0.00    +0.028 C 
ENDBRANCH   3   4
BRANCH   1   7
ATOM      7  C   UNL     1       0.822  -2.012  -0.729  0.00  0.00    +0.161 C 
BRANCH   7   8
ATOM      8  N   UNL     1      -0.331  -2.819  -0.324  0.00  0.00    -0.288 N 
ATOM      9  C   UNL     1      -0.570  -3.046   0.983  0.00  0.00    +0.298 C 
ATOM     10  O   UNL     1       0.172  -2.581   1.826  0.00  0.00    -0.253 OA
ATOM     11  N   UNL     1      -1.631  -3.789   1.356  0.00  0.00    -0.313 N 
ATOM     12  H   UNL     1      -0.924  -3.190  -0.996  0.00  0.00    +0.151 HD
ATOM     13  H   UNL     1      -2.223  -4.160   0.683  0.00  0.00    +0.146 HD
ATOM     14  H   UNL     1      -1.802  -3.952   2.296  0.00  0.00    +0.146 HD
ENDBRANCH   7   8
BRANCH   7  15
ATOM     15  C   UNL     1       0.445  -0.529  -0.691  0.00  0.00    +0.031 C 
BRANCH  15  17
ATOM     16  C   UNL     1      -0.231   1.366   0.790  0.00  0.00    +0.004 C 
ATOM     17  C   UNL     1       0.146  -0.116   0.752  0.00  0.00    -0.001 C 
ENDBRANCH  15  17
ENDBRANCH   7  15
ENDBRANCH   1   7
BRANCH   3  18
ATOM     18  C   UNL     1       2.842  -2.372  -3.958  0.00  0.00    +0.143 C 
BRANCH  18  19
ATOM     19  C   UNL     1       2.422  -1.205  -4.815  0.00  0.00    -0.030 A 
ATOM     20  C   UNL     1       1.121  -1.119  -5.276  0.00  0.00    +0.007 A 
ATOM     21  C   UNL     1       0.736  -0.049  -6.062  0.00  0.00    +0.033 A 
ATOM     22  C   UNL     1       1.650   0.935  -6.387  0.00  0.00    +0.126 A 
ATOM     23  C   UNL     1       2.951   0.849  -5.925  0.00  0.00    +0.033 A 
ATOM     24  C   UNL     1       3.335  -0.219  -5.136  0.00  0.00    +0.007 A 
BRANCH  22  25
ATOM     25  N   UNL     1       1.238   2.080  -7.229  0.00  0.00    +0.056 N 
ATOM     26  O   UNL     1       0.101   2.154  -7.633  0.00  0.00    -0.126 OA
ATOM     27  O   UNL     1       2.038   2.940  -7.513  0.00  0.00    -0.126 OA
ENDBRANCH  22  25
ENDBRANCH  18  19
ENDBRANCH   3  18
TORSDOF 8
