REMARK  Name = ZINC53986090
REMARK  8 active torsions:
REMARK  status: ('A' for Active; 'I' for Inactive)
REMARK    1  A    between atoms: C_1  and  C_2
REMARK    2  A    between atoms: C_2  and  C_4
REMARK    3  A    between atoms: C_2  and  N_15
REMARK    4  A    between atoms: C_7  and  N_10
REMARK    5  A    between atoms: N_15  and  C_16
REMARK    6  A    between atoms: N_19  and  C_20
REMARK    7  A    between atoms: C_20  and  C_22
REMARK    8  A    between atoms: C_20  and  C_23
REMARK                            x       y       z     vdW  Elec       q    Type
REMARK                         _______ _______ _______ _____ _____    ______ ____
ROOT
ATOM      1  N   UNL     1      -1.449  -0.477  -0.097  0.00  0.00    -0.282 N 
ATOM      2  C   UNL     1      -2.488   0.011   0.813  0.00  0.00    +0.134 C 
ATOM      3  C   UNL     1      -1.763  -1.361  -1.066  0.00  0.00    +0.303 C 
ATOM      4  O   UNL     1      -0.900  -1.767  -1.821  0.00  0.00    -0.253 OA
ATOM      5  N   UNL     1      -3.032  -1.794  -1.197  0.00  0.00    -0.290 N 
ATOM      6  H   UNL     1      -3.720  -1.471  -0.594  0.00  0.00    +0.151 HD
ENDROOT
BRANCH   1   8
ATOM      7  C   UNL     1      -0.045   1.523  -0.004  0.00  0.00    +0.033 C 
ATOM      8  C   UNL     1      -0.069  -0.006   0.045  0.00  0.00    +0.104 C 
BRANCH   8   9
ATOM      9  C   UNL     1       0.488  -0.476   1.364  0.00  0.00    -0.027 A 
ATOM     10  C   UNL     1       0.048  -1.665   1.916  0.00  0.00    +0.007 A 
ATOM     11  C   UNL     1       0.557  -2.098   3.124  0.00  0.00    +0.028 A 
ATOM     12  C   UNL     1       1.512  -1.338   3.786  0.00  0.00    +0.067 A 
ATOM     13  C   UNL     1       1.953  -0.144   3.230  0.00  0.00    +0.028 A 
ATOM     14  C   UNL     1       1.443   0.281   2.018  0.00  0.00    +0.007 A 
BRANCH  12  15
ATOM     15  N   UNL     1       2.031  -1.774   5.013  0.00  0.00    -0.220 N 
ATOM     16  C   UNL     1       2.952  -1.147   5.770  0.00  0.00    +0.225 A 
ATOM     17  N   UNL     1       3.166  -1.876   6.835  0.00  0.00    -0.222 NA
ATOM     18  C   UNL     1       2.406  -2.970   6.794  0.00  0.00    +0.245 A 
ATOM     19  N   UNL     1       1.689  -2.950   5.701  0.00  0.00    -0.154 NA
ENDBRANCH  12  15
ENDBRANCH   8   9
ENDBRANCH   1   8
BRANCH   5  20
ATOM     20  C   UNL     1      -3.373  -2.755  -2.249  0.00  0.00    +0.137 C 
ATOM     21  C   UNL     1      -3.650  -2.005  -3.554  0.00  0.00    +0.036 C 
BRANCH  20  22
ATOM     22  C   UNL     1      -4.601  -3.529  -1.845  0.00  0.00    +0.126 A 
ATOM     23  C   UNL     1      -4.781  -4.841  -2.045  0.00  0.00    +0.055 A 
ATOM     24  C   UNL     1      -6.105  -5.161  -1.497  0.00  0.00    +0.020 A 
ATOM     25  C   UNL     1      -6.863  -6.326  -1.396  0.00  0.00    +0.011 A 
ATOM     26  C   UNL     1      -8.098  -6.283  -0.811  0.00  0.00    +0.001 A 
ATOM     27  C   UNL     1      -8.601  -5.087  -0.319  0.00  0.00    +0.004 A 
ATOM     28  C   UNL     1      -7.866  -3.925  -0.410  0.00  0.00    +0.047 A 
ATOM     29  C   UNL     1      -6.608  -3.947  -1.000  0.00  0.00    +0.135 A 
ATOM     30  O   UNL     1      -5.673  -3.003  -1.226  0.00  0.00    -0.458 OA
ENDBRANCH  20  22
ENDBRANCH   5  20
TORSDOF 5
