REMARK  Name = ZINC56945342
REMARK  7 active torsions:
REMARK  status: ('A' for Active; 'I' for Inactive)
REMARK    1  A    between atoms: C_1  and  C_2
REMARK    2  A    between atoms: C_5  and  C_22
REMARK    3  A    between atoms: N_8  and  C_10
REMARK    4  A    between atoms: C_10  and  C_11
REMARK    5  A    between atoms: C_11  and  C_13
REMARK    6  A    between atoms: C_11  and  N_14
REMARK    7  A    between atoms: N_17  and  N_18
REMARK                            x       y       z     vdW  Elec       q    Type
REMARK                         _______ _______ _______ _____ _____    ______ ____
ROOT
ATOM      1  N   UNL     1       3.510  -2.495   0.951  0.00  0.00    -0.297 N 
ATOM      2  C   UNL     1       4.540  -1.852   0.365  0.00  0.00    +0.316 C 
ATOM      3  O   UNL     1       5.040  -0.884   0.906  0.00  0.00    -0.251 OA
ATOM      4  N   UNL     1       5.016  -2.281  -0.821  0.00  0.00    -0.217 N 
ATOM      5  H   UNL     1       3.112  -3.266   0.519  0.00  0.00    +0.150 HD
ATOM      6  H   UNL     1       5.757  -1.818  -1.242  0.00  0.00    +0.174 HD
ENDROOT
BRANCH   4   7
ATOM      7  N   UNL     1       4.440  -3.396  -1.444  0.00  0.00    -0.217 N 
ATOM      8  C   UNL     1       4.916  -3.825  -2.630  0.00  0.00    +0.313 C 
ATOM      9  O   UNL     1       4.417  -4.793  -3.171  0.00  0.00    -0.252 OA
ATOM     10  N   UNL     1       5.946  -3.182  -3.216  0.00  0.00    -0.312 N 
ATOM     11  H   UNL     1       3.699  -3.858  -1.023  0.00  0.00    +0.174 HD
ATOM     12  H   UNL     1       6.344  -2.410  -2.784  0.00  0.00    +0.147 HD
ATOM     13  H   UNL     1       6.288  -3.491  -4.069  0.00  0.00    +0.147 HD
ENDBRANCH   4   7
BRANCH   1  14
ATOM     14  C   UNL     1       2.993  -2.028   2.239  0.00  0.00    +0.055 C 
ATOM     15  C   UNL     1       3.825  -2.634   3.372  0.00  0.00    +0.026 C 
BRANCH  14  16
ATOM     16  C   UNL     1       1.534  -2.461   2.390  0.00  0.00    -0.057 C 
BRANCH  16  22
ATOM     17  C   UNL     1      -0.019   1.526   0.010  0.00  0.00    +0.005 C 
ATOM     18  C   UNL     1       0.002  -0.004   0.002  0.00  0.00    -0.031 C 
ATOM     19  C   UNL     1      -1.434  -0.535   0.015  0.00  0.00    +0.003 C 
ATOM     20  C   UNL     1      -1.402  -2.064   0.086  0.00  0.00    -0.031 C 
ATOM     21  C   UNL     1      -0.613  -2.496   1.324  0.00  0.00    -0.076 C 
ATOM     22  N   UNL     1       0.758  -1.980   1.239  0.00  0.00    +0.381 N 
ATOM     23  C   UNL     1       0.740  -0.512   1.242  0.00  0.00    -0.076 C 
ATOM     24  C   UNL     1      -0.728  -2.620  -1.170  0.00  0.00    +0.005 C 
ATOM     25  H   UNL     1       1.188  -2.307   0.386  0.00  0.00    -0.082 HD
ENDBRANCH  16  22
ENDBRANCH  14  16
ENDBRANCH   1  14
TORSDOF 4
