REMARK  Name = ZINC12550493
REMARK  2 active torsions:
REMARK  status: ('A' for Active; 'I' for Inactive)
REMARK    1  A    between atoms: C_1  and  C_2
REMARK    2  A    between atoms: C_10  and  C_13
REMARK                            x       y       z     vdW  Elec       q    Type
REMARK                         _______ _______ _______ _____ _____    ______ ____
ROOT
ATOM      1  C   UNL     1       0.088  -5.156   3.538  0.00  0.00    +0.215 C 
ATOM      2  N   UNL     1       1.213  -4.766   4.407  0.00  0.00    -0.294 N 
ATOM      3  C   UNL     1       1.045  -3.660   5.228  0.00  0.00    +0.159 C 
ATOM      4  N   UNL     1       1.905  -2.681   5.247  0.00  0.00    -0.375 N 
ATOM      5  N   UNL     1      -0.096  -3.652   6.032  0.00  0.00    -0.259 N 
ATOM      6  C   UNL     1      -1.221  -4.246   5.468  0.00  0.00    +0.205 A 
ATOM      7  N   UNL     1      -1.154  -4.968   4.296  0.00  0.00    -0.288 N 
ATOM      8  C   UNL     1      -2.413  -5.422   4.027  0.00  0.00    +0.072 A 
ATOM      9  C   UNL     1      -2.939  -6.196   2.999  0.00  0.00    +0.028 A 
ATOM     10  C   UNL     1      -4.296  -6.470   3.046  0.00  0.00    +0.002 A 
ATOM     11  C   UNL     1      -5.104  -6.001   4.067  0.00  0.00    +0.002 A 
ATOM     12  C   UNL     1      -4.605  -5.230   5.102  0.00  0.00    +0.030 A 
ATOM     13  C   UNL     1      -3.237  -4.940   5.075  0.00  0.00    +0.091 A 
ATOM     14  N   UNL     1      -2.448  -4.232   5.913  0.00  0.00    -0.214 NA
ATOM     15  H   UNL     1       2.045  -5.266   4.405  0.00  0.00    +0.151 HD
ATOM     16  H   UNL     1      -0.103  -3.262   6.920  0.00  0.00    +0.158 HD
ATOM     17  H   UNL     1       2.689  -2.713   4.676  0.00  0.00    +0.158 HD
ATOM     18  H   UNL     1       1.761  -1.920   5.831  0.00  0.00    +0.158 HD
ENDROOT
BRANCH   1  28
ATOM     19  C   UNL     1      -0.018   1.503   0.010  0.00  0.00    +0.044 C 
ATOM     20  C   UNL     1       0.002  -0.004   0.002  0.00  0.00    -0.050 A 
ATOM     21  C   UNL     1       0.006  -0.688  -1.205  0.00  0.00    +0.007 A 
ATOM     22  C   UNL     1       0.024  -2.066  -1.234  0.00  0.00    +0.047 A 
ATOM     23  C   UNL     1       0.039  -2.784  -0.043  0.00  0.00    +0.138 A 
ATOM     24  C   UNL     1       0.036  -2.090   1.178  0.00  0.00    +0.065 A 
ATOM     25  C   UNL     1       0.023  -0.696   1.193  0.00  0.00    +0.018 A 
ATOM     26  C   UNL     1       0.052  -2.874   2.428  0.00  0.00    +0.199 A 
ATOM     27  O   UNL     1       0.050  -2.331   3.519  0.00  0.00    -0.287 OA
ATOM     28  C   UNL     1       0.070  -4.289   2.305  0.00  0.00    +0.075 A 
ATOM     29  C   UNL     1       0.072  -4.850   1.083  0.00  0.00    +0.206 A 
ATOM     30  O   UNL     1       0.057  -4.132  -0.045  0.00  0.00    -0.462 OA
ENDBRANCH   1  28
TORSDOF 1
