REMARK  Name = ZINC02578761
REMARK  5 active torsions:
REMARK  status: ('A' for Active; 'I' for Inactive)
REMARK    1  A    between atoms: C_4  and  C_7
REMARK    2  A    between atoms: C_9  and  N_24
REMARK    3  A    between atoms: C_10  and  C_22
REMARK    4  A    between atoms: C_15  and  C_16
REMARK    5  A    between atoms: C_22  and  O_23
REMARK                            x       y       z     vdW  Elec       q    Type
REMARK                         _______ _______ _______ _____ _____    ______ ____
ROOT
ATOM      1  C   UNL     1       3.738  -0.401  -0.381  0.00  0.00    +0.021 A 
ATOM      2  C   UNL     1       4.008  -1.541  -1.193  0.00  0.00    +0.040 A 
ATOM      3  C   UNL     1       3.101  -2.353  -1.983  0.00  0.00    +0.047 A 
ATOM      4  C   UNL     1       3.594  -3.396  -2.679  0.00  0.00    +0.038 A 
ATOM      5  S   UNL     1       5.338  -3.356  -2.313  0.00  0.00    -0.068 S 
ATOM      6  C   UNL     1       5.365  -1.944  -1.237  0.00  0.00    +0.133 A 
ATOM      7  N   UNL     1       6.303  -1.308  -0.574  0.00  0.00    -0.141 NA
ATOM      8  N   UNL     1       6.045  -0.280   0.156  0.00  0.00    -0.148 NA
ATOM      9  C   UNL     1       4.814   0.205   0.277  0.00  0.00    +0.102 A 
ENDROOT
BRANCH   1  13
ATOM     10  C   UNL     1      -0.209   1.121   0.013  0.00  0.00    +0.000 A 
ATOM     11  C   UNL     1       0.466   1.261  -1.187  0.00  0.00    +0.001 A 
ATOM     12  C   UNL     1       1.748   0.769  -1.321  0.00  0.00    +0.008 A 
ATOM     13  C   UNL     1       2.363   0.130  -0.244  0.00  0.00    -0.015 A 
ATOM     14  C   UNL     1       1.677  -0.007   0.963  0.00  0.00    +0.008 A 
ATOM     15  C   UNL     1       0.395   0.489   1.085  0.00  0.00    +0.001 A 
ENDBRANCH   1  13
BRANCH   9  16
ATOM     16  C   UNL     1       4.576   1.396   1.126  0.00  0.00    +0.003 A 
ATOM     17  C   UNL     1       3.742   2.420   0.678  0.00  0.00    +0.010 A 
ATOM     18  C   UNL     1       3.524   3.526   1.473  0.00  0.00    +0.001 A 
ATOM     19  C   UNL     1       4.132   3.622   2.712  0.00  0.00    +0.000 A 
ATOM     20  C   UNL     1       4.962   2.610   3.162  0.00  0.00    +0.001 A 
ATOM     21  C   UNL     1       5.182   1.496   2.378  0.00  0.00    +0.010 A 
ENDBRANCH   9  16
BRANCH   3  22
ATOM     22  N   UNL     1       1.726  -2.055  -2.022  0.00  0.00    -0.357 N 
ATOM     23  H   UNL     1       1.351  -1.414  -1.397  0.00  0.00    +0.142 HD
ATOM     24  H   UNL     1       1.154  -2.490  -2.672  0.00  0.00    +0.142 HD
ENDBRANCH   3  22
BRANCH   4  25
ATOM     25  C   UNL     1       2.848  -4.366  -3.558  0.00  0.00    +0.200 C 
BRANCH  25  26
ATOM     26  O   UNL     1       2.816  -3.868  -4.897  0.00  0.00    -0.390 OA
ATOM     27  H   UNL     1       2.350  -4.443  -5.520  0.00  0.00    +0.210 HD
ENDBRANCH  25  26
ENDBRANCH   4  25
TORSDOF 5
