REMARK  Name = ZINC42191778
REMARK  4 active torsions:
REMARK  status: ('A' for Active; 'I' for Inactive)
REMARK    1  A    between atoms: C_8  and  O_20
REMARK    2  A    between atoms: C_10  and  N_12
REMARK    3  A    between atoms: N_12  and  S_13
REMARK    4  A    between atoms: S_13  and  C_16
REMARK                            x       y       z     vdW  Elec       q    Type
REMARK                         _______ _______ _______ _____ _____    ______ ____
ROOT
ATOM      1  C   UNL     1      -0.166   1.522   1.320  0.00  0.00    +0.000 A 
ATOM      2  C   UNL     1       1.012   2.229   1.164  0.00  0.00    +0.000 A 
ATOM      3  C   UNL     1       2.182   1.560   0.862  0.00  0.00    +0.005 A 
ATOM      4  C   UNL     1       2.179   0.183   0.715  0.00  0.00    -0.023 A 
ATOM      5  C   UNL     1       1.002  -0.524   0.870  0.00  0.00    -0.040 A 
ATOM      6  C   UNL     1      -0.171   0.149   1.173  0.00  0.00    +0.004 A 
ATOM      7  C   UNL     1       1.259  -2.000   0.660  0.00  0.00    +0.068 C 
ATOM      8  C   UNL     1       2.619  -2.074  -0.066  0.00  0.00    +0.142 C 
ATOM      9  C   UNL     1       3.309  -0.771   0.389  0.00  0.00    +0.135 C 
ENDROOT
BRANCH   9  10
ATOM     10  N   UNL     1       4.125  -1.018   1.581  0.00  0.00    -0.177 NA
ATOM     11  H   UNL     1       3.707  -1.327   2.400  0.00  0.00    +0.149 HD
BRANCH  10  12
ATOM     12  S   UNL     1       5.761  -0.769   1.530  0.00  0.00    +0.127 S 
ATOM     13  O   UNL     1       6.225  -1.140   2.821  0.00  0.00    -0.150 OA
ATOM     14  O   UNL     1       6.199  -1.469   0.374  0.00  0.00    -0.150 OA
BRANCH  12  15
ATOM     15  C   UNL     1       5.954   1.019   1.288  0.00  0.00    +0.536 C 
ATOM     16  F   UNL     1       5.260   1.703   2.291  0.00  0.00    -0.149 F 
ATOM     17  F   UNL     1       7.311   1.354   1.347  0.00  0.00    -0.149 F 
ATOM     18  F   UNL     1       5.439   1.378   0.037  0.00  0.00    -0.149 F 
ENDBRANCH  12  15
ENDBRANCH  10  12
ENDBRANCH   9  10
BRANCH   8  19
ATOM     19  O   UNL     1       3.360  -3.220   0.357  0.00  0.00    -0.390 OA
ATOM     20  H   UNL     1       2.923  -4.062   0.167  0.00  0.00    +0.210 HD
ENDBRANCH   8  19
TORSDOF 4
