REMARK  Name = ZINC13241790
REMARK  6 active torsions:
REMARK  status: ('A' for Active; 'I' for Inactive)
REMARK    1  A    between atoms: C_4  and  C_7
REMARK    2  A    between atoms: C_7  and  C_27
REMARK    3  A    between atoms: N_10  and  C_14
REMARK    4  A    between atoms: C_14  and  C_15
REMARK    5  A    between atoms: N_17  and  C_18
REMARK    6  A    between atoms: C_23  and  C_24
REMARK                            x       y       z     vdW  Elec       q    Type
REMARK                         _______ _______ _______ _____ _____    ______ ____
ROOT
ATOM      1  C   UNL     1      -1.244   2.008   0.168  0.00  0.00    +0.164 C 
ATOM      2  C   UNL     1       0.048   1.217   0.218  0.00  0.00    +0.256 C 
ATOM      3  O   UNL     1       0.167   0.011   0.256  0.00  0.00    -0.272 OA
ATOM      4  N   UNL     1       1.036   2.133   0.205  0.00  0.00    -0.215 N 
ATOM      5  C   UNL     1       0.553   3.380   0.160  0.00  0.00    +0.310 C 
ATOM      6  O   UNL     1       1.252   4.374   0.141  0.00  0.00    -0.252 OA
ATOM      7  N   UNL     1      -0.791   3.409   0.139  0.00  0.00    -0.278 N 
ATOM      8  H   UNL     1      -1.353   4.199   0.105  0.00  0.00    +0.152 HD
ENDROOT
BRANCH   1  12
ATOM      9  C   UNL     1      -3.452   1.059  -3.363  0.00  0.00    +0.000 A 
ATOM     10  C   UNL     1      -3.629   2.283  -2.745  0.00  0.00    +0.000 A 
ATOM     11  C   UNL     1      -2.914   2.590  -1.603  0.00  0.00    +0.006 A 
ATOM     12  C   UNL     1      -2.023   1.673  -1.077  0.00  0.00    -0.011 A 
ATOM     13  C   UNL     1      -1.842   0.452  -1.698  0.00  0.00    +0.006 A 
ATOM     14  C   UNL     1      -2.560   0.143  -2.839  0.00  0.00    +0.000 A 
ENDBRANCH   1  12
BRANCH   1  15
ATOM     15  C   UNL     1      -2.073   1.747   1.400  0.00  0.00    -0.011 A 
ATOM     16  C   UNL     1      -2.927   0.661   1.441  0.00  0.00    +0.006 A 
ATOM     17  C   UNL     1      -3.684   0.420   2.572  0.00  0.00    +0.000 A 
ATOM     18  C   UNL     1      -3.594   1.270   3.659  0.00  0.00    +0.000 A 
ATOM     19  C   UNL     1      -2.744   2.359   3.615  0.00  0.00    +0.000 A 
ATOM     20  C   UNL     1      -1.984   2.598   2.486  0.00  0.00    +0.006 A 
ENDBRANCH   1  15
BRANCH   4  21
ATOM     21  C   UNL     1       2.464   1.804   0.238  0.00  0.00    +0.214 C 
BRANCH  21  22
ATOM     22  C   UNL     1       2.975   1.647  -1.171  0.00  0.00    +0.235 C 
ATOM     23  O   UNL     1       2.222   1.796  -2.109  0.00  0.00    -0.274 OA
ATOM     24  N   UNL     1       4.270   1.342  -1.387  0.00  0.00    -0.283 N 
ATOM     25  H   UNL     1       4.853   1.141  -0.638  0.00  0.00    +0.155 HD
BRANCH  24  26
ATOM     26  C   UNL     1       4.771   1.314  -2.686  0.00  0.00    +0.050 A 
ATOM     27  C   UNL     1       4.167   2.066  -3.682  0.00  0.00    +0.062 A 
ATOM     28  C   UNL     1       4.669   2.041  -4.971  0.00  0.00    +0.125 A 
ATOM     29  C   UNL     1       5.772   1.255  -5.279  0.00  0.00    +0.039 A 
ATOM     30  C   UNL     1       6.380   0.498  -4.303  0.00  0.00    +0.020 A 
ATOM     31  C   UNL     1       5.887   0.519  -2.995  0.00  0.00    +0.084 A 
ATOM     32  F   UNL     1       4.080   2.780  -5.936  0.00  0.00    -0.205 F 
BRANCH  31  33
ATOM     33  C   UNL     1       6.534  -0.288  -1.947  0.00  0.00    +0.388 C 
ATOM     34  O   UNL     1       6.046  -0.344  -0.835  0.00  0.00    -0.241 OA
ATOM     35  O   UNL     1       7.666  -0.965  -2.220  0.00  0.00    -0.241 OA
ENDBRANCH  31  33
ENDBRANCH  24  26
ENDBRANCH  21  22
ENDBRANCH   4  21
TORSDOF 6
