REMARK  Name = ZINC67286761
REMARK  12 active torsions:
REMARK  status: ('A' for Active; 'I' for Inactive)
REMARK    1  A    between atoms: C_1  and  C_2
REMARK    2  A    between atoms: C_2  and  O_3
REMARK    3  A    between atoms: O_3  and  C_4
REMARK    4  A    between atoms: C_7  and  C_12
REMARK    5  A    between atoms: C_9  and  O_10
REMARK    6  A    between atoms: O_10  and  C_11
REMARK    7  A    between atoms: C_14  and  C_33
REMARK    8  A    between atoms: C_15  and  C_20
REMARK    9  A    between atoms: C_20  and  N_21
REMARK   10  A    between atoms: C_33  and  O_35
REMARK   11  A    between atoms: O_35  and  C_36
REMARK   12  A    between atoms: C_36  and  C_37
REMARK                            x       y       z     vdW  Elec       q    Type
REMARK                         _______ _______ _______ _____ _____    ______ ____
ROOT
ATOM      1  C   UNL     1       0.936  -6.493  -1.451  0.00  0.00    +0.144 C 
ATOM      2  C   UNL     1      -0.373  -7.146  -1.846  0.00  0.00    +0.079 C 
ATOM      3  C   UNL     1      -0.979  -7.941  -0.938  0.00  0.00    +0.038 C 
ATOM      4  N   UNL     1      -0.428  -8.149   0.294  0.00  0.00    -0.271 N 
ATOM      5  C   UNL     1       0.724  -7.598   0.696  0.00  0.00    +0.304 C 
ATOM      6  O   UNL     1       1.135  -7.843   1.813  0.00  0.00    -0.252 OA
ATOM      7  N   UNL     1       1.443  -6.782  -0.099  0.00  0.00    -0.288 N 
ATOM      8  H   UNL     1      -0.899  -8.727   0.914  0.00  0.00    +0.156 HD
ATOM      9  H   UNL     1       2.276  -6.394   0.212  0.00  0.00    +0.151 HD
ENDROOT
BRANCH   1  13
ATOM     10  C   UNL     1       0.459  -2.258  -1.809  0.00  0.00    +0.162 A 
ATOM     11  C   UNL     1       1.088  -2.975  -2.815  0.00  0.00    +0.050 A 
ATOM     12  C   UNL     1       1.241  -4.344  -2.696  0.00  0.00    +0.009 A 
ATOM     13  C   UNL     1       0.767  -5.001  -1.575  0.00  0.00    -0.019 A 
ATOM     14  C   UNL     1       0.138  -4.292  -0.569  0.00  0.00    +0.055 A 
ATOM     15  C   UNL     1      -0.013  -2.919  -0.679  0.00  0.00    +0.162 A 
BRANCH  15  16
ATOM     16  O   UNL     1      -0.626  -2.219   0.313  0.00  0.00    -0.491 OA
ATOM     17  C   UNL     1      -0.991  -2.945   1.488  0.00  0.00    +0.277 C 
ENDBRANCH  15  16
BRANCH  10  18
ATOM     18  O   UNL     1       0.308  -0.912  -1.925  0.00  0.00    -0.489 OA
BRANCH  18  20
ATOM     19  C   UNL     1       0.557   1.206  -3.062  0.00  0.00    +0.048 C 
ATOM     20  C   UNL     1       0.817  -0.301  -3.112  0.00  0.00    +0.226 C 
ENDBRANCH  18  20
ENDBRANCH  10  18
ENDBRANCH   1  13
BRANCH   2  21
ATOM     21  C   UNL     1      -0.942  -6.929  -3.123  0.00  0.00    +0.339 C 
ATOM     22  O   UNL     1      -0.484  -7.496  -4.098  0.00  0.00    -0.245 OA
BRANCH  21  23
ATOM     23  O   UNL     1      -1.993  -6.094  -3.261  0.00  0.00    -0.462 OA
BRANCH  23  24
ATOM     24  C   UNL     1      -2.590  -6.010  -4.557  0.00  0.00    +0.229 C 
ATOM     25  C   UNL     1      -3.681  -4.938  -4.547  0.00  0.00    +0.048 C 
ENDBRANCH  23  24
ENDBRANCH  21  23
ENDBRANCH   2  21
BRANCH   3  26
ATOM     26  C   UNL     1      -2.283  -8.609  -1.290  0.00  0.00    +0.136 C 
BRANCH  26  27
ATOM     27  N   UNL     1      -2.098 -10.066  -1.305  0.00  0.00    -0.294 NA
ATOM     28  C   UNL     1      -1.187 -10.471  -2.384  0.00  0.00    +0.103 C 
ATOM     29  C   UNL     1      -0.878 -11.966  -2.255  0.00  0.00    +0.122 C 
ATOM     30  N   UNL     1      -2.150 -12.703  -2.205  0.00  0.00    -0.314 N 
ATOM     31  C   UNL     1      -3.170 -12.267  -1.239  0.00  0.00    +0.122 C 
ATOM     32  C   UNL     1      -3.389 -10.760  -1.409  0.00  0.00    +0.103 C 
ATOM     33  C   UNL     1      -2.382 -13.783  -3.049  0.00  0.00    +0.099 A 
ATOM     34  C   UNL     1      -1.353 -14.262  -3.855  0.00  0.00    +0.042 A 
ATOM     35  C   UNL     1      -1.598 -15.337  -4.689  0.00  0.00    +0.005 A 
ATOM     36  C   UNL     1      -2.868 -15.900  -4.690  0.00  0.00    +0.018 A 
ATOM     37  C   UNL     1      -3.841 -15.375  -3.865  0.00  0.00    +0.084 A 
ATOM     38  N   UNL     1      -3.578 -14.351  -3.074  0.00  0.00    -0.350 N 
ATOM     39  H   UNL     1      -4.279 -14.003  -2.501  0.00  0.00    +0.166 HD
ENDBRANCH  26  27
ENDBRANCH   3  26
TORSDOF 9
