REMARK  Name = ZINC22058406
REMARK  10 active torsions:
REMARK  status: ('A' for Active; 'I' for Inactive)
REMARK    1  A    between atoms: C_1  and  O_2
REMARK    2  A    between atoms: O_2  and  C_3
REMARK    3  A    between atoms: C_3  and  C_5
REMARK    4  A    between atoms: C_7  and  O_37
REMARK    5  A    between atoms: C_9  and  O_36
REMARK    6  A    between atoms: C_11  and  O_35
REMARK    7  A    between atoms: C_13  and  O_16
REMARK    8  A    between atoms: O_16  and  C_17
REMARK    9  A    between atoms: C_25  and  C_28
REMARK   10  A    between atoms: C_31  and  O_34
REMARK                            x       y       z     vdW  Elec       q    Type
REMARK                         _______ _______ _______ _____ _____    ______ ____
ROOT
ATOM      1  C   UNL     1       4.259   1.634  -2.117  0.00  0.00    +0.127 A 
ATOM      2  C   UNL     1       3.970   0.446  -2.775  0.00  0.00    +0.046 A 
ATOM      3  C   UNL     1       2.792  -0.220  -2.506  0.00  0.00    +0.011 A 
ATOM      4  C   UNL     1       1.893   0.288  -1.582  0.00  0.00    -0.005 A 
ATOM      5  C   UNL     1       2.179   1.470  -0.920  0.00  0.00    +0.127 A 
ATOM      6  C   UNL     1       3.365   2.144  -1.191  0.00  0.00    +0.091 A 
ATOM      7  O   UNL     1       1.331   1.998   0.000  0.00  0.00    -0.491 OA
ATOM      8  C   UNL     1      -0.019   1.530   0.011  0.00  0.00    +0.237 C 
ATOM      9  C   UNL     1       0.002  -0.004   0.002  0.00  0.00    +0.061 C 
ATOM     10  C   UNL     1       0.616  -0.469  -1.321  0.00  0.00    +0.050 C 
ENDROOT
BRANCH   9  11
ATOM     11  C   UNL     1      -1.404  -0.532   0.122  0.00  0.00    -0.041 A 
ATOM     12  C   UNL     1      -2.349  -0.203  -0.833  0.00  0.00    +0.007 A 
ATOM     13  C   UNL     1      -3.637  -0.690  -0.728  0.00  0.00    +0.045 A 
ATOM     14  C   UNL     1      -3.986  -1.500   0.343  0.00  0.00    +0.117 A 
ATOM     15  C   UNL     1      -3.038  -1.824   1.303  0.00  0.00    +0.045 A 
ATOM     16  C   UNL     1      -1.750  -1.339   1.190  0.00  0.00    +0.007 A 
BRANCH  14  17
ATOM     17  O   UNL     1      -5.254  -1.977   0.452  0.00  0.00    -0.507 OA
ATOM     18  H   UNL     1      -5.530  -2.619   1.301  0.00  0.00    +0.292 HD
ENDBRANCH  14  17
ENDBRANCH   9  11
BRANCH   1  19
ATOM     19  O   UNL     1       5.417   2.294  -2.380  0.00  0.00    -0.461 OA
BRANCH  19  24
ATOM     20  C   UNL     1       7.645  -0.229  -3.759  0.00  0.00    +0.261 C 
ATOM     21  C   UNL     1       8.881   0.632  -4.029  0.00  0.00    +0.185 C 
ATOM     22  C   UNL     1       8.438   1.986  -4.590  0.00  0.00    +0.180 C 
ATOM     23  C   UNL     1       7.475   2.647  -3.600  0.00  0.00    +0.214 C 
ATOM     24  C   UNL     1       6.292   1.708  -3.347  0.00  0.00    +0.340 C 
ATOM     25  O   UNL     1       6.776   0.457  -2.855  0.00  0.00    -0.322 OA
BRANCH  20  26
ATOM     26  C   UNL     1       8.069  -1.541  -3.151  0.00  0.00    +0.339 C 
ATOM     27  O   UNL     1       7.742  -1.817  -2.020  0.00  0.00    -0.248 OA
BRANCH  26  29
ATOM     28  C   UNL     1       9.180  -3.648  -3.215  0.00  0.00    +0.280 C 
ATOM     29  O   UNL     1       8.808  -2.404  -3.865  0.00  0.00    -0.466 OA
ENDBRANCH  26  29
ENDBRANCH  20  26
BRANCH  23  30
ATOM     30  O   UNL     1       8.155   2.901  -2.369  0.00  0.00    -0.383 OA
ATOM     31  H   UNL     1       7.620   3.374  -1.532  0.00  0.00    +0.210 HD
ENDBRANCH  23  30
BRANCH  22  32
ATOM     32  O   UNL     1       9.581   2.824  -4.776  0.00  0.00    -0.386 OA
ATOM     33  H   UNL     1       9.458   3.842  -5.175  0.00  0.00    +0.210 HD
ENDBRANCH  22  32
BRANCH  21  34
ATOM     34  O   UNL     1       9.724  -0.027  -4.976  0.00  0.00    -0.386 OA
ATOM     35  H   UNL     1      10.666   0.444  -5.295  0.00  0.00    +0.210 HD
ENDBRANCH  21  34
ENDBRANCH  19  24
ENDBRANCH   1  19
TORSDOF 9
