REMARK  Name = ZINC15757236
REMARK  7 active torsions:
REMARK  status: ('A' for Active; 'I' for Inactive)
REMARK    1  A    between atoms: C_1  and  C_2
REMARK    2  A    between atoms: C_5  and  C_25
REMARK    3  A    between atoms: C_7  and  N_8
REMARK    4  A    between atoms: C_9  and  C_11
REMARK    5  A    between atoms: C_12  and  C_24
REMARK    6  A    between atoms: C_25  and  O_27
REMARK    7  A    between atoms: O_27  and  C_28
REMARK                            x       y       z     vdW  Elec       q    Type
REMARK                         _______ _______ _______ _____ _____    ______ ____
ROOT
ATOM      1  N   UNL     1      -1.200  -0.720   0.010  0.00  0.00    -0.281 N 
ATOM      2  C   UNL     1      -2.373  -0.066   0.126  0.00  0.00    +0.255 C 
ATOM      3  O   UNL     1      -2.393   1.151   0.133  0.00  0.00    -0.269 OA
ATOM      4  H   UNL     1      -1.188  -1.687  -0.062  0.00  0.00    +0.155 HD
ENDROOT
BRANCH   2   5
ATOM      5  C   UNL     1      -3.624  -0.821   0.244  0.00  0.00    +0.080 A 
ATOM      6  C   UNL     1      -4.896  -0.346   0.375  0.00  0.00    -0.017 A 
ATOM      7  C   UNL     1      -5.965  -1.239   0.470  0.00  0.00    +0.076 A 
ATOM      8  C   UNL     1      -5.627  -2.611   0.433  0.00  0.00    +0.116 A 
ATOM      9  S   UNL     1      -3.860  -2.590   0.261  0.00  0.00    -0.064 S 
ATOM     10  N   UNL     1      -6.549  -3.556   0.520  0.00  0.00    -0.226 NA
ATOM     11  C   UNL     1      -7.825  -3.280   0.646  0.00  0.00    +0.114 A 
ATOM     12  N   UNL     1      -8.273  -2.000   0.690  0.00  0.00    -0.296 N 
ATOM     13  C   UNL     1      -7.410  -0.960   0.611  0.00  0.00    +0.263 A 
ATOM     14  O   UNL     1      -7.817   0.187   0.656  0.00  0.00    -0.267 OA
ATOM     15  C   UNL     1      -9.740  -1.964   0.827  0.00  0.00    +0.127 C 
ATOM     16  C   UNL     1     -10.148  -3.370   1.313  0.00  0.00    +0.029 C 
ATOM     17  C   UNL     1      -8.996  -4.239   0.764  0.00  0.00    +0.076 C 
ATOM     18  C   UNL     1      -5.147   1.140   0.413  0.00  0.00    +0.046 C 
ENDBRANCH   2   5
BRANCH   1  25
ATOM     19  C   UNL     1       1.081  -1.902   1.223  0.00  0.00    +0.045 C 
ATOM     20  C   UNL     1       1.142  -0.544   0.574  0.00  0.00    -0.029 A 
ATOM     21  C   UNL     1       2.332   0.160   0.559  0.00  0.00    +0.006 A 
ATOM     22  C   UNL     1       2.395   1.405  -0.034  0.00  0.00    +0.015 A 
ATOM     23  C   UNL     1       1.255   1.956  -0.622  0.00  0.00    +0.061 A 
ATOM     24  C   UNL     1       0.054   1.246  -0.607  0.00  0.00    +0.038 A 
ATOM     25  C   UNL     1       0.002  -0.003  -0.008  0.00  0.00    +0.037 A 
BRANCH  23  26
ATOM     26  C   UNL     1       1.320   3.288  -1.259  0.00  0.00    +0.339 C 
ATOM     27  O   UNL     1       0.328   3.766  -1.770  0.00  0.00    -0.245 OA
BRANCH  26  28
ATOM     28  O   UNL     1       2.481   3.972  -1.272  0.00  0.00    -0.464 OA
ATOM     29  C   UNL     1       2.471   5.274  -1.915  0.00  0.00    +0.280 C 
ENDBRANCH  26  28
ENDBRANCH  23  26
ENDBRANCH   1  25
TORSDOF 4
