REMARK  Name = ZINC08644812
REMARK  6 active torsions:
REMARK  status: ('A' for Active; 'I' for Inactive)
REMARK    1  A    between atoms: C_1  and  C_2
REMARK    2  A    between atoms: C_2  and  C_4
REMARK    3  A    between atoms: C_2  and  S_15
REMARK    4  A    between atoms: S_15  and  C_16
REMARK    5  A    between atoms: C_19  and  C_22
REMARK    6  A    between atoms: N_20  and  N_21
REMARK                            x       y       z     vdW  Elec       q    Type
REMARK                         _______ _______ _______ _____ _____    ______ ____
ROOT
ATOM      1  C   UNL     1       2.042   0.582  -0.016  0.00  0.00    +0.209 A 
ATOM      2  N   UNL     1       1.214  -0.437   0.007  0.00  0.00    -0.121 NA
ATOM      3  N   UNL     1      -0.001  -0.019   0.025  0.00  0.00    -0.127 NA
ATOM      4  C   UNL     1      -0.023   1.294   0.015  0.00  0.00    +0.183 A 
ATOM      5  N   UNL     1       1.285   1.719  -0.012  0.00  0.00    -0.224 N 
ENDROOT
BRANCH   4   6
ATOM      6  C   UNL     1      -1.226   2.152   0.024  0.00  0.00    +0.039 A 
ATOM      7  C   UNL     1      -1.096   3.542   0.016  0.00  0.00    +0.014 A 
ATOM      8  C   UNL     1      -2.222   4.338   0.019  0.00  0.00    +0.021 A 
ATOM      9  C   UNL     1      -3.481   3.762   0.042  0.00  0.00    +0.042 A 
ATOM     10  C   UNL     1      -3.619   2.385   0.054  0.00  0.00    +0.040 A 
ATOM     11  C   UNL     1      -2.499   1.577   0.046  0.00  0.00    +0.053 A 
ATOM     12 CL   UNL     1      -2.672  -0.151   0.063  0.00  0.00    -0.083 Cl
ATOM     13 CL   UNL     1      -4.894   4.771   0.053  0.00  0.00    -0.083 Cl
ENDBRANCH   4   6
BRANCH   5  14
ATOM     14  N   UNL     1       1.733   3.010  -0.030  0.00  0.00    -0.295 N 
ATOM     15  H   UNL     1       1.868   3.359   0.906  0.00  0.00    +0.163 HD
ATOM     16  H   UNL     1       2.580   3.090  -0.573  0.00  0.00    +0.163 HD
ENDBRANCH   5  14
BRANCH   1  17
ATOM     17  S   UNL     1       3.802   0.499  -0.046  0.00  0.00    -0.072 S 
BRANCH  17  19
ATOM     18  C   UNL     1       3.514  -1.869   1.286  0.00  0.00    +0.029 C 
ATOM     19  C   UNL     1       4.031  -1.296  -0.035  0.00  0.00    +0.137 C 
BRANCH  19  20
ATOM     20  C   UNL     1       5.497  -1.616  -0.181  0.00  0.00    +0.233 C 
ATOM     21  O   UNL     1       6.330  -0.778   0.089  0.00  0.00    -0.274 OA
ATOM     22  N   UNL     1       5.881  -2.834  -0.613  0.00  0.00    -0.270 N 
ATOM     23  C   UNL     1       4.972  -3.889  -1.068  0.00  0.00    +0.118 C 
ATOM     24  C   UNL     1       5.882  -5.067  -1.454  0.00  0.00    +0.056 C 
ATOM     25  C   UNL     1       7.283  -4.575  -1.168  0.00  0.00    -0.024 A 
ATOM     26  C   UNL     1       7.205  -3.278  -0.685  0.00  0.00    +0.040 A 
ATOM     27  C   UNL     1       8.382  -2.608  -0.348  0.00  0.00    +0.024 A 
ATOM     28  C   UNL     1       9.604  -3.232  -0.497  0.00  0.00    +0.002 A 
ATOM     29  C   UNL     1       9.670  -4.525  -0.980  0.00  0.00    +0.000 A 
ATOM     30  C   UNL     1       8.508  -5.196  -1.315  0.00  0.00    +0.005 A 
ENDBRANCH  19  20
ENDBRANCH  17  19
ENDBRANCH   1  17
TORSDOF 5
