REMARK  Name = ZINC64697317
REMARK  11 active torsions:
REMARK  status: ('A' for Active; 'I' for Inactive)
REMARK    1  A    between atoms: C_1  and  C_2
REMARK    2  A    between atoms: C_2  and  C_3
REMARK    3  A    between atoms: C_3  and  C_4
REMARK    4  A    between atoms: C_4  and  N_5
REMARK    5  A    between atoms: C_6  and  N_31
REMARK    6  A    between atoms: C_8  and  N_15
REMARK    7  A    between atoms: N_15  and  C_16
REMARK    8  A    between atoms: C_17  and  C_19
REMARK    9  A    between atoms: C_19  and  C_20
REMARK   10  A    between atoms: C_20  and  C_21
REMARK   11  A    between atoms: C_21  and  C_22
REMARK                            x       y       z     vdW  Elec       q    Type
REMARK                         _______ _______ _______ _____ _____    ______ ____
ROOT
ATOM      1  N   UNL     1      -5.241  -4.326   1.718  0.00  0.00    -0.293 N 
ATOM      2  C   UNL     1      -6.395  -3.427   1.639  0.00  0.00    +0.133 C 
ATOM      3  C   UNL     1      -5.262  -5.375   2.565  0.00  0.00    +0.216 C 
ATOM      4  O   UNL     1      -4.307  -6.120   2.631  0.00  0.00    -0.276 OA
ENDROOT
BRANCH   1   7
ATOM      5  N   UNL     1      -2.355  -2.455   0.326  0.00  0.00    -0.296 N 
ATOM      6  C   UNL     1      -3.339  -2.823   1.359  0.00  0.00    +0.047 C 
ATOM      7  C   UNL     1      -4.066  -4.086   0.878  0.00  0.00    +0.166 C 
ATOM      8  C   UNL     1      -4.496  -3.885  -0.552  0.00  0.00    +0.261 C 
ATOM      9  N   UNL     1      -3.834  -3.069  -1.363  0.00  0.00    -0.126 NA
ATOM     10  C   UNL     1      -2.788  -2.366  -0.964  0.00  0.00    +0.327 C 
ATOM     11  O   UNL     1      -2.145  -1.564  -1.833  0.00  0.00    -0.250 OA
ATOM     12  O   UNL     1      -5.468  -4.482  -0.971  0.00  0.00    -0.272 OA
BRANCH   6  13
ATOM     13  N   UNL     1      -4.303  -1.730   1.540  0.00  0.00    +0.392 N 
ATOM     14  H   UNL     1      -4.892  -1.662   0.723  0.00  0.00    -0.087 HD
ATOM     15  H   UNL     1      -4.874  -1.915   2.351  0.00  0.00    -0.087 HD
ATOM     16  H   UNL     1      -3.807  -0.861   1.669  0.00  0.00    -0.087 HD
ENDBRANCH   6  13
BRANCH   5  17
ATOM     17  C   UNL     1      -0.958  -2.189   0.674  0.00  0.00    +0.107 C 
BRANCH  17  18
ATOM     18  C   UNL     1      -0.787  -0.703   0.998  0.00  0.00    +0.019 C 
BRANCH  18  20
ATOM     19  C   UNL     1       0.843   1.061   1.686  0.00  0.00    +0.004 C 
ATOM     20  C   UNL     1       0.672  -0.425   1.362  0.00  0.00    -0.002 C 
ENDBRANCH  18  20
ENDBRANCH  17  18
ENDBRANCH   5  17
ENDBRANCH   1   7
BRANCH   3  21
ATOM     21  C   UNL     1      -6.471  -5.622   3.429  0.00  0.00    +0.096 C 
BRANCH  21  22
ATOM     22  C   UNL     1      -6.237  -6.865   4.290  0.00  0.00    +0.014 C 
BRANCH  22  23
ATOM     23  C   UNL     1      -7.465  -7.115   5.168  0.00  0.00    +0.033 C 
BRANCH  23  24
ATOM     24  C   UNL     1      -7.235  -8.340   6.016  0.00  0.00    -0.042 C 
ATOM     25  C   UNL     1      -6.774  -8.373   7.287  0.00  0.00    -0.001 A 
ATOM     26  C   UNL     1      -6.364  -7.321   8.225  0.00  0.00    +0.010 A 
ATOM     27  C   UNL     1      -5.937  -7.672   9.459  0.00  0.00    +0.001 A 
ATOM     28  C   UNL     1      -5.875  -9.012   9.864  0.00  0.00    +0.002 A 
ATOM     29  C   UNL     1      -6.235 -10.034   9.060  0.00  0.00    +0.026 A 
ATOM     30  C   UNL     1      -6.700  -9.781   7.740  0.00  0.00    +0.043 A 
ATOM     31  N   UNL     1      -7.100 -10.586   6.786  0.00  0.00    -0.380 N 
ATOM     32  C   UNL     1      -7.479  -9.779   5.620  0.00  0.00    +0.144 C 
ATOM     33  H   UNL     1      -7.142 -11.554   6.842  0.00  0.00    +0.160 HD
ENDBRANCH  23  24
ENDBRANCH  22  23
ENDBRANCH  21  22
ENDBRANCH   3  21
TORSDOF 9
