REMARK  Name = ZINC23281699
REMARK  6 active torsions:
REMARK  status: ('A' for Active; 'I' for Inactive)
REMARK    1  A    between atoms: C_6  and  N_7
REMARK    2  A    between atoms: C_13  and  C_15
REMARK    3  A    between atoms: C_15  and  S_16
REMARK    4  A    between atoms: S_16  and  C_17
REMARK    5  A    between atoms: C_20  and  C_23
REMARK    6  A    between atoms: N_21  and  N_22
REMARK                            x       y       z     vdW  Elec       q    Type
REMARK                         _______ _______ _______ _____ _____    ______ ____
ROOT
ATOM      1  C   UNL     1      -6.101   6.404  10.189  0.00  0.00    +0.033 A 
ATOM      2  C   UNL     1      -5.771   5.067  10.310  0.00  0.00    +0.008 A 
ATOM      3  C   UNL     1      -5.115   4.418   9.282  0.00  0.00    -0.024 A 
ATOM      4  C   UNL     1      -4.782   5.098   8.121  0.00  0.00    +0.042 A 
ATOM      5  C   UNL     1      -5.118   6.448   8.006  0.00  0.00    +0.056 A 
ATOM      6  C   UNL     1      -5.773   7.091   9.035  0.00  0.00    +0.128 A 
ATOM      7  N   UNL     1      -4.126   4.267   7.208  0.00  0.00    -0.270 N 
ATOM      8  C   UNL     1      -3.997   2.916   7.761  0.00  0.00    +0.118 C 
ATOM      9  C   UNL     1      -4.644   2.987   9.154  0.00  0.00    +0.056 C 
ATOM     10  C   UNL     1      -3.683   4.650   5.994  0.00  0.00    +0.230 C 
ATOM     11  O   UNL     1      -3.843   5.794   5.624  0.00  0.00    -0.274 OA
ENDROOT
BRANCH   6  12
ATOM     12  N   UNL     1      -6.126   8.523   8.903  0.00  0.00    +0.056 N 
ATOM     13  O   UNL     1      -5.838   9.130   7.888  0.00  0.00    -0.126 OA
ATOM     14  O   UNL     1      -6.705   9.093   9.810  0.00  0.00    -0.126 OA
ENDBRANCH   6  12
BRANCH  10  15
ATOM     15  C   UNL     1      -2.989   3.658   5.098  0.00  0.00    +0.173 C 
BRANCH  15  16
ATOM     16  S   UNL     1      -2.517   4.470   3.550  0.00  0.00    -0.075 S 
BRANCH  16  17
ATOM     17  C   UNL     1      -1.749   3.120   2.718  0.00  0.00    +0.209 A 
ATOM     18  N   UNL     1      -1.606   1.899   3.178  0.00  0.00    -0.121 NA
ATOM     19  N   UNL     1      -1.005   1.171   2.305  0.00  0.00    -0.123 NA
ATOM     20  C   UNL     1      -0.722   1.881   1.250  0.00  0.00    +0.255 A 
ATOM     21  N   UNL     1      -1.189   3.147   1.473  0.00  0.00    -0.220 N 
BRANCH  20  22
ATOM     22  C   UNL     1      -0.017   1.395   0.010  0.00  0.00    +0.454 C 
ATOM     23  F   UNL     1       0.002  -0.004   0.002  0.00  0.00    -0.163 F 
ATOM     24  F   UNL     1       1.296   1.879  -0.000  0.00  0.00    -0.163 F 
ATOM     25  F   UNL     1      -0.694   1.858  -1.124  0.00  0.00    -0.163 F 
ENDBRANCH  20  22
BRANCH  21  26
ATOM     26  N   UNL     1      -1.111   4.216   0.626  0.00  0.00    -0.295 N 
ATOM     27  H   UNL     1      -0.631   4.105  -0.357  0.00  0.00    +0.163 HD
ATOM     28  H   UNL     1      -1.529   5.188   0.927  0.00  0.00    +0.163 HD
ENDBRANCH  21  26
ENDBRANCH  16  17
ENDBRANCH  15  16
ENDBRANCH  10  15
TORSDOF 6
