REMARK  Name = ZINC21526691
REMARK  8 active torsions:
REMARK  status: ('A' for Active; 'I' for Inactive)
REMARK    1  A    between atoms: C_1  and  C_2
REMARK    2  A    between atoms: N_8  and  C_9
REMARK    3  A    between atoms: C_9  and  C_10
REMARK    4  A    between atoms: C_10  and  C_11
REMARK    5  A    between atoms: C_11  and  N_12
REMARK    6  A    between atoms: C_21  and  C_22
REMARK    7  A    between atoms: C_21  and  C_23
REMARK    8  A    between atoms: N_25  and  C_26
REMARK                            x       y       z     vdW  Elec       q    Type
REMARK                         _______ _______ _______ _____ _____    ______ ____
ROOT
ATOM      1  N   UNL     1      -2.478   7.076  -3.448  0.00  0.00    -0.281 N 
ATOM      2  C   UNL     1      -3.675   7.494  -2.974  0.00  0.00    +0.264 C 
ATOM      3  O   UNL     1      -4.474   6.722  -2.477  0.00  0.00    -0.268 OA
ATOM      4  C   UNL     1      -3.958   8.930  -3.085  0.00  0.00    +0.109 A 
ATOM      5  C   UNL     1      -4.959   9.683  -2.547  0.00  0.00    +0.079 A 
ATOM      6  C   UNL     1      -4.751  11.010  -2.951  0.00  0.00    +0.153 A 
ATOM      7  C   UNL     1      -3.605  11.035  -3.745  0.00  0.00    +0.088 A 
ATOM      8  N   UNL     1      -3.127   9.762  -3.832  0.00  0.00    -0.331 N 
ATOM      9  C   UNL     1      -1.966   9.239  -4.557  0.00  0.00    +0.157 C 
ATOM     10  C   UNL     1      -1.426   8.013  -3.823  0.00  0.00    +0.128 C 
ATOM     11  C   UNL     1      -0.426   7.295  -4.731  0.00  0.00    +0.043 C 
ATOM     12  C   UNL     1      -3.421  12.386  -4.128  0.00  0.00    +0.067 A 
ATOM     13  C   UNL     1      -4.422  13.095  -3.578  0.00  0.00    +0.198 A 
ATOM     14  O   UNL     1      -5.220  12.274  -2.875  0.00  0.00    -0.461 OA
ENDROOT
BRANCH  10  15
ATOM     15  C   UNL     1      -0.712   8.467  -2.576  0.00  0.00    +0.238 C 
ATOM     16  O   UNL     1       0.480   8.688  -2.606  0.00  0.00    -0.273 OA
ATOM     17  N   UNL     1      -1.398   8.628  -1.427  0.00  0.00    -0.311 N 
ATOM     18  H   UNL     1      -2.479   8.428  -1.399  0.00  0.00    +0.149 HD
BRANCH  17  19
ATOM     19  C   UNL     1      -0.703   9.070  -0.215  0.00  0.00    +0.073 C 
ATOM     20  C   UNL     1      -0.062   7.845   0.468  0.00  0.00    +0.022 C 
ATOM     21  C   UNL     1       1.040   8.326   1.375  0.00  0.00    +0.002 C 
ATOM     22  C   UNL     1       0.562   8.523   2.826  0.00  0.00    +0.000 C 
ATOM     23  C   UNL     1      -0.827   9.184   2.913  0.00  0.00    +0.000 C 
ATOM     24  C   UNL     1      -0.991  10.310   1.927  0.00  0.00    +0.002 C 
ATOM     25  C   UNL     1      -1.654   9.751   0.651  0.00  0.00    +0.022 C 
ENDBRANCH  17  19
ENDBRANCH  10  15
BRANCH   1  26
ATOM     26  C   UNL     1      -2.236   5.638  -3.594  0.00  0.00    +0.107 C 
BRANCH  26  27
ATOM     27  C   UNL     1      -1.629   5.089  -2.301  0.00  0.00    +0.000 C 
BRANCH  27  28
ATOM     28  C   UNL     1      -1.375   3.588  -2.454  0.00  0.00    -0.077 C 
BRANCH  28  35
ATOM     29  C   UNL     1      -0.028   1.118  -2.490  0.00  0.00    -0.013 C 
ATOM     30  C   UNL     1      -0.754   1.594  -1.231  0.00  0.00    -0.072 C 
ATOM     31  C   UNL     1      -0.013   1.086   0.008  0.00  0.00    -0.016 C 
ATOM     32  C   UNL     1      -0.731   1.580   1.267  0.00  0.00    -0.003 C 
ATOM     33  C   UNL     1      -0.801   3.110   1.237  0.00  0.00    -0.019 C 
ATOM     34  C   UNL     1      -1.520   3.559  -0.037  0.00  0.00    -0.078 C 
ATOM     35  N   UNL     1      -0.793   3.061  -1.212  0.00  0.00    +0.381 N 
ATOM     36  H   UNL     1       0.244   3.423  -1.143  0.00  0.00    -0.081 HD
ENDBRANCH  28  35
ENDBRANCH  27  28
ENDBRANCH  26  27
ENDBRANCH   1  26
TORSDOF 6
