REMARK  Name = ZINC12479756
REMARK  14 active torsions:
REMARK  status: ('A' for Active; 'I' for Inactive)
REMARK    1  A    between atoms: C_1  and  C_2
REMARK    2  A    between atoms: C_6  and  N_9
REMARK    3  A    between atoms: C_7  and  C_8
REMARK    4  A    between atoms: N_9  and  C_10
REMARK    5  A    between atoms: C_10  and  C_12
REMARK    6  A    between atoms: C_10  and  C_19
REMARK    7  A    between atoms: N_21  and  C_22
REMARK    8  A    between atoms: C_22  and  C_23
REMARK    9  A    between atoms: C_23  and  C_24
REMARK   10  A    between atoms: C_24  and  C_25
REMARK   11  A    between atoms: C_24  and  C_26
REMARK   12  A    between atoms: C_27  and  C_29
REMARK   13  A    between atoms: C_30  and  N_37
REMARK   14  A    between atoms: C_31  and  C_34
REMARK                            x       y       z     vdW  Elec       q    Type
REMARK                         _______ _______ _______ _____ _____    ______ ____
ROOT
ATOM      1  N   UNL     1       4.245   2.112   0.080  0.00  0.00    -0.251 N 
ATOM      2  C   UNL     1       4.276   3.016   1.079  0.00  0.00    +0.262 C 
ATOM      3  O   UNL     1       4.247   4.206   0.825  0.00  0.00    -0.269 OA
ENDROOT
BRANCH   1   9
ATOM      4  C   UNL     1       6.839  -2.011   0.740  0.00  0.00    +0.044 C 
ATOM      5  C   UNL     1       5.523  -1.279   0.699  0.00  0.00    -0.046 A 
ATOM      6  C   UNL     1       4.346  -1.960   0.951  0.00  0.00    +0.004 A 
ATOM      7  C   UNL     1       3.135  -1.292   0.915  0.00  0.00    +0.002 A 
ATOM      8  C   UNL     1       3.099   0.058   0.626  0.00  0.00    +0.024 A 
ATOM      9  C   UNL     1       4.279   0.745   0.373  0.00  0.00    +0.041 A 
ATOM     10  C   UNL     1       5.493   0.071   0.410  0.00  0.00    -0.026 A 
ATOM     11  C   UNL     1       6.776   0.812   0.136  0.00  0.00    +0.046 C 
ENDBRANCH   1   9
BRANCH   2  12
ATOM     12  C   UNL     1       4.345   2.567   2.471  0.00  0.00    +0.116 A 
ATOM     13  C   UNL     1       4.386   3.323   3.644  0.00  0.00    +0.076 A 
ATOM     14  C   UNL     1       4.450   2.529   4.789  0.00  0.00    +0.155 A 
ATOM     15  N   UNL     1       4.464   1.220   4.665  0.00  0.00    -0.203 NA
ATOM     16  S   UNL     1       4.392   0.909   3.121  0.00  0.00    +0.019 S 
BRANCH  14  17
ATOM     17  C   UNL     1       4.501   3.151   6.125  0.00  0.00    +0.262 C 
ATOM     18  O   UNL     1       4.488   4.362   6.233  0.00  0.00    -0.269 OA
ATOM     19  N   UNL     1       4.562   2.377   7.227  0.00  0.00    -0.324 N 
ATOM     20  H   UNL     1       4.572   1.411   7.141  0.00  0.00    +0.145 HD
ATOM     21  H   UNL     1       4.595   2.786   8.106  0.00  0.00    +0.145 HD
ENDBRANCH  14  17
BRANCH  13  22
ATOM     22  N   UNL     1       4.367   4.711   3.668  0.00  0.00    -0.355 N 
ATOM     23  H   UNL     1       4.323   5.210   2.837  0.00  0.00    +0.142 HD
ATOM     24  H   UNL     1       4.398   5.182   4.516  0.00  0.00    +0.142 HD
ENDBRANCH  13  22
ENDBRANCH   2  12
BRANCH   1  25
ATOM     25  C   UNL     1       4.176   2.561  -1.312  0.00  0.00    +0.197 C 
BRANCH  25  26
ATOM     26  C   UNL     1       4.296   1.372  -2.231  0.00  0.00    -0.018 A 
ATOM     27  C   UNL     1       3.353   0.363  -2.180  0.00  0.00    +0.007 A 
ATOM     28  C   UNL     1       3.459  -0.725  -3.026  0.00  0.00    +0.020 A 
ATOM     29  C   UNL     1       4.515  -0.809  -3.915  0.00  0.00    +0.041 A 
ATOM     30  C   UNL     1       5.462   0.199  -3.961  0.00  0.00    +0.020 A 
ATOM     31  C   UNL     1       5.351   1.289  -3.119  0.00  0.00    +0.007 A 
ATOM     32 CL   UNL     1       4.654  -2.179  -4.973  0.00  0.00    -0.084 Cl
ENDBRANCH  25  26
BRANCH  25  33
ATOM     33  C   UNL     1       2.857   3.251  -1.553  0.00  0.00    +0.238 C 
ATOM     34  O   UNL     1       2.055   3.356  -0.650  0.00  0.00    -0.273 OA
ATOM     35  N   UNL     1       2.571   3.750  -2.771  0.00  0.00    -0.313 N 
ATOM     36  H   UNL     1       3.212   3.666  -3.493  0.00  0.00    +0.149 HD
BRANCH  35  37
ATOM     37  C   UNL     1       1.289   4.420  -3.005  0.00  0.00    +0.104 C 
BRANCH  37  38
ATOM     38  C   UNL     1       1.217   4.890  -4.459  0.00  0.00    +0.022 C 
BRANCH  38  39
ATOM     39  C   UNL     1      -0.122   5.590  -4.703  0.00  0.00    -0.016 C 
ATOM     40  C   UNL     1      -0.191   6.866  -3.862  0.00  0.00    +0.007 C 
ATOM     41  C   UNL     1      -0.247   5.949  -6.185  0.00  0.00    +0.007 C 
ENDBRANCH  38  39
ENDBRANCH  37  38
ENDBRANCH  35  37
ENDBRANCH  25  33
ENDBRANCH   1  25
TORSDOF 10
