REMARK  Name = ZINC34783373
REMARK  10 active torsions:
REMARK  status: ('A' for Active; 'I' for Inactive)
REMARK    1  A    between atoms: C_1  and  C_2
REMARK    2  A    between atoms: C_2  and  C_3
REMARK    3  A    between atoms: C_3  and  C_4
REMARK    4  A    between atoms: C_4  and  N_5
REMARK    5  A    between atoms: C_8  and  C_15
REMARK    6  A    between atoms: C_9  and  C_11
REMARK    7  A    between atoms: N_13  and  N_14
REMARK    8  A    between atoms: N_18  and  C_21
REMARK    9  A    between atoms: C_21  and  C_22
REMARK   10  A    between atoms: N_24  and  C_25
REMARK                            x       y       z     vdW  Elec       q    Type
REMARK                         _______ _______ _______ _____ _____    ______ ____
ROOT
ATOM      1  N   UNL     1       1.425  -2.500  -2.470  0.00  0.00    -0.287 N 
ATOM      2  C   UNL     1       0.707  -2.723  -3.612  0.00  0.00    +0.097 A 
ATOM      3  C   UNL     1       1.332  -3.175  -4.783  0.00  0.00    +0.074 A 
ATOM      4  C   UNL     1       0.490  -3.367  -5.886  0.00  0.00    -0.017 A 
ATOM      5  C   UNL     1      -0.837  -3.098  -5.710  0.00  0.00    +0.081 A 
ATOM      6  S   UNL     1      -0.909  -2.577  -4.008  0.00  0.00    -0.065 S 
ATOM      7  C   UNL     1       1.026  -3.849  -7.209  0.00  0.00    +0.046 C 
ATOM      8  C   UNL     1       2.797  -3.386  -4.689  0.00  0.00    +0.266 A 
ATOM      9  O   UNL     1       3.426  -3.777  -5.654  0.00  0.00    -0.267 OA
ATOM     10  N   UNL     1       3.421  -3.140  -3.523  0.00  0.00    -0.251 N 
ATOM     11  C   UNL     1       2.755  -2.704  -2.442  0.00  0.00    +0.333 A 
ATOM     12  O   UNL     1       3.367  -2.491  -1.413  0.00  0.00    -0.246 OA
ENDROOT
BRANCH   5  13
ATOM     13  C   UNL     1      -1.929  -3.210  -6.680  0.00  0.00    +0.264 C 
ATOM     14  O   UNL     1      -1.699  -3.587  -7.815  0.00  0.00    -0.268 OA
ATOM     15  N   UNL     1      -3.188  -2.896  -6.317  0.00  0.00    -0.249 N 
ATOM     16  H   UNL     1      -3.371  -2.596  -5.413  0.00  0.00    +0.169 HD
BRANCH  15  17
ATOM     17  N   UNL     1      -4.206  -3.001  -7.221  0.00  0.00    -0.254 NA
ATOM     18  H   UNL     1      -4.255  -3.933  -7.604  0.00  0.00    +0.140 HD
ATOM     19  H   UNL     1      -5.087  -2.733  -6.807  0.00  0.00    +0.140 HD
ENDBRANCH  15  17
ENDBRANCH   5  13
BRANCH   1  20
ATOM     20  C   UNL     1       0.739  -2.027  -1.265  0.00  0.00    +0.127 C 
BRANCH  20  21
ATOM     21  C   UNL     1       0.718  -0.497  -1.257  0.00  0.00    +0.021 C 
BRANCH  21  23
ATOM     22  C   UNL     1      -0.019   1.526   0.010  0.00  0.00    +0.004 C 
ATOM     23  C   UNL     1       0.002  -0.004   0.002  0.00  0.00    -0.002 C 
ENDBRANCH  21  23
ENDBRANCH  20  21
ENDBRANCH   1  20
BRANCH  10  24
ATOM     24  C   UNL     1       4.868  -3.349  -3.432  0.00  0.00    +0.225 C 
BRANCH  24  25
ATOM     25  C   UNL     1       5.584  -2.076  -3.803  0.00  0.00    +0.233 C 
ATOM     26  O   UNL     1       4.948  -1.091  -4.112  0.00  0.00    -0.274 OA
ATOM     27  N   UNL     1       6.931  -2.032  -3.790  0.00  0.00    -0.311 N 
ATOM     28  H   UNL     1       7.440  -2.820  -3.542  0.00  0.00    +0.149 HD
BRANCH  27  29
ATOM     29  C   UNL     1       7.627  -0.794  -4.150  0.00  0.00    +0.073 C 
ATOM     30  C   UNL     1       7.785  -0.722  -5.670  0.00  0.00    +0.022 C 
ATOM     31  C   UNL     1       8.512   0.571  -6.046  0.00  0.00    +0.002 C 
ATOM     32  C   UNL     1       9.893   0.590  -5.388  0.00  0.00    +0.000 C 
ATOM     33  C   UNL     1       9.735   0.517  -3.868  0.00  0.00    +0.002 C 
ATOM     34  C   UNL     1       9.008  -0.775  -3.491  0.00  0.00    +0.022 C 
ENDBRANCH  27  29
ENDBRANCH  24  25
ENDBRANCH  10  24
TORSDOF 8
