REMARK  Name = ZINC06001418
REMARK  7 active torsions:
REMARK  status: ('A' for Active; 'I' for Inactive)
REMARK    1  A    between atoms: C_1  and  C_2
REMARK    2  A    between atoms: C_2  and  S_3
REMARK    3  A    between atoms: S_3  and  C_4
REMARK    4  A    between atoms: C_6  and  O_24
REMARK    5  A    between atoms: C_8  and  C_22
REMARK    6  A    between atoms: C_11  and  N_13
REMARK    7  A    between atoms: C_22  and  O_23
REMARK                            x       y       z     vdW  Elec       q    Type
REMARK                         _______ _______ _______ _____ _____    ______ ____
ROOT
ATOM      1  C   UNL     1      -1.912  -2.309  -1.438  0.00  0.00    +0.127 C 
ATOM      2  C   UNL     1      -3.186  -3.184  -1.421  0.00  0.00    +0.163 C 
ATOM      3  C   UNL     1      -3.692  -3.082   0.035  0.00  0.00    +0.176 C 
ATOM      4  O   UNL     1      -3.146  -1.839   0.531  0.00  0.00    -0.347 OA
ATOM      5  C   UNL     1      -1.800  -1.781   0.010  0.00  0.00    +0.238 C 
ENDROOT
BRANCH   5   6
ATOM      6  N   UNL     1      -1.311  -0.400   0.013  0.00  0.00    -0.287 N 
ATOM      7  C   UNL     1      -2.078   0.727   0.026  0.00  0.00    +0.203 A 
ATOM      8  N   UNL     1      -1.316   1.782   0.029  0.00  0.00    -0.231 NA
ATOM      9  C   UNL     1      -0.017   1.401   0.010  0.00  0.00    +0.140 A 
ATOM     10  C   UNL     1       0.002  -0.004   0.002  0.00  0.00    +0.167 A 
ATOM     11  N   UNL     1       1.172  -0.634  -0.013  0.00  0.00    -0.216 NA
ATOM     12  C   UNL     1       2.300   0.045  -0.020  0.00  0.00    +0.224 A 
ATOM     13  N   UNL     1       2.333   1.364  -0.013  0.00  0.00    -0.226 NA
ATOM     14  C   UNL     1       1.213   2.081   0.002  0.00  0.00    +0.138 A 
ATOM     15  S   UNL     1       1.270   3.842   0.010  0.00  0.00    -0.028 SA
ENDBRANCH   5   6
BRANCH   2  16
ATOM     16  O   UNL     1      -2.866  -4.539  -1.746  0.00  0.00    -0.388 OA
ATOM     17  H   UNL     1      -3.630  -5.132  -1.750  0.00  0.00    +0.210 HD
ENDBRANCH   2  16
BRANCH   1  18
ATOM     18  S   UNL     1      -2.099  -0.932  -2.604  0.00  0.00    -0.150 S 
BRANCH  18  20
ATOM     19  C   UNL     1      -2.209  -0.665  -5.324  0.00  0.00    +0.015 C 
ATOM     20  C   UNL     1      -2.059  -1.728  -4.233  0.00  0.00    +0.066 C 
ENDBRANCH  18  20
ENDBRANCH   1  18
BRANCH   3  21
ATOM     21  C   UNL     1      -5.221  -3.042   0.065  0.00  0.00    +0.190 C 
BRANCH  21  22
ATOM     22  O   UNL     1      -5.672  -3.064   1.421  0.00  0.00    -0.392 OA
ATOM     23  H   UNL     1      -6.634  -3.041   1.516  0.00  0.00    +0.210 HD
ENDBRANCH  21  22
ENDBRANCH   3  21
TORSDOF 6
