REMARK  Name = ZINC16737833
REMARK  14 active torsions:
REMARK  status: ('A' for Active; 'I' for Inactive)
REMARK    1  A    between atoms: C_1  and  C_2
REMARK    2  A    between atoms: C_2  and  C_3
REMARK    3  A    between atoms: C_2  and  C_4
REMARK    4  A    between atoms: C_2  and  N_5
REMARK    5  A    between atoms: N_5  and  S_6
REMARK    6  A    between atoms: S_6  and  C_9
REMARK    7  A    between atoms: C_12  and  N_18
REMARK    8  A    between atoms: C_13  and  N_15
REMARK    9  A    between atoms: N_18  and  C_19
REMARK   10  A    between atoms: C_19  and  C_20
REMARK   11  A    between atoms: C_20  and  C_21
REMARK   12  A    between atoms: C_21  and  C_22
REMARK   13  A    between atoms: C_23  and  C_29
REMARK   14  A    between atoms: C_24  and  N_28
REMARK                            x       y       z     vdW  Elec       q    Type
REMARK                         _______ _______ _______ _____ _____    ______ ____
ROOT
ATOM      1  C   UNL     1       2.303   0.200  -0.805  0.00  0.00    +0.108 A 
ATOM      2  C   UNL     1       1.337  -0.703  -0.400  0.00  0.00    +0.030 A 
ATOM      3  C   UNL     1       0.019  -0.518  -0.767  0.00  0.00    +0.027 A 
ATOM      4  C   UNL     1      -0.337   0.577  -1.545  0.00  0.00    +0.058 A 
ATOM      5  C   UNL     1       0.635   1.482  -1.950  0.00  0.00    +0.149 A 
ATOM      6  C   UNL     1       1.952   1.291  -1.579  0.00  0.00    +0.063 A 
ENDROOT
BRANCH   1   7
ATOM      7  S   UNL     1       3.984  -0.040  -0.335  0.00  0.00    +0.059 S 
ATOM      8  O   UNL     1       4.533   1.252  -0.116  0.00  0.00    -0.153 OA
ATOM      9  O   UNL     1       3.985  -1.048   0.667  0.00  0.00    -0.153 OA
BRANCH   7  10
ATOM     10  N   UNL     1       4.773  -0.674  -1.645  0.00  0.00    -0.185 NA
ATOM     11  H   UNL     1       5.465  -0.160  -2.089  0.00  0.00    +0.149 HD
BRANCH  10  13
ATOM     12  C   UNL     1       2.917  -2.092  -2.369  0.00  0.00    +0.029 C 
ATOM     13  C   UNL     1       4.426  -2.011  -2.133  0.00  0.00    +0.032 C 
ATOM     14  C   UNL     1       5.163  -2.283  -3.446  0.00  0.00    +0.029 C 
ATOM     15  C   UNL     1       4.836  -3.056  -1.093  0.00  0.00    +0.029 C 
ENDBRANCH  10  13
ENDBRANCH   7  10
ENDBRANCH   1   7
BRANCH   5  16
ATOM     16  N   UNL     1       0.261   2.650  -2.779  0.00  0.00    +0.058 N 
ATOM     17  O   UNL     1       0.997   3.022  -3.675  0.00  0.00    -0.126 OA
ATOM     18  O   UNL     1      -0.783   3.239  -2.564  0.00  0.00    -0.126 OA
ENDBRANCH   5  16
BRANCH   4  19
ATOM     19  N   UNL     1      -1.669   0.763  -1.923  0.00  0.00    -0.342 N 
ATOM     20  H   UNL     1      -1.921   1.545  -2.438  0.00  0.00    +0.146 HD
BRANCH  19  21
ATOM     21  C   UNL     1      -2.683  -0.222  -1.541  0.00  0.00    +0.102 C 
BRANCH  21  22
ATOM     22  C   UNL     1      -4.048   0.218  -2.077  0.00  0.00    +0.025 C 
BRANCH  22  23
ATOM     23  C   UNL     1      -5.108  -0.810  -1.678  0.00  0.00    +0.060 C 
BRANCH  23  24
ATOM     24  C   UNL     1      -6.451  -0.377  -2.205  0.00  0.00    +0.082 A 
ATOM     25  C   UNL     1      -6.996  -0.715  -3.466  0.00  0.00    +0.113 A 
ATOM     26  C   UNL     1      -8.247  -0.110  -3.544  0.00  0.00    +0.129 A 
ATOM     27  N   UNL     1      -8.440   0.556  -2.387  0.00  0.00    -0.263 N 
ATOM     28  H   UNL     1      -9.249   1.093  -2.149  0.00  0.00    +0.190 HD
ATOM     29  N   UNL     1      -7.315   0.370  -1.576  0.00  0.00    -0.176 NA
BRANCH  26  30
ATOM     30  N   UNL     1      -9.127  -0.179  -4.607  0.00  0.00    -0.342 N 
ATOM     31  H   UNL     1      -8.892  -0.688  -5.399  0.00  0.00    +0.144 HD
ATOM     32  H   UNL     1      -9.980   0.281  -4.562  0.00  0.00    +0.144 HD
ENDBRANCH  26  30
BRANCH  25  33
ATOM     33  C   UNL     1      -6.378  -1.527  -4.471  0.00  0.00    +0.104 C 
ATOM     34  N   UNL     1      -5.887  -2.171  -5.268  0.00  0.00    -0.191 NA
ENDBRANCH  25  33
ENDBRANCH  23  24
ENDBRANCH  22  23
ENDBRANCH  21  22
ENDBRANCH  19  21
ENDBRANCH   4  19
TORSDOF 11
