REMARK  Name = ZINC04715660
REMARK  13 active torsions:
REMARK  status: ('A' for Active; 'I' for Inactive)
REMARK    1  A    between atoms: C_1  and  C_2
REMARK    2  A    between atoms: C_2  and  C_3
REMARK    3  A    between atoms: C_6  and  N_9
REMARK    4  A    between atoms: C_10  and  C_12
REMARK    5  A    between atoms: C_12  and  C_28
REMARK    6  A    between atoms: C_13  and  C_14
REMARK    7  A    between atoms: C_17  and  O_20
REMARK    8  A    between atoms: O_20  and  C_21
REMARK    9  A    between atoms: C_21  and  C_22
REMARK   10  A    between atoms: C_22  and  O_24
REMARK   11  A    between atoms: O_24  and  C_25
REMARK   12  A    between atoms: C_25  and  C_26
REMARK   13  A    between atoms: C_25  and  C_27
REMARK                            x       y       z     vdW  Elec       q    Type
REMARK                         _______ _______ _______ _____ _____    ______ ____
ROOT
ATOM      1  C   UNL     1       2.826   1.351   0.955  0.00  0.00    +0.114 C 
ATOM      2  C   UNL     1       3.557   2.121   0.076  0.00  0.00    +0.032 C 
ENDROOT
BRANCH   2   3
ATOM      3  C   UNL     1       3.244   3.543  -0.086  0.00  0.00    -0.023 A 
ATOM      4  C   UNL     1       1.911   3.960  -0.216  0.00  0.00    +0.011 A 
ATOM      5  C   UNL     1       1.626   5.288  -0.362  0.00  0.00    +0.046 A 
ATOM      6  C   UNL     1       2.654   6.224  -0.392  0.00  0.00    +0.121 A 
ATOM      7  C   UNL     1       3.978   5.816  -0.269  0.00  0.00    +0.046 A 
ATOM      8  C   UNL     1       4.276   4.491  -0.117  0.00  0.00    +0.011 A 
BRANCH   6   9
ATOM      9  O   UNL     1       2.364   7.541  -0.543  0.00  0.00    -0.481 OA
BRANCH   9  10
ATOM     10  C   UNL     1       0.984   7.892  -0.664  0.00  0.00    +0.349 C 
BRANCH  10  11
ATOM     11  C   UNL     1       0.858   9.386  -0.822  0.00  0.00    +0.345 C 
ATOM     12  O   UNL     1       1.848  10.078  -0.830  0.00  0.00    -0.247 OA
BRANCH  11  13
ATOM     13  O   UNL     1      -0.354   9.946  -0.953  0.00  0.00    -0.460 OA
BRANCH  13  14
ATOM     14  C   UNL     1      -0.401  11.390  -1.101  0.00  0.00    +0.170 C 
ATOM     15  C   UNL     1      -0.328  11.753  -2.586  0.00  0.00    +0.052 C 
ATOM     16  C   UNL     1      -1.707  11.922  -0.510  0.00  0.00    +0.052 C 
ENDBRANCH  13  14
ENDBRANCH  11  13
ENDBRANCH  10  11
ENDBRANCH   9  10
ENDBRANCH   6   9
ENDBRANCH   2   3
BRANCH   1  18
ATOM     17  N   UNL     1       1.075   1.235   2.653  0.00  0.00    -0.281 N 
ATOM     18  C   UNL     1       1.890   1.992   1.892  0.00  0.00    +0.259 C 
ATOM     19  O   UNL     1       1.852   3.204   1.979  0.00  0.00    -0.269 OA
ATOM     20  H   UNL     1       1.043   0.274   2.523  0.00  0.00    +0.155 HD
BRANCH  17  24
ATOM     21  C   UNL     1      -1.319   3.023   5.556  0.00  0.00    -0.048 A 
ATOM     22  C   UNL     1      -1.771   1.904   4.881  0.00  0.00    +0.005 A 
ATOM     23  C   UNL     1      -0.980   1.309   3.918  0.00  0.00    +0.023 A 
ATOM     24  C   UNL     1       0.272   1.835   3.627  0.00  0.00    +0.034 A 
ATOM     25  C   UNL     1       0.726   2.956   4.311  0.00  0.00    +0.023 A 
ATOM     26  C   UNL     1      -0.072   3.550   5.268  0.00  0.00    +0.005 A 
BRANCH  21  28
ATOM     27  C   UNL     1      -1.888   3.043   7.969  0.00  0.00    +0.009 C 
ATOM     28  C   UNL     1      -2.185   3.671   6.605  0.00  0.00    +0.032 C 
ENDBRANCH  21  28
ENDBRANCH  17  24
ENDBRANCH   1  18
BRANCH   1  29
ATOM     29  C   UNL     1       2.977  -0.073   0.956  0.00  0.00    +0.104 C 
ATOM     30  N   UNL     1       3.098  -1.202   0.956  0.00  0.00    -0.191 NA
ENDBRANCH   1  29
TORSDOF 10
