REMARK  Name = ZINC21532255
REMARK  5 active torsions:
REMARK  status: ('A' for Active; 'I' for Inactive)
REMARK    1  A    between atoms: C_11  and  C_28
REMARK    2  A    between atoms: C_14  and  C_16
REMARK    3  A    between atoms: C_16  and  S_17
REMARK    4  A    between atoms: S_17  and  C_18
REMARK    5  A    between atoms: N_22  and  C_23
REMARK                            x       y       z     vdW  Elec       q    Type
REMARK                         _______ _______ _______ _____ _____    ______ ____
ROOT
ATOM      1  C   UNL     1      -0.017   1.379   0.010  0.00  0.00    +0.002 A 
ATOM      2  C   UNL     1       1.168   2.092   0.002  0.00  0.00    +0.002 A 
ATOM      3  C   UNL     1       2.381   1.427  -0.003  0.00  0.00    +0.025 A 
ATOM      4  C   UNL     1       2.409   0.043  -0.005  0.00  0.00    +0.058 A 
ATOM      5  C   UNL     1       1.213  -0.677  -0.015  0.00  0.00    +0.055 A 
ATOM      6  C   UNL     1       0.002  -0.004   0.002  0.00  0.00    +0.025 A 
ATOM      7  N   UNL     1       1.256  -2.074  -0.075  0.00  0.00    -0.284 N 
ATOM      8  C   UNL     1       2.050  -2.771   0.767  0.00  0.00    +0.219 C 
ATOM      9  O   UNL     1       2.143  -3.974   0.650  0.00  0.00    -0.275 OA
ATOM     10  C   UNL     1       2.819  -2.062   1.850  0.00  0.00    +0.128 C 
ATOM     11  C   UNL     1       4.024  -1.336   1.250  0.00  0.00    +0.194 C 
ATOM     12  N   UNL     1       3.628  -0.648   0.020  0.00  0.00    -0.257 N 
ATOM     13  C   UNL     1       4.422  -0.680  -1.069  0.00  0.00    +0.231 C 
ATOM     14  O   UNL     1       5.474  -1.281  -1.035  0.00  0.00    -0.274 OA
ATOM     15  H   UNL     1       0.712  -2.546  -0.725  0.00  0.00    +0.155 HD
ENDROOT
BRANCH  11  16
ATOM     16  C   UNL     1       4.552  -0.310   2.256  0.00  0.00    +0.409 C 
ATOM     17  F   UNL     1       4.939  -0.965   3.430  0.00  0.00    -0.169 F 
ATOM     18  F   UNL     1       5.654   0.355   1.708  0.00  0.00    -0.169 F 
ATOM     19  F   UNL     1       3.546   0.617   2.549  0.00  0.00    -0.169 F 
ENDBRANCH  11  16
BRANCH  13  20
ATOM     20  C   UNL     1       4.001   0.032  -2.329  0.00  0.00    +0.173 C 
BRANCH  20  21
ATOM     21  S   UNL     1       5.270  -0.195  -3.604  0.00  0.00    -0.075 S 
BRANCH  21  22
ATOM     22  C   UNL     1       4.639   0.683  -4.995  0.00  0.00    +0.210 A 
ATOM     23  N   UNL     1       3.504   1.346  -5.051  0.00  0.00    -0.101 NA
ATOM     24  N   UNL     1       3.347   1.871  -6.213  0.00  0.00    -0.022 NA
ATOM     25  N   UNL     1       4.350   1.589  -6.972  0.00  0.00    -0.043 NA
ATOM     26  N   UNL     1       5.234   0.809  -6.205  0.00  0.00    -0.217 N 
BRANCH  26  27
ATOM     27  C   UNL     1       6.521   0.249  -6.626  0.00  0.00    +0.112 C 
ATOM     28  C   UNL     1       7.455   1.378  -7.107  0.00  0.00    +0.027 C 
ATOM     29  C   UNL     1       8.223   0.753  -8.299  0.00  0.00    +0.002 C 
ATOM     30  C   UNL     1       7.138  -0.107  -8.991  0.00  0.00    +0.002 C 
ATOM     31  C   UNL     1       6.319  -0.695  -7.824  0.00  0.00    +0.027 C 
ENDBRANCH  26  27
ENDBRANCH  21  22
ENDBRANCH  20  21
ENDBRANCH  13  20
TORSDOF 5
