REMARK  Name = ZINC41027269
REMARK  3 active torsions:
REMARK  status: ('A' for Active; 'I' for Inactive)
REMARK    1  A    between atoms: C_6  and  S_7
REMARK    2  A    between atoms: S_7  and  C_8
REMARK    3  A    between atoms: C_14  and  N_16
REMARK                            x       y       z     vdW  Elec       q    Type
REMARK                         _______ _______ _______ _____ _____    ______ ____
ROOT
ATOM      1  C   UNL     1      -0.997  -2.595  -0.002  0.00  0.00    +0.177 A 
ATOM      2  N   UNL     1      -1.939  -3.579  -0.004  0.00  0.00    -0.302 N 
ATOM      3  H   UNL     1      -2.881  -3.347   0.003  0.00  0.00    +0.171 HD
ATOM      4  C   UNL     1      -1.565  -4.875  -0.015  0.00  0.00    +0.254 A 
ATOM      5  O   UNL     1      -2.402  -5.763  -0.017  0.00  0.00    -0.268 OA
ATOM      6  C   UNL     1      -0.201  -5.184  -0.025  0.00  0.00    +0.113 A 
ATOM      7  C   UNL     1       0.719  -4.145  -0.022  0.00  0.00    +0.124 A 
ATOM      8  N   UNL     1       0.289  -2.878  -0.016  0.00  0.00    -0.208 NA
ENDROOT
BRANCH   7   9
ATOM      9  N   UNL     1       2.072  -4.417  -0.032  0.00  0.00    -0.343 N 
ATOM     10  H   UNL     1       2.382  -5.336  -0.040  0.00  0.00    +0.144 HD
ATOM     11  H   UNL     1       2.713  -3.689  -0.030  0.00  0.00    +0.144 HD
ENDBRANCH   7   9
BRANCH   1  12
ATOM     12  S   UNL     1      -1.510  -0.909   0.012  0.00  0.00    -0.030 S 
BRANCH  12  18
ATOM     13  C   UNL     1      -0.017   1.390   0.010  0.00  0.00    +0.040 A 
ATOM     14  C   UNL     1       1.199   2.056   0.002  0.00  0.00    +0.044 A 
ATOM     15  C   UNL     1       2.360   1.294  -0.013  0.00  0.00    +0.152 A 
ATOM     16  N   UNL     1       2.284  -0.024  -0.020  0.00  0.00    -0.137 NA
ATOM     17  N   UNL     1       1.161  -0.645  -0.013  0.00  0.00    -0.141 NA
ATOM     18  C   UNL     1       0.002  -0.004   0.002  0.00  0.00    +0.127 A 
ATOM     19 CL   UNL     1       3.911   2.074  -0.025  0.00  0.00    -0.060 Cl
ENDBRANCH  12  18
ENDBRANCH   1  12
TORSDOF 3
