REMARK  Name = ZINC36635380
REMARK  7 active torsions:
REMARK  status: ('A' for Active; 'I' for Inactive)
REMARK    1  A    between atoms: C_1  and  C_2
REMARK    2  A    between atoms: C_7  and  N_8
REMARK    3  A    between atoms: C_12  and  N_16
REMARK    4  A    between atoms: N_16  and  C_17
REMARK    5  A    between atoms: C_18  and  C_25
REMARK    6  A    between atoms: C_20  and  C_24
REMARK    7  A    between atoms: C_22  and  C_23
REMARK                            x       y       z     vdW  Elec       q    Type
REMARK                         _______ _______ _______ _____ _____    ______ ____
ROOT
ATOM      1  N   UNL     1      -1.796  -0.654   6.066  0.00  0.00    -0.209 N 
ATOM      2  C   UNL     1      -1.579   0.015   7.205  0.00  0.00    +0.228 C 
ATOM      3  O   UNL     1      -2.342   0.068   8.146  0.00  0.00    -0.275 OA
ATOM      4  C   UNL     1      -0.229   0.695   7.133  0.00  0.00    +0.128 C 
ATOM      5  C   UNL     1       0.302   0.298   5.741  0.00  0.00    +0.166 C 
ATOM      6  C   UNL     1      -0.802  -0.568   5.174  0.00  0.00    +0.247 C 
ATOM      7  O   UNL     1      -0.788  -1.099   4.084  0.00  0.00    -0.273 OA
ENDROOT
BRANCH   1  14
ATOM      8  C   UNL     1      -3.994   0.673   4.837  0.00  0.00    +0.045 C 
ATOM      9  C   UNL     1      -4.061  -0.779   5.232  0.00  0.00    -0.029 A 
ATOM     10  C   UNL     1      -5.211  -1.508   4.995  0.00  0.00    +0.005 A 
ATOM     11  C   UNL     1      -5.274  -2.841   5.357  0.00  0.00    +0.000 A 
ATOM     12  C   UNL     1      -4.186  -3.449   5.957  0.00  0.00    +0.002 A 
ATOM     13  C   UNL     1      -3.034  -2.726   6.197  0.00  0.00    +0.024 A 
ATOM     14  C   UNL     1      -2.966  -1.389   5.830  0.00  0.00    +0.047 A 
ENDBRANCH   1  14
BRANCH   5  15
ATOM     15  N   UNL     1       1.546  -0.466   5.861  0.00  0.00    -0.332 N 
ATOM     16  H   UNL     1       1.530  -1.433   5.784  0.00  0.00    +0.147 HD
BRANCH  15  17
ATOM     17  C   UNL     1       2.754   0.197   6.087  0.00  0.00    +0.034 A 
ATOM     18  C   UNL     1       3.398   0.072   7.311  0.00  0.00    -0.029 A 
ATOM     19  C   UNL     1       4.593   0.729   7.531  0.00  0.00    +0.008 A 
ATOM     20  C   UNL     1       5.148   1.511   6.534  0.00  0.00    -0.050 A 
ATOM     21  C   UNL     1       4.509   1.637   5.314  0.00  0.00    +0.008 A 
ATOM     22  C   UNL     1       3.317   0.979   5.086  0.00  0.00    -0.029 A 
ATOM     23  C   UNL     1       2.625   1.112   3.754  0.00  0.00    +0.045 C 
ATOM     24  C   UNL     1       6.451   2.227   6.778  0.00  0.00    +0.044 C 
ATOM     25  C   UNL     1       2.794  -0.778   8.399  0.00  0.00    +0.045 C 
ENDBRANCH  15  17
ENDBRANCH   5  15
TORSDOF 3
