REMARK  Name = ZINC37376387
REMARK  5 active torsions:
REMARK  status: ('A' for Active; 'I' for Inactive)
REMARK    1  A    between atoms: C_1  and  N_2
REMARK    2  A    between atoms: N_2  and  C_3
REMARK    3  A    between atoms: N_2  and  S_10
REMARK    4  A    between atoms: C_6  and  O_9
REMARK    5  A    between atoms: S_10  and  C_13
REMARK                            x       y       z     vdW  Elec       q    Type
REMARK                         _______ _______ _______ _____ _____    ______ ____
ROOT
ATOM      1  C   UNL     1      -0.018   1.461   0.010  0.00  0.00    +0.157 C 
ATOM      2  N   UNL     1       0.002  -0.004   0.002  0.00  0.00    -0.206 N 
ENDROOT
BRANCH   2   3
ATOM      3  C   UNL     1       0.023  -0.710   1.210  0.00  0.00    +0.051 A 
ATOM      4  C   UNL     1       0.554  -1.992   1.256  0.00  0.00    +0.028 A 
ATOM      5  C   UNL     1       0.575  -2.688   2.449  0.00  0.00    +0.047 A 
ATOM      6  C   UNL     1       0.066  -2.107   3.600  0.00  0.00    +0.117 A 
ATOM      7  C   UNL     1      -0.466  -0.827   3.555  0.00  0.00    +0.047 A 
ATOM      8  C   UNL     1      -0.482  -0.127   2.365  0.00  0.00    +0.028 A 
BRANCH   6   9
ATOM      9  O   UNL     1       0.087  -2.793   4.774  0.00  0.00    -0.507 OA
ATOM     10  H   UNL     1       0.889  -2.655   5.296  0.00  0.00    +0.292 HD
ENDBRANCH   6   9
ENDBRANCH   2   3
BRANCH   2  11
ATOM     11  S   UNL     1      -0.000  -0.824  -1.437  0.00  0.00    +0.076 S 
ATOM     12  O   UNL     1      -0.531  -2.115  -1.167  0.00  0.00    -0.150 OA
ATOM     13  O   UNL     1      -0.572   0.049  -2.401  0.00  0.00    -0.150 OA
BRANCH  11  14
ATOM     14  C   UNL     1       1.682  -1.059  -1.905  0.00  0.00    +0.135 A 
ATOM     15  C   UNL     1       2.219  -2.332  -1.979  0.00  0.00    +0.058 A 
ATOM     16  C   UNL     1       3.517  -2.477  -2.343  0.00  0.00    +0.081 A 
ATOM     17  S   UNL     1       4.022  -0.783  -2.596  0.00  0.00    -0.063 S 
ATOM     18  C   UNL     1       2.468   0.004  -2.205  0.00  0.00    +0.106 A 
ATOM     19 CL   UNL     1       2.068   1.693  -2.206  0.00  0.00    -0.074 Cl
ATOM     20 CL   UNL     1       4.447  -3.932  -2.517  0.00  0.00    -0.076 Cl
ENDBRANCH  11  14
ENDBRANCH   2  11
TORSDOF 4
