REMARK  Name = ZINC51147989
REMARK  7 active torsions:
REMARK  status: ('A' for Active; 'I' for Inactive)
REMARK    1  A    between atoms: C_1  and  C_2
REMARK    2  A    between atoms: C_3  and  C_10
REMARK    3  A    between atoms: C_4  and  N_8
REMARK    4  A    between atoms: N_5  and  C_7
REMARK    5  A    between atoms: N_8  and  N_9
REMARK    6  A    between atoms: C_10  and  O_11
REMARK    7  A    between atoms: O_11  and  C_12
REMARK                            x       y       z     vdW  Elec       q    Type
REMARK                         _______ _______ _______ _____ _____    ______ ____
ROOT
ATOM      1  C   UNL     1      -0.908   1.211   0.352  0.00  0.00    +0.068 C 
ATOM      2  C   UNL     1      -0.565  -0.251   0.219  0.00  0.00    +0.068 A 
ATOM      3  C   UNL     1      -0.164  -0.893  -0.956  0.00  0.00    +0.053 A 
ATOM      4  C   UNL     1       0.051  -2.205  -0.661  0.00  0.00    +0.137 A 
ATOM      5  N   UNL     1      -0.207  -2.374   0.656  0.00  0.00    -0.252 N 
ATOM      6  N   UNL     1      -0.585  -1.133   1.184  0.00  0.00    -0.175 NA
ATOM      7  C   UNL     1      -0.104  -3.632   1.400  0.00  0.00    +0.174 C 
ENDROOT
BRANCH   4   8
ATOM      8  N   UNL     1       0.461  -3.192  -1.552  0.00  0.00    -0.267 N 
ATOM      9  H   UNL     1       0.155  -3.172  -2.473  0.00  0.00    +0.167 HD
BRANCH   8  10
ATOM     10  N   UNL     1       1.294  -4.190  -1.131  0.00  0.00    -0.255 NA
ATOM     11  H   UNL     1       1.437  -4.873  -1.859  0.00  0.00    +0.140 HD
ATOM     12  H   UNL     1       2.174  -3.814  -0.809  0.00  0.00    +0.140 HD
ENDBRANCH   8  10
ENDBRANCH   4   8
BRANCH   3  13
ATOM     13  C   UNL     1      -0.000  -0.249  -2.309  0.00  0.00    +0.270 C 
BRANCH  13  14
ATOM     14  O   UNL     1       1.339   0.230  -2.449  0.00  0.00    -0.484 OA
BRANCH  14  15
ATOM     15  C   UNL     1       1.656   0.842  -3.620  0.00  0.00    +0.157 A 
ATOM     16  C   UNL     1       2.143   0.097  -4.685  0.00  0.00    +0.084 A 
ATOM     17  C   UNL     1       2.464   0.722  -5.875  0.00  0.00    +0.024 A 
ATOM     18  C   UNL     1       2.301   2.089  -6.006  0.00  0.00    +0.003 A 
ATOM     19  C   UNL     1       1.817   2.834  -4.947  0.00  0.00    +0.024 A 
ATOM     20  C   UNL     1       1.488   2.213  -3.756  0.00  0.00    +0.084 A 
ATOM     21 CL   UNL     1       0.872   3.148  -2.429  0.00  0.00    -0.080 Cl
ATOM     22 CL   UNL     1       2.348  -1.620  -4.522  0.00  0.00    -0.080 Cl
ENDBRANCH  14  15
ENDBRANCH  13  14
ENDBRANCH   3  13
TORSDOF 5
