REMARK  Name = ZINC04735579
REMARK  8 active torsions:
REMARK  status: ('A' for Active; 'I' for Inactive)
REMARK    1  A    between atoms: C_1  and  C_2
REMARK    2  A    between atoms: C_2  and  C_3
REMARK    3  A    between atoms: C_3  and  C_4
REMARK    4  A    between atoms: C_5  and  C_25
REMARK    5  A    between atoms: C_6  and  C_18
REMARK    6  A    between atoms: C_25  and  O_27
REMARK    7  A    between atoms: O_27  and  C_28
REMARK    8  A    between atoms: C_28  and  C_29
REMARK                            x       y       z     vdW  Elec       q    Type
REMARK                         _______ _______ _______ _____ _____    ______ ____
ROOT
ATOM      1  C   UNL     1      -5.273   3.569   0.419  0.00  0.00    +0.023 C 
ATOM      2  C   UNL     1      -4.644   4.753   0.401  0.00  0.00    +0.081 C 
ATOM      3  C   UNL     1      -3.202   4.915   0.002  0.00  0.00    +0.162 C 
ATOM      4  N   UNL     1      -2.561   3.600  -0.042  0.00  0.00    -0.300 N 
ATOM      5  C   UNL     1      -1.224   3.287  -0.143  0.00  0.00    +0.071 A 
ATOM      6  C   UNL     1      -0.057   4.033  -0.214  0.00  0.00    +0.028 A 
ATOM      7  C   UNL     1       1.163   3.397  -0.313  0.00  0.00    +0.002 A 
ATOM      8  C   UNL     1       1.233   2.012  -0.343  0.00  0.00    +0.002 A 
ATOM      9  C   UNL     1       0.086   1.254  -0.274  0.00  0.00    +0.030 A 
ATOM     10  C   UNL     1      -1.158   1.882  -0.178  0.00  0.00    +0.091 A 
ATOM     11  N   UNL     1      -2.434   1.416  -0.099  0.00  0.00    -0.214 NA
ATOM     12  C   UNL     1      -3.260   2.418  -0.022  0.00  0.00    +0.202 A 
ATOM     13  N   UNL     1      -4.644   2.397   0.081  0.00  0.00    -0.288 N 
ATOM     14  H   UNL     1      -5.149   1.585  -0.080  0.00  0.00    +0.155 HD
ENDROOT
BRANCH   3  15
ATOM     15  C   UNL     1      -3.127   5.568  -1.354  0.00  0.00    +0.015 A 
ATOM     16  C   UNL     1      -3.705   4.956  -2.450  0.00  0.00    +0.009 A 
ATOM     17  C   UNL     1      -3.642   5.558  -3.692  0.00  0.00    +0.001 A 
ATOM     18  C   UNL     1      -2.989   6.768  -3.843  0.00  0.00    +0.003 A 
ATOM     19  C   UNL     1      -2.404   7.379  -2.750  0.00  0.00    +0.039 A 
ATOM     20  C   UNL     1      -2.473   6.779  -1.504  0.00  0.00    +0.129 A 
ATOM     21  F   UNL     1      -1.902   7.376  -0.434  0.00  0.00    -0.205 F 
ENDBRANCH   3  15
BRANCH   2  22
ATOM     22  C   UNL     1      -5.370   5.906   0.777  0.00  0.00    +0.339 C 
ATOM     23  O   UNL     1      -5.831   6.640  -0.078  0.00  0.00    -0.245 OA
BRANCH  22  24
ATOM     24  O   UNL     1      -5.552   6.193   2.083  0.00  0.00    -0.462 OA
BRANCH  24  25
ATOM     25  C   UNL     1      -6.296   7.374   2.390  0.00  0.00    +0.229 C 
ATOM     26  C   UNL     1      -6.398   7.532   3.908  0.00  0.00    +0.048 C 
ENDBRANCH  24  25
ENDBRANCH  22  24
ENDBRANCH   2  22
BRANCH   1  27
ATOM     27  C   UNL     1      -6.723   3.524   0.825  0.00  0.00    +0.051 C 
BRANCH  27  29
ATOM     28  C   UNL     1      -9.078   3.594  -0.007  0.00  0.00    +0.004 C 
ATOM     29  C   UNL     1      -7.605   3.639  -0.420  0.00  0.00    +0.002 C 
ENDBRANCH  27  29
ENDBRANCH   1  27
TORSDOF 6
