REMARK  Name = ZINC67125649
REMARK  8 active torsions:
REMARK  status: ('A' for Active; 'I' for Inactive)
REMARK    1  A    between atoms: C_1  and  C_2
REMARK    2  A    between atoms: N_4  and  C_5
REMARK    3  A    between atoms: C_9  and  N_11
REMARK    4  A    between atoms: C_12  and  C_14
REMARK    5  A    between atoms: C_14  and  C_15
REMARK    6  A    between atoms: C_15  and  C_16
REMARK    7  A    between atoms: C_16  and  C_17
REMARK    8  A    between atoms: C_17  and  C_18
REMARK                            x       y       z     vdW  Elec       q    Type
REMARK                         _______ _______ _______ _____ _____    ______ ____
ROOT
ATOM      1  N   UNL     1      -3.302  -5.052   0.060  0.00  0.00    -0.285 N 
ATOM      2  C   UNL     1      -3.245  -6.388   0.228  0.00  0.00    +0.217 C 
ATOM      3  O   UNL     1      -2.170  -6.943   0.316  0.00  0.00    -0.275 OA
ATOM      4  H   UNL     1      -4.158  -4.617  -0.077  0.00  0.00    +0.155 HD
ENDROOT
BRANCH   1   9
ATOM      5  C   UNL     1      -0.968  -2.267   0.650  0.00  0.00    +0.035 A 
ATOM      6  C   UNL     1       0.206  -2.797   0.128  0.00  0.00    +0.023 A 
ATOM      7  C   UNL     1       0.211  -4.069  -0.412  0.00  0.00    +0.004 A 
ATOM      8  C   UNL     1      -0.950  -4.817  -0.435  0.00  0.00    +0.023 A 
ATOM      9  C   UNL     1      -2.127  -4.293   0.085  0.00  0.00    +0.035 A 
ATOM     10  C   UNL     1      -2.134  -3.019   0.633  0.00  0.00    +0.046 A 
BRANCH   5  14
ATOM     11  C   UNL     1      -1.676   0.652   2.918  0.00  0.00    +0.109 C 
ATOM     12  C   UNL     1      -1.748  -0.704   2.264  0.00  0.00    +0.214 C 
ATOM     13  O   UNL     1      -2.505  -1.546   2.698  0.00  0.00    -0.276 OA
ATOM     14  N   UNL     1      -0.972  -0.980   1.197  0.00  0.00    -0.286 N 
ATOM     15  H   UNL     1      -0.417  -0.285   0.809  0.00  0.00    +0.155 HD
ENDBRANCH   5  14
ENDBRANCH   1   9
BRANCH   2  16
ATOM     16  C   UNL     1      -4.517  -7.193   0.306  0.00  0.00    +0.096 C 
BRANCH  16  17
ATOM     17  C   UNL     1      -4.174  -8.672   0.496  0.00  0.00    +0.009 C 
BRANCH  17  18
ATOM     18  C   UNL     1      -5.465  -9.489   0.575  0.00  0.00    +0.002 C 
BRANCH  18  19
ATOM     19  C   UNL     1      -5.122 -10.967   0.765  0.00  0.00    +0.016 C 
BRANCH  19  20
ATOM     20  C   UNL     1      -6.414 -11.784   0.845  0.00  0.00    +0.069 C 
ATOM     21  C   UNL     1      -6.121 -13.246   1.065  0.00  0.00    +0.108 C 
ATOM     22  C   UNL     1      -7.303 -14.083   0.485  0.00  0.00    +0.105 C 
ATOM     23  C   UNL     1      -7.378 -13.709  -0.993  0.00  0.00    +0.093 C 
ATOM     24  S   UNL     1      -7.267 -11.850  -0.799  0.00  0.00    -0.154 S 
ATOM     25  N   UNL     1      -6.887 -15.400   0.911  0.00  0.00    -0.294 N 
ATOM     26  C   UNL     1      -6.237 -15.211   2.099  0.00  0.00    +0.300 C 
ATOM     27  O   UNL     1      -5.967 -16.112   2.869  0.00  0.00    -0.253 OA
ATOM     28  N   UNL     1      -5.942 -13.903   2.326  0.00  0.00    -0.294 N 
ATOM     29  H   UNL     1      -7.038 -16.241   0.451  0.00  0.00    +0.151 HD
ATOM     30  H   UNL     1      -5.663 -13.503   3.165  0.00  0.00    +0.151 HD
ENDBRANCH  19  20
ENDBRANCH  18  19
ENDBRANCH  17  18
ENDBRANCH  16  17
ENDBRANCH   2  16
TORSDOF 7
