REMARK  Name = ZINC39981040
REMARK  7 active torsions:
REMARK  status: ('A' for Active; 'I' for Inactive)
REMARK    1  A    between atoms: C_1  and  C_2
REMARK    2  A    between atoms: C_14  and  S_16
REMARK    3  A    between atoms: S_16  and  C_17
REMARK    4  A    between atoms: C_17  and  C_18
REMARK    5  A    between atoms: N_20  and  C_21
REMARK    6  A    between atoms: C_24  and  C_27
REMARK    7  A    between atoms: C_27  and  C_29
REMARK                            x       y       z     vdW  Elec       q    Type
REMARK                         _______ _______ _______ _____ _____    ______ ____
ROOT
ATOM      1  C   UNL     1      -0.074   1.477  -0.003  0.00  0.00    +0.044 C 
ATOM      2  C   UNL     1      -0.049  -0.029  -0.005  0.00  0.00    -0.050 A 
ATOM      3  C   UNL     1      -0.052  -0.703  -1.234  0.00  0.00    +0.005 A 
ATOM      4  C   UNL     1      -0.036  -2.053  -1.307  0.00  0.00    +0.026 A 
ATOM      5  C   UNL     1      -0.014  -2.838  -0.067  0.00  0.00    +0.046 A 
ATOM      6  N   UNL     1       0.036  -4.131   0.149  0.00  0.00    -0.358 N 
ATOM      7  C   UNL     1      -0.090  -4.374   1.576  0.00  0.00    +0.252 C 
ATOM      8  C   UNL     1       0.041  -3.014   2.240  0.00  0.00    +0.117 C 
ATOM      9  C   UNL     1       0.002  -2.095   1.219  0.00  0.00    +0.025 A 
ATOM     10  C   UNL     1      -0.017  -0.682   1.179  0.00  0.00    +0.015 A 
ATOM     11  N   UNL     1       0.288  -2.891   3.547  0.00  0.00    -0.147 NA
ATOM     12  N   UNL     1       0.924  -3.884   4.091  0.00  0.00    -0.122 NA
ATOM     13  C   UNL     1       1.366  -4.941   3.366  0.00  0.00    +0.208 C 
ATOM     14  N   UNL     1       0.956  -5.219   2.150  0.00  0.00    -0.227 NA
ATOM     15  H   UNL     1       0.141  -4.813  -0.533  0.00  0.00    +0.162 HD
ENDROOT
BRANCH  13  16
ATOM     16  S   UNL     1       2.560  -6.008   4.101  0.00  0.00    -0.075 S 
BRANCH  16  17
ATOM     17  C   UNL     1       2.872  -7.261   2.826  0.00  0.00    +0.173 C 
BRANCH  17  18
ATOM     18  C   UNL     1       3.889  -8.250   3.333  0.00  0.00    +0.227 C 
ATOM     19  O   UNL     1       4.358  -8.123   4.444  0.00  0.00    -0.275 OA
ATOM     20  N   UNL     1       4.279  -9.277   2.551  0.00  0.00    -0.285 N 
ATOM     21  H   UNL     1       3.856  -9.417   1.689  0.00  0.00    +0.155 HD
BRANCH  20  22
ATOM     22  C   UNL     1       5.288 -10.136   2.980  0.00  0.00    +0.033 A 
ATOM     23  C   UNL     1       6.186 -10.667   2.058  0.00  0.00    +0.024 A 
ATOM     24  C   UNL     1       7.181 -11.512   2.476  0.00  0.00    +0.013 A 
ATOM     25  C   UNL     1       7.293 -11.841   3.833  0.00  0.00    +0.017 A 
ATOM     26  C   UNL     1       6.387 -11.305   4.757  0.00  0.00    +0.013 A 
ATOM     27  C   UNL     1       5.399 -10.456   4.330  0.00  0.00    +0.024 A 
BRANCH  25  28
ATOM     28  C   UNL     1       8.357 -12.747   4.285  0.00  0.00    +0.160 C 
ATOM     29  O   UNL     1       9.140 -13.211   3.484  0.00  0.00    -0.292 OA
ATOM     30  C   UNL     1       8.475 -13.100   5.746  0.00  0.00    +0.091 C 
ENDBRANCH  25  28
ENDBRANCH  20  22
ENDBRANCH  17  18
ENDBRANCH  16  17
ENDBRANCH  13  16
TORSDOF 5
