REMARK  Name = ZINC19926956
REMARK  5 active torsions:
REMARK  status: ('A' for Active; 'I' for Inactive)
REMARK    1  A    between atoms: C_6  and  C_11
REMARK    2  A    between atoms: C_11  and  C_13
REMARK    3  A    between atoms: C_13  and  S_14
REMARK    4  A    between atoms: S_14  and  C_15
REMARK    5  A    between atoms: C_21  and  N_23
REMARK                            x       y       z     vdW  Elec       q    Type
REMARK                         _______ _______ _______ _____ _____    ______ ____
ROOT
ATOM      1  C   UNL     1       1.756   2.096  -0.004  0.00  0.00    +0.156 C 
ENDROOT
BRANCH   1   2
ATOM      2  C   UNL     1       1.984   3.586   0.002  0.00  0.00    +0.173 C 
ATOM      3  O   UNL     1       1.038   4.344   0.015  0.00  0.00    -0.291 OA
BRANCH   2   9
ATOM      4  C   UNL     1       7.473   6.947  -0.031  0.00  0.00    +0.001 A 
ATOM      5  C   UNL     1       6.399   7.834  -0.016  0.00  0.00    +0.001 A 
ATOM      6  C   UNL     1       5.116   7.380  -0.007  0.00  0.00    +0.008 A 
ATOM      7  C   UNL     1       4.868   5.995  -0.012  0.00  0.00    -0.017 A 
ATOM      8  C   UNL     1       3.559   5.493  -0.002  0.00  0.00    +0.020 A 
ATOM      9  C   UNL     1       3.354   4.120  -0.008  0.00  0.00    +0.019 A 
ATOM     10  C   UNL     1       4.450   3.235  -0.017  0.00  0.00    +0.012 A 
ATOM     11  C   UNL     1       5.723   3.705  -0.033  0.00  0.00    +0.009 A 
ATOM     12  C   UNL     1       5.962   5.092  -0.028  0.00  0.00    -0.018 A 
ATOM     13  C   UNL     1       7.272   5.601  -0.036  0.00  0.00    +0.008 A 
ENDBRANCH   2   9
ENDBRANCH   1   2
BRANCH   1  14
ATOM     14  S   UNL     1      -0.022   1.758   0.012  0.00  0.00    -0.080 S 
BRANCH  14  15
ATOM     15  C   UNL     1       0.002  -0.004   0.002  0.00  0.00    +0.171 A 
ATOM     16  N   UNL     1      -1.176  -0.688   0.010  0.00  0.00    -0.302 N 
ATOM     17  H   UNL     1      -2.130  -0.139   0.022  0.00  0.00    +0.171 HD
ATOM     18  C   UNL     1      -1.177  -2.037   0.002  0.00  0.00    +0.254 A 
ATOM     19  O   UNL     1      -2.228  -2.657   0.009  0.00  0.00    -0.268 OA
ATOM     20  C   UNL     1       0.047  -2.713  -0.013  0.00  0.00    +0.113 A 
ATOM     21  C   UNL     1       1.220  -1.970  -0.020  0.00  0.00    +0.124 A 
ATOM     22  N   UNL     1       1.159  -0.634  -0.018  0.00  0.00    -0.209 NA
BRANCH  21  23
ATOM     23  N   UNL     1       2.444  -2.608  -0.035  0.00  0.00    -0.343 N 
ATOM     24  H   UNL     1       3.372  -2.017  -0.041  0.00  0.00    +0.144 HD
ATOM     25  H   UNL     1       2.491  -3.707  -0.042  0.00  0.00    +0.144 HD
ENDBRANCH  21  23
ENDBRANCH  14  15
ENDBRANCH   1  14
TORSDOF 5
