REMARK  Name = ZINC48462368
REMARK  3 active torsions:
REMARK  status: ('A' for Active; 'I' for Inactive)
REMARK    1  A    between atoms: C_1  and  C_2
REMARK    2  A    between atoms: C_2  and  C_3
REMARK    3  A    between atoms: C_9  and  N_11
REMARK                            x       y       z     vdW  Elec       q    Type
REMARK                         _______ _______ _______ _____ _____    ______ ____
ROOT
ATOM      1  N   UNL     1      -0.776  -2.430  -1.376  0.00  0.00    -0.326 N 
ATOM      2  C   UNL     1      -1.149  -3.689  -0.934  0.00  0.00    +0.125 A 
ATOM      3  C   UNL     1      -0.193  -4.576  -0.436  0.00  0.00    +0.083 A 
ATOM      4  C   UNL     1      -0.611  -5.822  -0.005  0.00  0.00    +0.136 A 
ATOM      5  N   UNL     1      -1.898  -6.135  -0.077  0.00  0.00    -0.203 NA
ATOM      6  C   UNL     1      -2.782  -5.272  -0.555  0.00  0.00    +0.216 A 
ATOM      7  N   UNL     1      -2.423  -4.067  -0.972  0.00  0.00    -0.200 NA
ATOM      8  N   UNL     1      -4.116  -5.636  -0.614  0.00  0.00    -0.327 N 
ATOM      9 CL   UNL     1       0.536  -6.963   0.623  0.00  0.00    -0.062 Cl
ATOM     10  H   UNL     1      -1.447  -1.817  -1.717  0.00  0.00    +0.148 HD
ATOM     11  H   UNL     1      -4.393  -6.514  -0.308  0.00  0.00    +0.145 HD
ATOM     12  H   UNL     1      -4.774  -5.014  -0.962  0.00  0.00    +0.145 HD
ENDROOT
BRANCH   1  18
ATOM     13  C   UNL     1       0.718  -0.497  -1.257  0.00  0.00    +0.009 C 
ATOM     14  C   UNL     1       2.187  -0.073  -1.207  0.00  0.00    +0.005 C 
ATOM     15  C   UNL     1       2.904  -0.566  -2.466  0.00  0.00    +0.000 C 
ATOM     16  C   UNL     1       2.816  -2.092  -2.538  0.00  0.00    +0.002 C 
ATOM     17  C   UNL     1       1.347  -2.517  -2.587  0.00  0.00    +0.022 C 
ATOM     18  C   UNL     1       0.630  -2.023  -1.329  0.00  0.00    +0.075 C 
BRANCH  13  20
ATOM     19  C   UNL     1      -0.019   1.526   0.010  0.00  0.00    +0.004 C 
ATOM     20  C   UNL     1       0.002  -0.004   0.002  0.00  0.00    +0.002 C 
ENDBRANCH  13  20
ENDBRANCH   1  18
TORSDOF 2
