REMARK  Name = ZINC04119297
REMARK  3 active torsions:
REMARK  status: ('A' for Active; 'I' for Inactive)
REMARK    1  A    between atoms: C_6  and  C_7
REMARK    2  A    between atoms: N_8  and  N_9
REMARK    3  A    between atoms: C_12  and  N_23
REMARK                            x       y       z     vdW  Elec       q    Type
REMARK                         _______ _______ _______ _____ _____    ______ ____
ROOT
ATOM      1  N   UNL     1      -1.184  -0.723   0.010  0.00  0.00    -0.221 N 
ATOM      2  C   UNL     1       0.002  -0.004   0.002  0.00  0.00    +0.145 A 
ATOM      3  C   UNL     1       1.227  -0.665  -0.013  0.00  0.00    +0.089 A 
ATOM      4  C   UNL     1       2.391   0.099  -0.020  0.00  0.00    +0.128 A 
ATOM      5  N   UNL     1       2.296   1.426  -0.012  0.00  0.00    -0.199 NA
ATOM      6  C   UNL     1       1.112   2.021   0.002  0.00  0.00    +0.221 A 
ATOM      7  N   UNL     1      -0.016   1.327   0.009  0.00  0.00    -0.198 NA
ATOM      8  N   UNL     1       1.053   3.403   0.010  0.00  0.00    -0.300 N 
ATOM      9  C   UNL     1       1.904   3.965   1.083  0.00  0.00    +0.108 C 
ATOM     10  C   UNL     1       1.666   5.433   1.309  0.00  0.00    +0.019 C 
ATOM     11  C   UNL     1       0.624   5.593   2.436  0.00  0.00    +0.002 C 
ATOM     12  C   UNL     1      -0.737   5.363   1.963  0.00  0.00    +0.002 C 
ATOM     13  C   UNL     1      -0.930   3.934   1.413  0.00  0.00    +0.019 C 
ATOM     14  C   UNL     1      -0.350   3.874   0.026  0.00  0.00    +0.108 C 
ATOM     15  H   UNL     1      -1.163  -1.693   0.004  0.00  0.00    +0.176 HD
ENDROOT
BRANCH   4  16
ATOM     16  N   UNL     1       3.634  -0.516  -0.035  0.00  0.00    -0.315 N 
ATOM     17  C   UNL     1       3.736  -1.531   1.037  0.00  0.00    +0.106 C 
ATOM     18  C   UNL     1       5.142  -2.029   1.237  0.00  0.00    +0.019 C 
ATOM     19  C   UNL     1       5.804  -1.191   2.351  0.00  0.00    +0.002 C 
ATOM     20  C   UNL     1       6.249   0.112   1.869  0.00  0.00    +0.002 C 
ATOM     21  C   UNL     1       5.079   0.968   1.340  0.00  0.00    +0.019 C 
ATOM     22  C   UNL     1       4.722   0.488  -0.040  0.00  0.00    +0.106 C 
ENDBRANCH   4  16
BRANCH   1  24
ATOM     23  C   UNL     1      -3.522  -0.722   0.033  0.00  0.00    +0.138 C 
ATOM     24  N   UNL     1      -2.412  -0.049   0.026  0.00  0.00    -0.189 NA
BRANCH  23  30
ATOM     25  C   UNL     1      -4.867   1.389   0.064  0.00  0.00    +0.029 A 
ATOM     26  C   UNL     1      -6.097   2.010   0.075  0.00  0.00    +0.111 A 
ATOM     27  N   UNL     1      -7.213   1.306   0.082  0.00  0.00    -0.263 NA
ATOM     28  C   UNL     1      -7.209  -0.014   0.074  0.00  0.00    +0.111 A 
ATOM     29  C   UNL     1      -6.024  -0.719   0.058  0.00  0.00    +0.029 A 
ATOM     30  C   UNL     1      -4.814  -0.012   0.050  0.00  0.00    -0.003 A 
ENDBRANCH  23  30
ENDBRANCH   1  24
TORSDOF 3
