REMARK  Name = ZINC48664342
REMARK  7 active torsions:
REMARK  status: ('A' for Active; 'I' for Inactive)
REMARK    1  A    between atoms: C_1  and  C_2
REMARK    2  A    between atoms: C_2  and  C_3
REMARK    3  A    between atoms: C_2  and  C_4
REMARK    4  A    between atoms: C_4  and  N_5
REMARK    5  A    between atoms: N_5  and  S_6
REMARK    6  A    between atoms: S_6  and  C_9
REMARK    7  A    between atoms: C_12  and  N_16
REMARK                            x       y       z     vdW  Elec       q    Type
REMARK                         _______ _______ _______ _____ _____    ______ ____
ROOT
ATOM      1  C   UNL     1       2.774  -0.324  -3.873  0.00  0.00    +0.124 A 
ATOM      2  C   UNL     1       3.621   0.470  -4.624  0.00  0.00    +0.032 A 
ATOM      3  C   UNL     1       3.269   0.835  -5.910  0.00  0.00    +0.035 A 
ATOM      4  C   UNL     1       2.068   0.407  -6.446  0.00  0.00    +0.128 A 
ATOM      5  C   UNL     1       1.221  -0.387  -5.697  0.00  0.00    +0.054 A 
ATOM      6  C   UNL     1       1.576  -0.757  -4.412  0.00  0.00    +0.069 A 
ATOM      7 CL   UNL     1       0.514  -1.760  -3.472  0.00  0.00    -0.081 Cl
ENDROOT
BRANCH   1   8
ATOM      8  S   UNL     1       3.223  -0.788  -2.234  0.00  0.00    +0.060 S 
ATOM      9  O   UNL     1       4.476  -0.173  -1.967  0.00  0.00    -0.153 OA
ATOM     10  O   UNL     1       3.029  -2.193  -2.143  0.00  0.00    -0.153 OA
BRANCH   8  11
ATOM     11  N   UNL     1       2.125  -0.091  -1.209  0.00  0.00    -0.190 NA
ATOM     12  H   UNL     1       2.413   0.586  -0.578  0.00  0.00    +0.148 HD
BRANCH  11  13
ATOM     13  C   UNL     1       0.718  -0.497  -1.257  0.00  0.00    +0.109 C 
BRANCH  13  15
ATOM     14  C   UNL     1      -0.019   1.526   0.010  0.00  0.00    +0.008 C 
ATOM     15  C   UNL     1       0.002  -0.004   0.002  0.00  0.00    -0.002 C 
ATOM     16  C   UNL     1      -1.433  -0.534   0.013  0.00  0.00    +0.008 C 
ENDBRANCH  13  15
ENDBRANCH  11  13
ENDBRANCH   8  11
ENDBRANCH   1   8
BRANCH   4  17
ATOM     17  N   UNL     1       1.691   0.799  -7.822  0.00  0.00    +0.056 N 
ATOM     18  O   UNL     1       2.433   1.493  -8.478  0.00  0.00    -0.126 OA
ATOM     19  O   UNL     1       0.642   0.424  -8.291  0.00  0.00    -0.126 OA
ENDBRANCH   4  17
TORSDOF 5
