REMARK  Name = ZINC21059337
REMARK  3 active torsions:
REMARK  status: ('A' for Active; 'I' for Inactive)
REMARK    1  A    between atoms: C_4  and  O_10
REMARK    2  A    between atoms: C_6  and  C_7
REMARK    3  A    between atoms: O_10  and  C_11
REMARK                            x       y       z     vdW  Elec       q    Type
REMARK                         _______ _______ _______ _____ _____    ______ ____
ROOT
ATOM      1  C   UNL     1       3.496   3.431  -0.213  0.00  0.00    +0.031 A 
ATOM      2  C   UNL     1       3.438   2.056  -0.309  0.00  0.00    +0.115 A 
ATOM      3  N   UNL     1       2.286   1.418  -0.233  0.00  0.00    -0.221 NA
ATOM      4  C   UNL     1       1.142   2.059  -0.063  0.00  0.00    +0.221 A 
ATOM      5  C   UNL     1       1.111   3.443   0.037  0.00  0.00    +0.079 A 
ATOM      6  C   UNL     1       2.311   4.152  -0.033  0.00  0.00    +0.019 A 
ENDROOT
BRANCH   6   7
ATOM      7  C   UNL     1       2.328   5.631   0.075  0.00  0.00    +0.094 C 
ATOM      8  N   UNL     1       1.216   6.284   0.243  0.00  0.00    -0.387 N 
ATOM      9  N   UNL     1       3.523   6.313  -0.002  0.00  0.00    -0.345 N 
ATOM     10  H   UNL     1       1.229   7.381   0.323  0.00  0.00    +0.157 HD
ATOM     11  H   UNL     1       3.536   7.410   0.078  0.00  0.00    +0.144 HD
ATOM     12  H   UNL     1       4.463   5.761  -0.143  0.00  0.00    +0.144 HD
ATOM     13  H   UNL     1       0.262   5.739   0.305  0.00  0.00    +0.157 HD
ENDBRANCH   6   7
BRANCH   4  14
ATOM     14  O   UNL     1      -0.016   1.355   0.009  0.00  0.00    -0.437 OA
BRANCH  14  15
ATOM     15  C   UNL     1       0.061  -0.002   0.024  0.00  0.00    +0.150 A 
ATOM     16  C   UNL     1      -0.109  -0.719  -1.151  0.00  0.00    +0.069 A 
ATOM     17  C   UNL     1      -0.030  -2.099  -1.135  0.00  0.00    +0.063 A 
ATOM     18  C   UNL     1       0.221  -2.766   0.053  0.00  0.00    +0.061 A 
ATOM     19  C   UNL     1       0.391  -2.052   1.226  0.00  0.00    +0.045 A 
ATOM     20  C   UNL     1       0.317  -0.671   1.213  0.00  0.00    +0.085 A 
ATOM     21 CL   UNL     1       0.537   0.224   2.683  0.00  0.00    -0.080 Cl
ATOM     22 CL   UNL     1       0.320  -4.499   0.071  0.00  0.00    -0.082 Cl
ATOM     23 CL   UNL     1      -0.243  -2.998  -2.605  0.00  0.00    -0.082 Cl
ENDBRANCH  14  15
ENDBRANCH   4  14
TORSDOF 3
