REMARK  Name = ZINC09202048
REMARK  4 active torsions:
REMARK  status: ('A' for Active; 'I' for Inactive)
REMARK    1  A    between atoms: C_1  and  C_2
REMARK    2  A    between atoms: C_2  and  C_3
REMARK    3  A    between atoms: C_6  and  C_9
REMARK    4  A    between atoms: C_16  and  C_17
REMARK                            x       y       z     vdW  Elec       q    Type
REMARK                         _______ _______ _______ _____ _____    ______ ____
ROOT
ATOM      1  C   UNL     1       2.700  -1.663  -4.381  0.00  0.00    +0.176 C 
ATOM      2  C   UNL     1       3.742  -0.762  -4.986  0.00  0.00    +0.036 A 
ATOM      3  C   UNL     1       5.099  -0.998  -4.840  0.00  0.00    +0.110 A 
ATOM      4  C   UNL     1       5.997  -0.102  -5.434  0.00  0.00    +0.310 A 
ATOM      5  N   UNL     1       5.531   0.932  -6.113  0.00  0.00    -0.104 NA
ATOM      6  N   UNL     1       4.274   1.151  -6.252  0.00  0.00    -0.145 NA
ATOM      7  C   UNL     1       3.350   0.358  -5.724  0.00  0.00    +0.101 A 
ATOM      8  O   UNL     1       7.335  -0.294  -5.312  0.00  0.00    -0.262 OA
ATOM      9  N   UNL     1       5.577  -2.103  -4.128  0.00  0.00    -0.278 N 
ATOM     10  C   UNL     1       4.659  -3.089  -3.800  0.00  0.00    +0.240 A 
ATOM     11  N   UNL     1       3.322  -2.898  -3.918  0.00  0.00    -0.201 N 
ATOM     12  N   UNL     1       2.740  -4.099  -3.510  0.00  0.00    -0.042 NA
ATOM     13  N   UNL     1       3.712  -4.888  -3.184  0.00  0.00    -0.021 NA
ATOM     14  N   UNL     1       4.841  -4.300  -3.352  0.00  0.00    -0.092 NA
ATOM     15  H   UNL     1       6.510  -2.176  -3.874  0.00  0.00    +0.155 HD
ENDROOT
BRANCH   7  16
ATOM     16  C   UNL     1       1.911   0.659  -5.916  0.00  0.00    +0.003 A 
ATOM     17  C   UNL     1       1.424   1.940  -5.663  0.00  0.00    +0.013 A 
ATOM     18  C   UNL     1       0.085   2.215  -5.843  0.00  0.00    +0.039 A 
ATOM     19  C   UNL     1      -0.777   1.220  -6.275  0.00  0.00    +0.123 A 
ATOM     20  C   UNL     1      -0.298  -0.055  -6.529  0.00  0.00    +0.039 A 
ATOM     21  C   UNL     1       1.041  -0.338  -6.356  0.00  0.00    +0.013 A 
ATOM     22  F   UNL     1      -2.089   1.494  -6.450  0.00  0.00    -0.205 F 
ENDBRANCH   7  16
BRANCH   1  26
ATOM     23  C   UNL     1       0.855   0.318  -1.077  0.00  0.00    -0.048 A 
ATOM     24  C   UNL     1       0.091  -0.079  -2.159  0.00  0.00    +0.004 A 
ATOM     25  C   UNL     1       0.689  -0.720  -3.228  0.00  0.00    +0.006 A 
ATOM     26  C   UNL     1       2.049  -0.964  -3.215  0.00  0.00    -0.018 A 
ATOM     27  C   UNL     1       2.812  -0.567  -2.134  0.00  0.00    +0.006 A 
ATOM     28  C   UNL     1       2.216   0.078  -1.066  0.00  0.00    +0.004 A 
BRANCH  23  30
ATOM     29  C   UNL     1       0.212   2.527  -0.152  0.00  0.00    +0.009 C 
ATOM     30  C   UNL     1       0.203   1.016   0.089  0.00  0.00    +0.032 C 
ENDBRANCH  23  30
ENDBRANCH   1  26
TORSDOF 3
