REMARK  Name = ZINC38740782
REMARK  6 active torsions:
REMARK  status: ('A' for Active; 'I' for Inactive)
REMARK    1  A    between atoms: C_4  and  O_7
REMARK    2  A    between atoms: O_7  and  C_8
REMARK    3  A    between atoms: C_8  and  C_9
REMARK    4  A    between atoms: C_9  and  N_10
REMARK    5  A    between atoms: C_11  and  C_13
REMARK    6  A    between atoms: C_19  and  C_21
REMARK                            x       y       z     vdW  Elec       q    Type
REMARK                         _______ _______ _______ _____ _____    ______ ____
ROOT
ATOM      1  C   UNL     1       7.625  -2.270   2.676  0.00  0.00    +0.091 C 
ATOM      2  C   UNL     1       6.878  -2.856   3.876  0.00  0.00    +0.040 C 
ATOM      3  C   UNL     1       7.707  -2.717   5.119  0.00  0.00    -0.030 C 
ATOM      4  C   UNL     1       8.980  -2.480   5.118  0.00  0.00    -0.030 C 
ATOM      5  C   UNL     1       9.802  -2.301   3.876  0.00  0.00    +0.040 C 
ATOM      6  C   UNL     1       9.048  -2.841   2.659  0.00  0.00    +0.091 C 
ENDROOT
BRANCH   6   7
ATOM      7  C   UNL     1       9.749  -2.416   1.394  0.00  0.00    +0.220 C 
ATOM      8  O   UNL     1       9.397  -1.411   0.814  0.00  0.00    -0.275 OA
ATOM      9  N   UNL     1      10.768  -3.153   0.908  0.00  0.00    -0.298 N 
ATOM     10  C   UNL     1      11.136  -4.428   1.540  0.00  0.00    +0.126 C 
ATOM     11  C   UNL     1      11.104  -5.530   0.474  0.00  0.00    +0.125 C 
ATOM     12  N   UNL     1      11.865  -5.074  -0.697  0.00  0.00    -0.314 N 
ATOM     13  C   UNL     1      11.497  -3.799  -1.328  0.00  0.00    +0.125 C 
ATOM     14  C   UNL     1      11.526  -2.699  -0.266  0.00  0.00    +0.126 C 
ATOM     15  C   UNL     1      12.916  -5.834  -1.198  0.00  0.00    +0.099 A 
ATOM     16  C   UNL     1      13.164  -7.098  -0.673  0.00  0.00    +0.042 A 
ATOM     17  C   UNL     1      14.212  -7.844  -1.181  0.00  0.00    +0.005 A 
ATOM     18  C   UNL     1      14.980  -7.298  -2.201  0.00  0.00    +0.018 A 
ATOM     19  C   UNL     1      14.678  -6.037  -2.674  0.00  0.00    +0.084 A 
ATOM     20  N   UNL     1      13.668  -5.351  -2.174  0.00  0.00    -0.350 N 
ATOM     21  H   UNL     1      13.475  -4.468  -2.528  0.00  0.00    +0.166 HD
ENDBRANCH   6   7
BRANCH   1  23
ATOM     22  N   UNL     1       5.638  -2.259   1.202  0.00  0.00    -0.312 N 
ATOM     23  C   UNL     1       6.912  -2.648   1.403  0.00  0.00    +0.217 C 
ATOM     24  O   UNL     1       7.486  -3.303   0.558  0.00  0.00    -0.275 OA
ATOM     25  H   UNL     1       5.179  -1.735   1.878  0.00  0.00    +0.149 HD
BRANCH  22  26
ATOM     26  C   UNL     1       4.945  -2.626  -0.035  0.00  0.00    +0.145 C 
BRANCH  26  27
ATOM     27  C   UNL     1       3.522  -2.064  -0.010  0.00  0.00    +0.247 C 
BRANCH  27  28
ATOM     28  O   UNL     1       3.574  -0.636  -0.015  0.00  0.00    -0.490 OA
BRANCH  28  32
ATOM     29  C   UNL     1      -0.030   1.370   0.045  0.00  0.00    +0.000 A 
ATOM     30  C   UNL     1       1.155   2.081   0.021  0.00  0.00    +0.004 A 
ATOM     31  C   UNL     1       2.363   1.412   0.001  0.00  0.00    +0.045 A 
ATOM     32  C   UNL     1       2.387   0.025   0.005  0.00  0.00    +0.121 A 
ATOM     33  C   UNL     1       1.196  -0.687   0.029  0.00  0.00    +0.045 A 
ATOM     34  C   UNL     1      -0.009  -0.013   0.049  0.00  0.00    +0.004 A 
ENDBRANCH  28  32
ENDBRANCH  27  28
ENDBRANCH  26  27
ENDBRANCH  22  26
ENDBRANCH   1  23
TORSDOF 6
