REMARK  Name = ZINC58267349
REMARK  3 active torsions:
REMARK  status: ('A' for Active; 'I' for Inactive)
REMARK    1  A    between atoms: C_11  and  C_13
REMARK    2  A    between atoms: C_16  and  N_20
REMARK    3  A    between atoms: C_17  and  N_19
REMARK                            x       y       z     vdW  Elec       q    Type
REMARK                         _______ _______ _______ _____ _____    ______ ____
ROOT
ATOM      1  C   UNL     1      -0.358   1.115   0.885  0.00  0.00    +0.000 A 
ATOM      2  C   UNL     1       0.776   1.906   0.902  0.00  0.00    +0.000 A 
ATOM      3  C   UNL     1       2.014   1.329   0.710  0.00  0.00    +0.005 A 
ATOM      4  C   UNL     1       2.130  -0.039   0.502  0.00  0.00    -0.027 A 
ATOM      5  C   UNL     1       1.003  -0.829   0.494  0.00  0.00    -0.041 A 
ATOM      6  C   UNL     1      -0.244  -0.244   0.681  0.00  0.00    +0.004 A 
ATOM      7  C   UNL     1       1.053  -2.322   0.306  0.00  0.00    +0.054 C 
ATOM      8  C   UNL     1       2.366  -2.744  -0.351  0.00  0.00    +0.113 C 
ATOM      9  N   UNL     1       3.465  -2.067   0.357  0.00  0.00    -0.293 N 
ATOM     10  C   UNL     1       3.512  -0.603   0.284  0.00  0.00    +0.143 C 
ATOM     11  C   UNL     1       4.391  -2.765   1.044  0.00  0.00    +0.247 C 
ATOM     12  O   UNL     1       4.269  -3.967   1.180  0.00  0.00    -0.270 OA
ENDROOT
BRANCH  11  13
ATOM     13  C   UNL     1       5.552  -2.070   1.632  0.00  0.00    +0.039 A 
ATOM     14  C   UNL     1       6.093  -2.511   2.842  0.00  0.00    +0.015 A 
ATOM     15  C   UNL     1       7.177  -1.863   3.391  0.00  0.00    +0.025 A 
ATOM     16  C   UNL     1       7.736  -0.767   2.744  0.00  0.00    +0.046 A 
ATOM     17  C   UNL     1       7.200  -0.320   1.533  0.00  0.00    +0.046 A 
ATOM     18  C   UNL     1       6.117  -0.972   0.975  0.00  0.00    +0.037 A 
BRANCH  17  19
ATOM     19  N   UNL     1       7.764   0.784   0.882  0.00  0.00    -0.357 N 
ATOM     20  H   UNL     1       8.528   1.238   1.271  0.00  0.00    +0.142 HD
ATOM     21  H   UNL     1       7.392   1.094   0.042  0.00  0.00    +0.142 HD
ENDBRANCH  17  19
BRANCH  16  22
ATOM     22  N   UNL     1       8.833  -0.114   3.302  0.00  0.00    -0.357 N 
ATOM     23  H   UNL     1       9.205  -0.424   4.143  0.00  0.00    +0.142 HD
ATOM     24  H   UNL     1       9.223   0.650   2.851  0.00  0.00    +0.142 HD
ENDBRANCH  16  22
ENDBRANCH  11  13
TORSDOF 3
