REMARK  Name = ZINC04383925
REMARK  7 active torsions:
REMARK  status: ('A' for Active; 'I' for Inactive)
REMARK    1  A    between atoms: C_1  and  C_2
REMARK    2  A    between atoms: N_7  and  C_10
REMARK    3  A    between atoms: C_10  and  C_11
REMARK    4  A    between atoms: C_14  and  C_17
REMARK    5  A    between atoms: C_17  and  O_19
REMARK    6  A    between atoms: O_19  and  C_20
REMARK    7  A    between atoms: C_22  and  C_23
REMARK                            x       y       z     vdW  Elec       q    Type
REMARK                         _______ _______ _______ _____ _____    ______ ____
ROOT
ATOM      1  C   UNL     1       0.173   5.370   3.296  0.00  0.00    +0.046 C 
ATOM      2  C   UNL     1      -0.868   4.364   3.715  0.00  0.00    -0.017 A 
ATOM      3  C   UNL     1      -1.050   3.194   2.974  0.00  0.00    +0.076 A 
ATOM      4  C   UNL     1      -2.050   2.314   3.447  0.00  0.00    +0.116 A 
ATOM      5  N   UNL     1      -2.322   1.170   2.834  0.00  0.00    -0.230 NA
ATOM      6  C   UNL     1      -1.679   0.798   1.761  0.00  0.00    +0.203 A 
ATOM      7  N   UNL     1      -0.698   1.558   1.213  0.00  0.00    -0.294 N 
ATOM      8  C   UNL     1      -0.338   2.737   1.758  0.00  0.00    +0.263 A 
ATOM      9  O   UNL     1       0.547   3.410   1.262  0.00  0.00    -0.267 OA
ATOM     10  S   UNL     1      -2.679   3.148   4.882  0.00  0.00    -0.064 S 
ATOM     11  C   UNL     1      -1.634   4.593   4.820  0.00  0.00    +0.079 A 
ENDROOT
BRANCH  11  12
ATOM     12  C   UNL     1      -1.607   5.743   5.730  0.00  0.00    +0.248 C 
ATOM     13  O   UNL     1      -0.822   6.652   5.538  0.00  0.00    -0.270 OA
ATOM     14  N   UNL     1      -2.452   5.791   6.779  0.00  0.00    -0.325 N 
ATOM     15  H   UNL     1      -3.077   5.066   6.933  0.00  0.00    +0.145 HD
ATOM     16  H   UNL     1      -2.434   6.552   7.381  0.00  0.00    +0.145 HD
ENDBRANCH  11  12
BRANCH   7  17
ATOM     17  C   UNL     1      -0.013   1.086   0.008  0.00  0.00    +0.161 C 
BRANCH  17  18
ATOM     18  C   UNL     1      -0.742   1.585  -1.213  0.00  0.00    -0.028 A 
ATOM     19  C   UNL     1      -1.750   0.821  -1.773  0.00  0.00    +0.006 A 
ATOM     20  C   UNL     1      -2.425   1.274  -2.888  0.00  0.00    +0.015 A 
ATOM     21  C   UNL     1      -2.080   2.502  -3.457  0.00  0.00    +0.059 A 
ATOM     22  C   UNL     1      -1.058   3.265  -2.890  0.00  0.00    +0.015 A 
ATOM     23  C   UNL     1      -0.395   2.802  -1.772  0.00  0.00    +0.006 A 
BRANCH  21  24
ATOM     24  C   UNL     1      -2.795   2.991  -4.654  0.00  0.00    +0.339 C 
ATOM     25  O   UNL     1      -2.493   4.060  -5.147  0.00  0.00    -0.245 OA
BRANCH  24  26
ATOM     26  O   UNL     1      -3.781   2.253  -5.199  0.00  0.00    -0.464 OA
ATOM     27  C   UNL     1      -4.439   2.796  -6.373  0.00  0.00    +0.280 C 
ENDBRANCH  24  26
ENDBRANCH  21  24
ENDBRANCH  17  18
ENDBRANCH   7  17
TORSDOF 5
