REMARK  Name = ZINC35843298
REMARK  5 active torsions:
REMARK  status: ('A' for Active; 'I' for Inactive)
REMARK    1  A    between atoms: C_1  and  C_2
REMARK    2  A    between atoms: C_7  and  C_8
REMARK    3  A    between atoms: N_25  and  C_28
REMARK    4  A    between atoms: C_30  and  N_35
REMARK    5  A    between atoms: C_33  and  C_34
REMARK                            x       y       z     vdW  Elec       q    Type
REMARK                         _______ _______ _______ _____ _____    ______ ____
ROOT
ATOM      1  C   UNL     1      -0.018   1.503   0.010  0.00  0.00    +0.044 C 
ATOM      2  C   UNL     1       0.002  -0.004   0.002  0.00  0.00    -0.046 A 
ATOM      3  C   UNL     1       0.006  -0.687  -1.201  0.00  0.00    +0.004 A 
ATOM      4  C   UNL     1       0.026  -2.069  -1.206  0.00  0.00    +0.008 A 
ATOM      5  C   UNL     1       0.044  -2.770  -0.021  0.00  0.00    +0.004 A 
ATOM      6  C   UNL     1       0.038  -2.091   1.196  0.00  0.00    +0.042 A 
ATOM      7  C   UNL     1       0.023  -0.698   1.194  0.00  0.00    -0.026 A 
ATOM      8  C   UNL     1       0.023   0.054   2.499  0.00  0.00    +0.046 C 
ATOM      9  N   UNL     1       0.055  -2.999   2.257  0.00  0.00    -0.283 N 
ATOM     10  C   UNL     1       0.073  -4.277   1.831  0.00  0.00    +0.243 C 
ATOM     11  O   UNL     1       0.091  -5.272   2.524  0.00  0.00    -0.273 OA
ATOM     12  C   UNL     1       0.068  -4.228   0.327  0.00  0.00    +0.138 C 
ATOM     13  C   UNL     1      -1.099  -4.998  -0.267  0.00  0.00    +0.123 C 
ATOM     14  C   UNL     1      -0.539  -5.085  -1.739  0.00  0.00    +0.107 C 
ATOM     15  C   UNL     1       0.868  -5.488  -1.577  0.00  0.00    +0.071 C 
ATOM     16  N   UNL     1       1.248  -4.919  -0.233  0.00  0.00    -0.281 NA
ATOM     17  C   UNL     1       2.438  -4.087  -0.354  0.00  0.00    +0.086 C 
ATOM     18  C   UNL     1       3.021  -4.347  -1.760  0.00  0.00    +0.017 C 
ATOM     19  C   UNL     1       1.771  -4.760  -2.602  0.00  0.00    +0.021 C 
ATOM     20  C   UNL     1      -1.717  -5.450  -2.488  0.00  0.00    +0.232 C 
ATOM     21  O   UNL     1      -1.780  -6.160  -3.469  0.00  0.00    -0.274 OA
ATOM     22  N   UNL     1      -2.750  -4.815  -1.843  0.00  0.00    -0.209 N 
ATOM     23  C   UNL     1      -2.396  -4.328  -0.602  0.00  0.00    +0.233 C 
ATOM     24  O   UNL     1      -2.997  -3.523   0.077  0.00  0.00    -0.274 OA
ATOM     25  H   UNL     1       0.053  -2.740   3.192  0.00  0.00    +0.155 HD
ENDROOT
BRANCH  22  26
ATOM     26  C   UNL     1      -4.038  -4.684  -2.382  0.00  0.00    +0.049 A 
ATOM     27  C   UNL     1      -4.998  -5.656  -2.134  0.00  0.00    +0.057 A 
ATOM     28  C   UNL     1      -6.266  -5.524  -2.667  0.00  0.00    +0.128 A 
ATOM     29  C   UNL     1      -6.579  -4.426  -3.447  0.00  0.00    +0.033 A 
ATOM     30  C   UNL     1      -5.624  -3.457  -3.696  0.00  0.00    +0.007 A 
ATOM     31  C   UNL     1      -4.357  -3.580  -3.161  0.00  0.00    -0.028 A 
ATOM     32  C   UNL     1      -3.319  -2.521  -3.428  0.00  0.00    +0.045 C 
BRANCH  28  33
ATOM     33  N   UNL     1      -7.290  -6.560  -2.403  0.00  0.00    +0.056 N 
ATOM     34  O   UNL     1      -7.017  -7.520  -1.721  0.00  0.00    -0.126 OA
ATOM     35  O   UNL     1      -8.399  -6.445  -2.869  0.00  0.00    -0.126 OA
ENDBRANCH  28  33
ENDBRANCH  22  26
TORSDOF 2
