REMARK  Name = ZINC12331466
REMARK  7 active torsions:
REMARK  status: ('A' for Active; 'I' for Inactive)
REMARK    1  A    between atoms: C_5  and  C_7
REMARK    2  A    between atoms: C_7  and  N_8
REMARK    3  A    between atoms: C_9  and  C_11
REMARK    4  A    between atoms: C_15  and  C_20
REMARK    5  A    between atoms: C_20  and  O_33
REMARK    6  A    between atoms: C_25  and  C_26
REMARK    7  A    between atoms: C_25  and  N_61
REMARK                            x       y       z     vdW  Elec       q    Type
REMARK                         _______ _______ _______ _____ _____    ______ ____
ROOT
ATOM      1  C   UNL     1       1.445  -4.282   0.761  0.00  0.00    +0.190 A 
ATOM      2  C   UNL     1       1.987  -3.080   1.083  0.00  0.00    +0.063 A 
ATOM      3  C   UNL     1       1.061  -2.069   0.573  0.00  0.00    +0.021 A 
ATOM      4  C   UNL     1       1.046  -0.672   0.577  0.00  0.00    +0.018 A 
ATOM      5  C   UNL     1       0.002  -0.004   0.002  0.00  0.00    -0.015 A 
ATOM      6  C   UNL     1      -1.038  -0.705  -0.594  0.00  0.00    +0.010 A 
ATOM      7  C   UNL     1      -1.040  -2.082  -0.613  0.00  0.00    +0.047 A 
ATOM      8  C   UNL     1       0.010  -2.784  -0.030  0.00  0.00    +0.136 A 
ATOM      9  O   UNL     1       0.280  -4.096   0.106  0.00  0.00    -0.450 OA
ENDROOT
BRANCH   5  10
ATOM     10  C   UNL     1      -0.018   1.503   0.010  0.00  0.00    +0.088 C 
ATOM     11  C   UNL     1      -0.738   1.998   1.268  0.00  0.00    +0.021 C 
ATOM     12  C   UNL     1      -0.810   3.526   1.240  0.00  0.00    -0.075 C 
ATOM     13  C   UNL     1      -0.832   3.539  -1.183  0.00  0.00    -0.075 C 
ATOM     14  C   UNL     1      -0.761   2.011  -1.228  0.00  0.00    +0.021 C 
ATOM     15  N   UNL     1      -1.558   3.950   0.037  0.00  0.00    +0.383 N 
ATOM     16  H   UNL     1      -2.481   3.500   0.043  0.00  0.00    -0.081 HD
BRANCH  10  17
ATOM     17  O   UNL     1       1.322   1.999   0.000  0.00  0.00    -0.384 OA
ATOM     18  H   UNL     1       1.851   1.717   0.759  0.00  0.00    +0.211 HD
ENDBRANCH  10  17
BRANCH  15  19
ATOM     19  C   UNL     1      -1.739   5.417   0.047  0.00  0.00    -0.043 C 
BRANCH  19  20
ATOM     20  C   UNL     1      -2.231   5.845   1.406  0.00  0.00    -0.061 A 
ATOM     21  C   UNL     1      -3.587   5.886   1.668  0.00  0.00    +0.002 A 
ATOM     22  C   UNL     1      -4.039   6.274   2.916  0.00  0.00    +0.003 A 
ATOM     23  C   UNL     1      -3.135   6.631   3.899  0.00  0.00    +0.038 A 
ATOM     24  C   UNL     1      -1.777   6.594   3.635  0.00  0.00    +0.124 A 
ATOM     25  C   UNL     1      -1.325   6.201   2.387  0.00  0.00    +0.040 A 
ATOM     26  F   UNL     1      -0.893   6.943   4.595  0.00  0.00    -0.205 F 
ENDBRANCH  19  20
ENDBRANCH  15  19
ENDBRANCH   5  10
BRANCH   1  28
ATOM     27  N   UNL     1       1.407  -6.722   0.710  0.00  0.00    -0.305 N 
ATOM     28  C   UNL     1       2.037  -5.590   1.079  0.00  0.00    +0.280 C 
ATOM     29  O   UNL     1       3.095  -5.649   1.676  0.00  0.00    -0.267 OA
ATOM     30  H   UNL     1       0.563  -6.675   0.234  0.00  0.00    +0.149 HD
BRANCH  27  31
ATOM     31  C   UNL     1       1.997  -8.025   1.027  0.00  0.00    +0.142 C 
BRANCH  31  36
ATOM     32  C   UNL     1      -0.575 -10.785   0.894  0.00  0.00    +0.000 A 
ATOM     33  C   UNL     1      -0.539 -11.134  -0.443  0.00  0.00    +0.003 A 
ATOM     34  C   UNL     1       0.317 -10.478  -1.306  0.00  0.00    +0.038 A 
ATOM     35  C   UNL     1       1.140  -9.470  -0.831  0.00  0.00    +0.128 A 
ATOM     36  C   UNL     1       1.103  -9.122   0.508  0.00  0.00    +0.005 A 
ATOM     37  C   UNL     1       0.249  -9.784   1.371  0.00  0.00    +0.008 A 
ATOM     38  F   UNL     1       1.978  -8.828  -1.673  0.00  0.00    -0.205 F 
ENDBRANCH  31  36
ENDBRANCH  27  31
ENDBRANCH   1  28
TORSDOF 7
