REMARK  Name = ZINC02951870
REMARK  8 active torsions:
REMARK  status: ('A' for Active; 'I' for Inactive)
REMARK    1  A    between atoms: C_4  and  C_7
REMARK    2  A    between atoms: C_10  and  N_13
REMARK    3  A    between atoms: N_13  and  C_14
REMARK    4  A    between atoms: C_14  and  N_16
REMARK    5  A    between atoms: N_16  and  C_17
REMARK    6  A    between atoms: C_17  and  C_19
REMARK    7  A    between atoms: C_17  and  N_23
REMARK    8  A    between atoms: C_24  and  C_26
REMARK                            x       y       z     vdW  Elec       q    Type
REMARK                         _______ _______ _______ _____ _____    ______ ____
ROOT
ATOM      1  N   UNL     1      -1.260   7.650  -0.150  0.00  0.00    -0.305 N 
ATOM      2  H   UNL     1      -0.425   8.144  -0.155  0.00  0.00    +0.150 HD
ENDROOT
BRANCH   1   3
ATOM      3  C   UNL     1      -1.247   6.306  -0.055  0.00  0.00    +0.136 C 
ATOM      4  S   UNL     1      -2.721   5.434  -0.045  0.00  0.00    -0.019 S 
BRANCH   3   5
ATOM      5  N   UNL     1      -0.075   5.647   0.032  0.00  0.00    -0.297 N 
ATOM      6  H   UNL     1       0.756   6.143   0.108  0.00  0.00    +0.154 HD
BRANCH   5  10
ATOM      7  C   UNL     1      -0.016   1.480  -0.023  0.00  0.00    -0.018 A 
ATOM      8  C   UNL     1       0.797   2.178   0.869  0.00  0.00    +0.010 A 
ATOM      9  C   UNL     1       0.780   3.556   0.881  0.00  0.00    +0.024 A 
ATOM     10  C   UNL     1      -0.055   4.250   0.014  0.00  0.00    +0.033 A 
ATOM     11  C   UNL     1      -0.871   3.556  -0.872  0.00  0.00    +0.024 A 
ATOM     12  C   UNL     1      -0.853   2.177  -0.892  0.00  0.00    +0.010 A 
BRANCH   7  16
ATOM     13  C   UNL     1       0.043  -2.772  -0.077  0.00  0.00    +0.000 A 
ATOM     14  C   UNL     1       0.856  -2.083   0.805  0.00  0.00    +0.001 A 
ATOM     15  C   UNL     1       0.841  -0.703   0.827  0.00  0.00    +0.008 A 
ATOM     16  C   UNL     1       0.005  -0.004  -0.042  0.00  0.00    -0.018 A 
ATOM     17  C   UNL     1      -0.816  -0.703  -0.925  0.00  0.00    +0.008 A 
ATOM     18  C   UNL     1      -0.789  -2.083  -0.941  0.00  0.00    +0.001 A 
ENDBRANCH   7  16
ENDBRANCH   5  10
ENDBRANCH   3   5
ENDBRANCH   1   3
BRANCH   1  19
ATOM     19  C   UNL     1      -2.535   8.366  -0.244  0.00  0.00    +0.211 C 
BRANCH  19  20
ATOM     20  C   UNL     1      -2.512   9.573   0.695  0.00  0.00    +0.225 C 
ATOM     21 CL   UNL     1      -1.167  10.677   0.223  0.00  0.00    -0.080 Cl
ATOM     22 CL   UNL     1      -4.081  10.454   0.579  0.00  0.00    -0.080 Cl
ATOM     23 CL   UNL     1      -2.263   9.012   2.390  0.00  0.00    -0.080 Cl
ENDBRANCH  19  20
BRANCH  19  24
ATOM     24  N   UNL     1      -2.737   8.822  -1.621  0.00  0.00    -0.289 N 
ATOM     25  C   UNL     1      -3.620   8.188  -2.418  0.00  0.00    +0.247 C 
ATOM     26  O   UNL     1      -4.248   7.237  -1.994  0.00  0.00    -0.270 OA
ATOM     27  H   UNL     1      -2.236   9.581  -1.960  0.00  0.00    +0.151 HD
BRANCH  25  28
ATOM     28  C   UNL     1      -3.825   8.648  -3.808  0.00  0.00    +0.055 A 
ATOM     29  C   UNL     1      -3.110   9.743  -4.296  0.00  0.00    +0.014 A 
ATOM     30  C   UNL     1      -3.301  10.164  -5.595  0.00  0.00    +0.001 A 
ATOM     31  C   UNL     1      -4.208   9.511  -6.412  0.00  0.00    +0.001 A 
ATOM     32  C   UNL     1      -4.924   8.429  -5.934  0.00  0.00    +0.021 A 
ATOM     33  C   UNL     1      -4.738   7.993  -4.636  0.00  0.00    +0.053 A 
ATOM     34 CL   UNL     1      -5.639   6.635  -4.037  0.00  0.00    -0.083 Cl
ENDBRANCH  25  28
ENDBRANCH  19  24
ENDBRANCH   1  19
TORSDOF 8
