REMARK  Name = ZINC40324487
REMARK  4 active torsions:
REMARK  status: ('A' for Active; 'I' for Inactive)
REMARK    1  A    between atoms: C_1  and  S_2
REMARK    2  A    between atoms: S_2  and  C_5
REMARK    3  A    between atoms: C_8  and  C_11
REMARK    4  A    between atoms: C_17  and  C_19
REMARK                            x       y       z     vdW  Elec       q    Type
REMARK                         _______ _______ _______ _____ _____    ______ ____
ROOT
ATOM      1  C   UNL     1       2.881  -1.484  -5.067  0.00  0.00    +0.170 A 
ATOM      2  N   UNL     1       4.191  -1.652  -5.083  0.00  0.00    -0.204 NA
ATOM      3  C   UNL     1       4.754  -1.977  -6.232  0.00  0.00    +0.185 A 
ATOM      4  S   UNL     1       3.442  -2.046  -7.280  0.00  0.00    +0.050 S 
ATOM      5  N   UNL     1       2.224  -1.658  -6.196  0.00  0.00    -0.187 NA
ATOM      6  N   UNL     1       6.094  -2.205  -6.506  0.00  0.00    -0.259 N 
ATOM      7  C   UNL     1       6.480  -2.531  -7.756  0.00  0.00    +0.257 C 
ATOM      8  O   UNL     1       5.653  -2.625  -8.643  0.00  0.00    -0.270 OA
ATOM      9  H   UNL     1       6.753  -2.131  -5.799  0.00  0.00    +0.157 HD
ENDROOT
BRANCH   7  10
ATOM     10  C   UNL     1       7.903  -2.773  -8.047  0.00  0.00    +0.122 A 
ATOM     11  C   UNL     1       8.332  -3.105  -9.326  0.00  0.00    +0.031 A 
ATOM     12  C   UNL     1       9.714  -3.354  -9.522  0.00  0.00    +0.018 A 
ATOM     13  C   UNL     1      10.235  -3.495 -10.817  0.00  0.00    +0.011 A 
ATOM     14  C   UNL     1      11.575  -3.694 -10.991  0.00  0.00    +0.001 A 
ATOM     15  C   UNL     1      12.426  -3.765  -9.896  0.00  0.00    +0.004 A 
ATOM     16  C   UNL     1      11.933  -3.649  -8.614  0.00  0.00    +0.047 A 
ATOM     17  C   UNL     1      10.573  -3.454  -8.412  0.00  0.00    +0.139 A 
ATOM     18  O   UNL     1      10.070  -3.381  -7.156  0.00  0.00    -0.422 OA
ATOM     19  C   UNL     1       8.929  -2.668  -6.994  0.00  0.00    +0.350 A 
ATOM     20  O   UNL     1       8.755  -1.968  -6.014  0.00  0.00    -0.244 OA
ENDBRANCH   7  10
BRANCH   1  24
ATOM     21  C   UNL     1       0.845  -0.437  -1.483  0.00  0.00    +0.088 A 
ATOM     22  C   UNL     1       0.132  -0.612  -2.655  0.00  0.00    +0.027 A 
ATOM     23  C   UNL     1       0.787  -0.952  -3.821  0.00  0.00    +0.013 A 
ATOM     24  C   UNL     1       2.171  -1.119  -3.817  0.00  0.00    +0.020 A 
ATOM     25  C   UNL     1       2.885  -0.941  -2.633  0.00  0.00    +0.013 A 
ATOM     26  C   UNL     1       2.220  -0.596  -1.474  0.00  0.00    +0.027 A 
BRANCH  21  28
ATOM     27  C   UNL     1      -0.022   1.810   0.012  0.00  0.00    +0.200 C 
ATOM     28  S   UNL     1       0.002  -0.004   0.002  0.00  0.00    -0.006 S 
ATOM     29  O   UNL     1       0.835  -0.488   1.046  0.00  0.00    -0.170 OA
ATOM     30  O   UNL     1      -1.315  -0.510  -0.168  0.00  0.00    -0.170 OA
ENDBRANCH  21  28
ENDBRANCH   1  24
TORSDOF 3
