REMARK  Name = ZINC51588229
REMARK  9 active torsions:
REMARK  status: ('A' for Active; 'I' for Inactive)
REMARK    1  A    between atoms: C_1  and  C_2
REMARK    2  A    between atoms: C_2  and  C_3
REMARK    3  A    between atoms: C_3  and  C_4
REMARK    4  A    between atoms: C_4  and  C_6
REMARK    5  A    between atoms: C_4  and  N_7
REMARK    6  A    between atoms: C_8  and  C_10
REMARK    7  A    between atoms: N_19  and  C_20
REMARK    8  A    between atoms: C_22  and  N_27
REMARK    9  A    between atoms: C_28  and  C_30
REMARK                            x       y       z     vdW  Elec       q    Type
REMARK                         _______ _______ _______ _____ _____    ______ ____
ROOT
ATOM      1  C   UNL     1      -2.678  -4.275  -0.573  0.00  0.00    +0.092 C 
ATOM      2  C   UNL     1      -2.635  -5.758  -0.200  0.00  0.00    +0.016 C 
ATOM      3  C   UNL     1      -3.990  -6.401  -0.504  0.00  0.00    +0.020 C 
ATOM      4  C   UNL     1      -4.280  -6.288  -2.004  0.00  0.00    +0.109 C 
ATOM      5  N   UNL     1      -4.179  -4.877  -2.400  0.00  0.00    -0.285 N 
ATOM      6  C   UNL     1      -2.953  -4.137  -2.074  0.00  0.00    +0.122 C 
ATOM      7  C   UNL     1      -5.193  -4.272  -3.050  0.00  0.00    +0.307 C 
ATOM      8  O   UNL     1      -5.137  -3.082  -3.291  0.00  0.00    -0.252 OA
ATOM      9  N   UNL     1      -6.270  -4.987  -3.433  0.00  0.00    -0.267 N 
ATOM     10  H   UNL     1      -6.345  -5.921  -3.184  0.00  0.00    +0.156 HD
ENDROOT
BRANCH   9  11
ATOM     11  C   UNL     1      -7.280  -4.380  -4.190  0.00  0.00    +0.072 A 
ATOM     12  C   UNL     1      -7.027  -3.192  -4.860  0.00  0.00    +0.049 A 
ATOM     13  C   UNL     1      -8.030  -2.595  -5.609  0.00  0.00    +0.035 A 
ATOM     14  C   UNL     1      -9.285  -3.186  -5.687  0.00  0.00    +0.026 A 
ATOM     15  C   UNL     1      -9.535  -4.369  -5.019  0.00  0.00    +0.042 A 
ATOM     16  C   UNL     1      -8.536  -4.971  -4.275  0.00  0.00    +0.145 A 
ATOM     17  F   UNL     1      -8.782  -6.131  -3.627  0.00  0.00    -0.204 F 
BRANCH  13  18
ATOM     18  N   UNL     1      -7.779  -1.395  -6.287  0.00  0.00    -0.286 N 
ATOM     19  C   UNL     1      -8.352  -1.164  -7.484  0.00  0.00    +0.214 C 
ATOM     20  O   UNL     1      -9.152  -1.956  -7.936  0.00  0.00    -0.276 OA
ATOM     21  C   UNL     1      -7.998   0.077  -8.262  0.00  0.00    +0.109 C 
ATOM     22  H   UNL     1      -7.191  -0.731  -5.894  0.00  0.00    +0.155 HD
ENDBRANCH  13  18
ENDBRANCH   9  11
BRANCH   1  24
ATOM     23  N   UNL     1      -1.158  -2.325  -0.490  0.00  0.00    -0.312 N 
ATOM     24  C   UNL     1      -1.353  -3.635  -0.244  0.00  0.00    +0.218 C 
ATOM     25  O   UNL     1      -0.463  -4.300   0.243  0.00  0.00    -0.275 OA
ATOM     26  H   UNL     1      -1.870  -1.793  -0.879  0.00  0.00    +0.149 HD
BRANCH  23  27
ATOM     27  C   UNL     1       0.129  -1.703  -0.169  0.00  0.00    +0.070 C 
ATOM     28  C   UNL     1       1.101  -1.915  -1.331  0.00  0.00    +0.028 C 
BRANCH  27  29
ATOM     29  C   UNL     1      -0.072  -0.203   0.060  0.00  0.00    +0.022 C 
BRANCH  29  31
ATOM     30  C   UNL     1      -1.145   1.510   1.527  0.00  0.00    +0.004 C 
ATOM     31  C   UNL     1      -0.944   0.011   1.298  0.00  0.00    -0.002 C 
ENDBRANCH  29  31
ENDBRANCH  27  29
ENDBRANCH  23  27
ENDBRANCH   1  24
TORSDOF 6
