REMARK  Name = ZINC06490155
REMARK  6 active torsions:
REMARK  status: ('A' for Active; 'I' for Inactive)
REMARK    1  A    between atoms: C_1  and  C_2
REMARK    2  A    between atoms: C_2  and  N_3
REMARK    3  A    between atoms: C_5  and  N_11
REMARK    4  A    between atoms: C_6  and  C_8
REMARK    5  A    between atoms: C_12  and  C_14
REMARK    6  A    between atoms: C_14  and  C_15
REMARK                            x       y       z     vdW  Elec       q    Type
REMARK                         _______ _______ _______ _____ _____    ______ ____
ROOT
ATOM      1  N   UNL     1      -2.571  -2.730   0.012  0.00  0.00    -0.282 N 
ATOM      2  C   UNL     1      -1.413  -2.041   0.005  0.00  0.00    +0.218 C 
ATOM      3  O   UNL     1      -0.354  -2.633  -0.009  0.00  0.00    -0.275 OA
ATOM      4  H   UNL     1      -3.417  -2.257   0.023  0.00  0.00    +0.155 HD
ENDROOT
BRANCH   1   7
ATOM      5  N   UNL     1      -1.911  -6.223  -0.012  0.00  0.00    -0.269 N 
ATOM      6  C   UNL     1      -1.459  -4.942  -0.010  0.00  0.00    +0.132 A 
ATOM      7  C   UNL     1      -2.552  -4.133   0.004  0.00  0.00    +0.084 A 
ATOM      8  C   UNL     1      -3.669  -5.008   0.016  0.00  0.00    +0.168 A 
ATOM      9  N   UNL     1      -3.196  -6.240  -0.000  0.00  0.00    -0.165 NA
BRANCH   8  10
ATOM     10  C   UNL     1      -5.090  -4.615   0.038  0.00  0.00    +0.263 C 
ATOM     11  O   UNL     1      -5.396  -3.438   0.049  0.00  0.00    -0.269 OA
ATOM     12  N   UNL     1      -6.051  -5.561   0.048  0.00  0.00    -0.324 N 
ATOM     13  H   UNL     1      -5.807  -6.500   0.039  0.00  0.00    +0.145 HD
ATOM     14  H   UNL     1      -6.986  -5.302   0.062  0.00  0.00    +0.145 HD
ENDBRANCH   8  10
BRANCH   5  16
ATOM     15  C   UNL     1      -1.422  -8.316   1.154  0.00  0.00    +0.029 C 
ATOM     16  C   UNL     1      -1.058  -7.413  -0.026  0.00  0.00    +0.140 C 
ENDBRANCH   5  16
ENDBRANCH   1   7
BRANCH   2  17
ATOM     17  C   UNL     1      -1.433  -0.534   0.013  0.00  0.00    +0.103 C 
BRANCH  17  18
ATOM     18  C   UNL     1       0.002  -0.004   0.002  0.00  0.00    -0.020 C 
ATOM     19  C   UNL     1      -0.019   1.526   0.010  0.00  0.00    +0.011 C 
ATOM     20  C   UNL     1       1.417   2.055  -0.000  0.00  0.00    -0.010 C 
ATOM     21  C   UNL     1       2.157   1.548   1.239  0.00  0.00    +0.007 C 
ATOM     22  C   UNL     1       2.178   0.019   1.231  0.00  0.00    -0.010 C 
ATOM     23  C   UNL     1       0.742  -0.511   1.242  0.00  0.00    +0.011 C 
ATOM     24  C   UNL     1       2.894  -0.475  -0.028  0.00  0.00    +0.007 C 
ATOM     25  C   UNL     1       2.154   0.032  -1.268  0.00  0.00    -0.010 C 
ATOM     26  C   UNL     1       2.133   1.562  -1.259  0.00  0.00    +0.007 C 
ATOM     27  C   UNL     1       0.718  -0.497  -1.257  0.00  0.00    +0.011 C 
ENDBRANCH  17  18
ENDBRANCH   2  17
TORSDOF 5
