REMARK  Name = ZINC10068219
REMARK  11 active torsions:
REMARK  status: ('A' for Active; 'I' for Inactive)
REMARK    1  A    between atoms: C_1  and  C_2
REMARK    2  A    between atoms: C_2  and  C_3
REMARK    3  A    between atoms: C_2  and  C_4
REMARK    4  A    between atoms: C_4  and  N_5
REMARK    5  A    between atoms: C_9  and  C_11
REMARK    6  A    between atoms: C_11  and  O_12
REMARK    7  A    between atoms: O_12  and  C_13
REMARK    8  A    between atoms: C_13  and  C_15
REMARK    9  A    between atoms: C_18  and  C_20
REMARK   10  A    between atoms: C_20  and  S_21
REMARK   11  A    between atoms: S_21  and  C_24
REMARK                            x       y       z     vdW  Elec       q    Type
REMARK                         _______ _______ _______ _____ _____    ______ ____
ROOT
ATOM      1  C   UNL     1       9.228  -1.950  -2.233  0.00  0.00    +0.375 C 
ATOM      2  O   UNL     1       9.982  -2.898  -2.336  0.00  0.00    -0.241 OA
ENDROOT
BRANCH   1   3
ATOM      3  C   UNL     1       7.784  -2.170  -2.127  0.00  0.00    +0.212 A 
ATOM      4  C   UNL     1       7.154  -3.382  -2.131  0.00  0.00    +0.057 A 
ATOM      5  C   UNL     1       5.780  -3.124  -2.005  0.00  0.00    +0.047 A 
ATOM      6  C   UNL     1       5.632  -1.782  -1.938  0.00  0.00    +0.127 A 
ATOM      7  O   UNL     1       6.842  -1.211  -2.009  0.00  0.00    -0.451 OA
BRANCH   6   8
ATOM      8  C   UNL     1       4.323  -1.049  -1.801  0.00  0.00    +0.245 C 
BRANCH   8   9
ATOM      9  S   UNL     1       3.934  -0.832  -0.042  0.00  0.00    +0.004 S 
ATOM     10  O   UNL     1       4.859   0.066   0.556  0.00  0.00    -0.169 OA
ATOM     11  O   UNL     1       3.654  -2.090   0.556  0.00  0.00    -0.169 OA
BRANCH   9  12
ATOM     12  C   UNL     1       2.396   0.029  -0.022  0.00  0.00    +0.089 A 
ATOM     13  C   UNL     1       1.208  -0.679  -0.014  0.00  0.00    +0.027 A 
ATOM     14  C   UNL     1       0.002  -0.004   0.002  0.00  0.00    +0.002 A 
ATOM     15  C   UNL     1      -0.017   1.378   0.010  0.00  0.00    +0.000 A 
ATOM     16  C   UNL     1       1.171   2.086   0.002  0.00  0.00    +0.002 A 
ATOM     17  C   UNL     1       2.377   1.411  -0.014  0.00  0.00    +0.027 A 
ENDBRANCH   9  12
ENDBRANCH   8   9
ENDBRANCH   6   8
ENDBRANCH   1   3
BRANCH   1  18
ATOM     18  O   UNL     1       9.722  -0.694  -2.216  0.00  0.00    -0.450 OA
BRANCH  18  19
ATOM     19  C   UNL     1      11.162  -0.551  -2.325  0.00  0.00    +0.328 C 
BRANCH  19  24
ATOM     20  N   UNL     1      14.435   2.969  -2.429  0.00  0.00    -0.299 N 
ATOM     21  C   UNL     1      13.143   2.593  -2.342  0.00  0.00    +0.306 C 
ATOM     22  O   UNL     1      12.272   3.434  -2.235  0.00  0.00    -0.252 OA
ATOM     23  N   UNL     1      12.818   1.286  -2.375  0.00  0.00    -0.237 N 
ATOM     24  C   UNL     1      11.526   0.911  -2.288  0.00  0.00    +0.258 C 
ATOM     25  O   UNL     1      10.657   1.749  -2.181  0.00  0.00    -0.272 OA
ATOM     26  H   UNL     1      15.130   2.298  -2.515  0.00  0.00    +0.150 HD
ATOM     27  H   UNL     1      13.513   0.615  -2.461  0.00  0.00    +0.159 HD
BRANCH  20  28
ATOM     28  C   UNL     1      14.789   4.390  -2.394  0.00  0.00    +0.108 C 
BRANCH  28  30
ATOM     29  C   UNL     1      16.667   6.025  -2.597  0.00  0.00    +0.009 C 
ATOM     30  C   UNL     1      16.307   4.541  -2.508  0.00  0.00    -0.000 C 
ATOM     31  C   UNL     1      16.975   3.926  -1.276  0.00  0.00    +0.009 C 
ENDBRANCH  28  30
ENDBRANCH  20  28
ENDBRANCH  19  24
ENDBRANCH  18  19
ENDBRANCH   1  18
TORSDOF 9
