REMARK  Name = ZINC45308487
REMARK  7 active torsions:
REMARK  status: ('A' for Active; 'I' for Inactive)
REMARK    1  A    between atoms: C_1  and  C_2
REMARK    2  A    between atoms: C_7  and  N_8
REMARK    3  A    between atoms: N_11  and  C_12
REMARK    4  A    between atoms: C_12  and  C_13
REMARK    5  A    between atoms: C_13  and  C_15
REMARK    6  A    between atoms: C_13  and  N_21
REMARK    7  A    between atoms: C_18  and  C_20
REMARK                            x       y       z     vdW  Elec       q    Type
REMARK                         _______ _______ _______ _____ _____    ______ ____
ROOT
ATOM      1  C   UNL     1      -0.022  -0.898   6.126  0.00  0.00    +0.132 C 
ENDROOT
BRANCH   1   5
ATOM      2  N   UNL     1      -2.652  -3.446   5.794  0.00  0.00    -0.254 N 
ATOM      3  C   UNL     1      -1.496  -2.773   5.628  0.00  0.00    +0.305 C 
ATOM      4  O   UNL     1      -0.649  -3.198   4.866  0.00  0.00    -0.252 OA
ATOM      5  N   UNL     1      -1.279  -1.629   6.306  0.00  0.00    -0.297 N 
ATOM      6  H   UNL     1      -3.328  -3.107   6.402  0.00  0.00    +0.158 HD
ATOM      7  H   UNL     1      -1.954  -1.290   6.914  0.00  0.00    +0.150 HD
BRANCH   2  14
ATOM      8  C   UNL     1      -5.123  -4.794   6.212  0.00  0.00    +0.047 C 
ATOM      9  C   UNL     1      -4.071  -5.318   5.268  0.00  0.00    -0.010 A 
ATOM     10  C   UNL     1      -4.284  -6.489   4.561  0.00  0.00    +0.008 A 
ATOM     11  C   UNL     1      -3.288  -6.934   3.703  0.00  0.00    +0.020 A 
ATOM     12  C   UNL     1      -2.123  -6.202   3.581  0.00  0.00    +0.113 A 
ATOM     13  N   UNL     1      -1.948  -5.090   4.268  0.00  0.00    -0.240 NA
ATOM     14  C   UNL     1      -2.877  -4.629   5.092  0.00  0.00    +0.129 A 
ENDBRANCH   2  14
ENDBRANCH   1   5
BRANCH   1  15
ATOM     15  C   UNL     1       0.024   0.284   7.097  0.00  0.00    +0.140 C 
BRANCH  15  16
ATOM     16  C   UNL     1       0.081  -0.231   8.512  0.00  0.00    +0.124 A 
ATOM     17  C   UNL     1       1.187  -0.322   9.272  0.00  0.00    +0.046 A 
ATOM     18  C   UNL     1       0.785  -0.854  10.519  0.00  0.00    +0.045 A 
ATOM     19  C   UNL     1      -0.543  -1.056  10.446  0.00  0.00    +0.102 A 
ATOM     20  O   UNL     1      -0.965  -0.672   9.230  0.00  0.00    -0.463 OA
ATOM     21  C   UNL     1      -1.411  -1.614  11.544  0.00  0.00    +0.086 C 
ENDBRANCH  15  16
BRANCH  15  22
ATOM     22  N   UNL     1      -1.179   1.108   6.924  0.00  0.00    -0.287 NA
ATOM     23  C   UNL     1      -1.284   1.605   5.544  0.00  0.00    +0.113 C 
ATOM     24  C   UNL     1      -2.579   2.406   5.393  0.00  0.00    +0.175 C 
ATOM     25  O   UNL     1      -2.593   3.466   6.353  0.00  0.00    -0.377 OA
ATOM     26  C   UNL     1      -2.493   3.018   7.707  0.00  0.00    +0.175 C 
ATOM     27  C   UNL     1      -1.197   2.223   7.882  0.00  0.00    +0.113 C 
ENDBRANCH  15  22
ENDBRANCH   1  15
TORSDOF 5
