REMARK  Name = ZINC13570679
REMARK  9 active torsions:
REMARK  status: ('A' for Active; 'I' for Inactive)
REMARK    1  A    between atoms: C_1  and  C_2
REMARK    2  A    between atoms: C_5  and  N_9
REMARK    3  A    between atoms: C_6  and  C_8
REMARK    4  A    between atoms: C_10  and  O_25
REMARK    5  A    between atoms: C_11  and  C_15
REMARK    6  A    between atoms: C_12  and  C_14
REMARK    7  A    between atoms: N_16  and  C_17
REMARK    8  A    between atoms: C_22  and  O_23
REMARK    9  A    between atoms: O_23  and  C_24
REMARK                            x       y       z     vdW  Elec       q    Type
REMARK                         _______ _______ _______ _____ _____    ______ ____
ROOT
ATOM      1  N   UNL     1       0.358  -4.029  -0.239  0.00  0.00    -0.200 N 
ATOM      2  C   UNL     1       0.467  -4.679  -1.418  0.00  0.00    +0.225 A 
ATOM      3  C   UNL     1       0.548  -6.037  -1.131  0.00  0.00    +0.077 A 
ATOM      4  C   UNL     1       0.481  -6.168   0.276  0.00  0.00    +0.073 A 
ATOM      5  N   UNL     1       0.375  -4.975   0.791  0.00  0.00    -0.168 NA
ATOM      6  C   UNL     1       0.531  -7.462   1.047  0.00  0.00    +0.068 C 
ENDROOT
BRANCH   1  11
ATOM      7  C   UNL     1      -0.073   1.591   0.422  0.00  0.00    +0.044 C 
ATOM      8  C   UNL     1       0.042   0.099   0.247  0.00  0.00    -0.050 A 
ATOM      9  C   UNL     1       1.009  -0.425  -0.592  0.00  0.00    +0.005 A 
ATOM     10  C   UNL     1       1.116  -1.792  -0.755  0.00  0.00    +0.028 A 
ATOM     11  C   UNL     1       0.252  -2.641  -0.075  0.00  0.00    +0.072 A 
ATOM     12  C   UNL     1      -0.717  -2.112   0.766  0.00  0.00    -0.025 A 
ATOM     13  C   UNL     1      -0.816  -0.744   0.929  0.00  0.00    +0.008 A 
ATOM     14  C   UNL     1      -1.657  -3.030   1.505  0.00  0.00    +0.046 C 
ENDBRANCH   1  11
BRANCH   3  15
ATOM     15  C   UNL     1       0.677  -7.128  -2.104  0.00  0.00    +0.126 C 
ATOM     16  N   UNL     1       0.727  -6.861  -3.381  0.00  0.00    -0.251 NA
BRANCH  16  17
ATOM     17  C   UNL     1       0.751  -7.882  -4.293  0.00  0.00    +0.105 A 
ATOM     18  C   UNL     1       1.641  -8.945  -4.132  0.00  0.00    +0.031 A 
ATOM     19  C   UNL     1       1.660  -9.971  -5.055  0.00  0.00    +0.002 A 
ATOM     20  C   UNL     1       0.801  -9.950  -6.140  0.00  0.00    +0.004 A 
ATOM     21  C   UNL     1      -0.084  -8.901  -6.309  0.00  0.00    +0.048 A 
ATOM     22  C   UNL     1      -0.120  -7.868  -5.389  0.00  0.00    +0.145 A 
BRANCH  22  23
ATOM     23  O   UNL     1      -0.995  -6.840  -5.552  0.00  0.00    -0.493 OA
ATOM     24  C   UNL     1      -1.853  -6.893  -6.694  0.00  0.00    +0.277 C 
ENDBRANCH  22  23
ENDBRANCH  16  17
ENDBRANCH   3  15
BRANCH   2  25
ATOM     25  O   UNL     1       0.493  -4.114  -2.649  0.00  0.00    -0.492 OA
ATOM     26  H   UNL     1       1.381  -3.887  -2.959  0.00  0.00    +0.294 HD
ENDBRANCH   2  25
TORSDOF 5
