REMARK  Name = ZINC15616471
REMARK  6 active torsions:
REMARK  status: ('A' for Active; 'I' for Inactive)
REMARK    1  A    between atoms: C_3  and  O_26
REMARK    2  A    between atoms: C_6  and  N_7
REMARK    3  A    between atoms: C_8  and  C_10
REMARK    4  A    between atoms: C_10  and  C_11
REMARK    5  A    between atoms: C_11  and  N_12
REMARK    6  A    between atoms: N_15  and  C_16
REMARK                            x       y       z     vdW  Elec       q    Type
REMARK                         _______ _______ _______ _____ _____    ______ ____
ROOT
ATOM      1  N   UNL     1      -4.442  -4.175   1.125  0.00  0.00    -0.299 N 
ATOM      2  C   UNL     1      -4.704  -5.403   1.614  0.00  0.00    +0.300 C 
ATOM      3  O   UNL     1      -3.799  -6.090   2.047  0.00  0.00    -0.253 OA
ATOM      4  N   UNL     1      -5.968  -5.869   1.624  0.00  0.00    -0.294 N 
ATOM      5  H   UNL     1      -5.164  -3.626   0.780  0.00  0.00    +0.150 HD
ATOM      6  H   UNL     1      -6.690  -5.321   1.279  0.00  0.00    +0.151 HD
ENDROOT
BRANCH   4   7
ATOM      7  C   UNL     1      -6.252  -7.205   2.156  0.00  0.00    +0.037 C 
ATOM      8  C   UNL     1      -5.479  -8.250   1.349  0.00  0.00    +0.029 C 
ATOM      9  C   UNL     1      -5.775  -9.644   1.905  0.00  0.00    -0.008 C 
ATOM     10  C   UNL     1      -7.275  -9.927   1.799  0.00  0.00    +0.007 C 
ATOM     11  C   UNL     1      -8.049  -8.881   2.606  0.00  0.00    -0.008 C 
ATOM     12  C   UNL     1      -7.752  -7.487   2.050  0.00  0.00    +0.029 C 
ATOM     13  C   UNL     1      -7.619  -8.948   4.072  0.00  0.00    +0.007 C 
ATOM     14  C   UNL     1      -6.119  -8.666   4.178  0.00  0.00    -0.008 C 
ATOM     15  C   UNL     1      -5.346  -9.711   3.372  0.00  0.00    +0.007 C 
ATOM     16  C   UNL     1      -5.822  -7.271   3.623  0.00  0.00    +0.029 C 
ENDBRANCH   4   7
BRANCH   1  17
ATOM     17  C   UNL     1      -3.068  -3.667   1.115  0.00  0.00    +0.115 C 
BRANCH  17  18
ATOM     18  C   UNL     1      -3.047  -2.261   0.512  0.00  0.00    +0.114 C 
BRANCH  18  20
ATOM     19  N   UNL     1      -1.372  -0.511   0.012  0.00  0.00    -0.312 N 
ATOM     20  C   UNL     1      -1.634  -1.740   0.502  0.00  0.00    +0.215 C 
ATOM     21  O   UNL     1      -0.731  -2.425   0.933  0.00  0.00    -0.276 OA
ATOM     22  H   UNL     1      -2.094   0.037  -0.333  0.00  0.00    +0.149 HD
BRANCH  19  28
ATOM     23  C   UNL     1      -0.019   1.526   0.010  0.00  0.00    +0.025 C 
ATOM     24  C   UNL     1       1.417   2.055  -0.000  0.00  0.00    +0.033 C 
ATOM     25  C   UNL     1       2.133   1.562  -1.259  0.00  0.00    +0.115 C 
ATOM     26  C   UNL     1       2.154   0.032  -1.268  0.00  0.00    +0.033 C 
ATOM     27  C   UNL     1       0.718  -0.497  -1.257  0.00  0.00    +0.025 C 
ATOM     28  C   UNL     1       0.002  -0.004   0.002  0.00  0.00    +0.073 C 
BRANCH  25  29
ATOM     29  O   UNL     1       3.474   2.057  -1.269  0.00  0.00    -0.392 OA
ATOM     30  H   UNL     1       3.988   1.782  -2.041  0.00  0.00    +0.210 HD
ENDBRANCH  25  29
ENDBRANCH  19  28
ENDBRANCH  18  20
ENDBRANCH  17  18
ENDBRANCH   1  17
TORSDOF 6
