REMARK  Name = ZINC66682234
REMARK  14 active torsions:
REMARK  status: ('A' for Active; 'I' for Inactive)
REMARK    1  A    between atoms: C_1  and  C_2
REMARK    2  A    between atoms: C_4  and  N_14
REMARK    3  A    between atoms: C_7  and  C_8
REMARK    4  A    between atoms: N_10  and  C_11
REMARK    5  A    between atoms: C_11  and  C_12
REMARK    6  A    between atoms: C_11  and  C_13
REMARK    7  A    between atoms: N_17  and  C_18
REMARK    8  A    between atoms: C_18  and  C_19
REMARK    9  A    between atoms: C_19  and  N_20
REMARK   10  A    between atoms: C_21  and  O_23
REMARK   11  A    between atoms: O_23  and  C_24
REMARK   12  A    between atoms: C_24  and  C_25
REMARK   13  A    between atoms: C_24  and  C_26
REMARK   14  A    between atoms: C_24  and  C_27
REMARK                            x       y       z     vdW  Elec       q    Type
REMARK                         _______ _______ _______ _____ _____    ______ ____
ROOT
ATOM      1  N   UNL     1       0.211  -2.848  -2.359  0.00  0.00    -0.269 N 
ATOM      2  C   UNL     1       0.451  -4.173  -2.309  0.00  0.00    +0.304 C 
ATOM      3  O   UNL     1       0.675  -4.711  -1.241  0.00  0.00    -0.253 OA
ATOM      4  N   UNL     1       0.443  -4.903  -3.442  0.00  0.00    -0.298 N 
ATOM      5  H   UNL     1       0.107  -2.406  -3.216  0.00  0.00    +0.156 HD
ATOM      6  H   UNL     1       0.264  -4.474  -4.293  0.00  0.00    +0.150 HD
ENDROOT
BRANCH   1  10
ATOM      7  C   UNL     1      -1.133  -2.603   2.357  0.00  0.00    +0.044 C 
ATOM      8  C   UNL     1      -0.536  -1.971   1.126  0.00  0.00    -0.037 A 
ATOM      9  C   UNL     1      -0.438  -2.695  -0.041  0.00  0.00    +0.027 A 
ATOM     10  C   UNL     1       0.113  -2.112  -1.179  0.00  0.00    +0.035 A 
ATOM     11  C   UNL     1       0.566  -0.797  -1.141  0.00  0.00    +0.024 A 
ATOM     12  C   UNL     1       0.470  -0.068   0.023  0.00  0.00    +0.015 A 
ATOM     13  C   UNL     1      -0.087  -0.649   1.166  0.00  0.00    +0.040 A 
BRANCH  13  14
ATOM     14  C   UNL     1      -0.196   0.132   2.414  0.00  0.00    +0.245 C 
ATOM     15  O   UNL     1      -0.785  -0.332   3.371  0.00  0.00    -0.270 OA
ATOM     16  N   UNL     1       0.357   1.358   2.492  0.00  0.00    -0.309 N 
ATOM     17  H   UNL     1       0.827   1.728   1.728  0.00  0.00    +0.149 HD
BRANCH  16  18
ATOM     18  C   UNL     1       0.249   2.133   3.731  0.00  0.00    +0.067 C 
ATOM     19  C   UNL     1       1.372   1.726   4.686  0.00  0.00    +0.027 C 
ATOM     20  C   UNL     1       0.367   3.625   3.411  0.00  0.00    +0.027 C 
ENDBRANCH  16  18
ENDBRANCH  13  14
ENDBRANCH   1  10
BRANCH   4  21
ATOM     21  C   UNL     1       0.704  -6.344  -3.387  0.00  0.00    +0.124 C 
BRANCH  21  22
ATOM     22  C   UNL     1       0.636  -6.928  -4.800  0.00  0.00    +0.126 C 
BRANCH  22  23
ATOM     23  N   UNL     1       0.896  -8.369  -4.745  0.00  0.00    -0.280 N 
ATOM     24  C   UNL     1       0.888  -9.098  -5.878  0.00  0.00    +0.401 C 
ATOM     25  O   UNL     1       0.664  -8.561  -6.945  0.00  0.00    -0.226 OA
ATOM     26  H   UNL     1       1.075  -8.797  -3.893  0.00  0.00    +0.152 HD
BRANCH  24  27
ATOM     27  O   UNL     1       1.128 -10.422  -5.828  0.00  0.00    -0.445 OA
BRANCH  27  28
ATOM     28  C   UNL     1       1.103 -11.133  -7.067  0.00  0.00    +0.107 C 
ATOM     29  C   UNL     1       2.166 -10.559  -8.006  0.00  0.00    +0.055 C 
ATOM     30  C   UNL     1       1.395 -12.613  -6.812  0.00  0.00    +0.055 C 
ATOM     31  C   UNL     1      -0.278 -10.990  -7.711  0.00  0.00    +0.055 C 
ENDBRANCH  27  28
ENDBRANCH  24  27
ENDBRANCH  22  23
ENDBRANCH  21  22
ENDBRANCH   4  21
TORSDOF 8
