REMARK  Name = ZINC64600179
REMARK  7 active torsions:
REMARK  status: ('A' for Active; 'I' for Inactive)
REMARK    1  A    between atoms: C_1  and  C_2
REMARK    2  A    between atoms: C_2  and  C_3
REMARK    3  A    between atoms: C_2  and  C_4
REMARK    4  A    between atoms: C_4  and  C_6
REMARK    5  A    between atoms: C_4  and  N_18
REMARK    6  A    between atoms: N_8  and  C_9
REMARK    7  A    between atoms: C_19  and  O_30
REMARK                            x       y       z     vdW  Elec       q    Type
REMARK                         _______ _______ _______ _____ _____    ______ ____
ROOT
ATOM      1  C   UNL     1      -1.358  -0.676  -0.066  0.00  0.00    +0.169 C 
ENDROOT
BRANCH   1   2
ATOM      2  N   UNL     1      -2.142  -0.597  -1.300  0.00  0.00    -0.245 N 
ATOM      3  C   UNL     1      -2.561  -1.831  -1.966  0.00  0.00    +0.300 C 
ATOM      4  N   UNL     1      -2.605  -1.636  -3.420  0.00  0.00    -0.303 N 
ATOM      5  C   UNL     1      -3.162  -0.466  -3.922  0.00  0.00    +0.042 A 
ATOM      6  C   UNL     1      -3.772  -0.423  -5.164  0.00  0.00    +0.024 A 
ATOM      7  C   UNL     1      -4.302   0.767  -5.626  0.00  0.00    +0.002 A 
ATOM      8  C   UNL     1      -4.228   1.917  -4.855  0.00  0.00    +0.001 A 
ATOM      9  C   UNL     1      -3.629   1.890  -3.613  0.00  0.00    +0.015 A 
ATOM     10  C   UNL     1      -3.094   0.696  -3.133  0.00  0.00    +0.058 A 
ATOM     11  C   UNL     1      -2.470   0.611  -1.800  0.00  0.00    +0.252 C 
ATOM     12  O   UNL     1      -2.250   1.620  -1.159  0.00  0.00    -0.270 OA
ATOM     13  H   UNL     1      -2.252  -2.312  -4.019  0.00  0.00    +0.150 HD
BRANCH   3  14
ATOM     14  O   UNL     1      -3.861  -2.201  -1.502  0.00  0.00    -0.359 OA
ATOM     15  H   UNL     1      -4.205  -3.012  -1.901  0.00  0.00    +0.213 HD
ENDBRANCH   3  14
ENDBRANCH   1   2
BRANCH   1  16
ATOM     16  C   UNL     1      -2.168  -0.129   1.081  0.00  0.00    +0.237 C 
ATOM     17  O   UNL     1      -3.158   0.537   0.860  0.00  0.00    -0.274 OA
ATOM     18  N   UNL     1      -1.794  -0.379   2.351  0.00  0.00    -0.277 N 
ATOM     19  H   UNL     1      -0.962  -0.844   2.528  0.00  0.00    +0.152 HD
BRANCH  18  20
ATOM     20  C   UNL     1      -2.643   0.053   3.463  0.00  0.00    +0.269 C 
ATOM     21  N   UNL     1      -2.470   1.492   3.700  0.00  0.00    -0.348 N 
ATOM     22  C   UNL     1      -2.021   1.637   4.914  0.00  0.00    +0.061 A 
ATOM     23  C   UNL     1      -1.661   2.817   5.711  0.00  0.00    +0.027 A 
ATOM     24  C   UNL     1      -1.212   2.656   6.972  0.00  0.00    +0.002 A 
ATOM     25  C   UNL     1      -1.071   1.391   7.571  0.00  0.00    +0.002 A 
ATOM     26  C   UNL     1      -1.373   0.245   6.928  0.00  0.00    +0.027 A 
ATOM     27  C   UNL     1      -1.872   0.298   5.547  0.00  0.00    +0.061 A 
ATOM     28  N   UNL     1      -2.235  -0.622   4.701  0.00  0.00    -0.348 N 
ATOM     29  H   UNL     1      -2.657   2.204   3.069  0.00  0.00    +0.163 HD
ATOM     30  H   UNL     1      -2.235  -1.579   4.860  0.00  0.00    +0.163 HD
ENDBRANCH  18  20
ENDBRANCH   1  16
BRANCH   1  32
ATOM     31  C   UNL     1       0.801  -0.037   1.018  0.00  0.00    +0.009 C 
ATOM     32  C   UNL     1      -0.076   0.145  -0.223  0.00  0.00    +0.012 C 
ATOM     33  C   UNL     1       0.686  -0.331  -1.461  0.00  0.00    +0.009 C 
ENDBRANCH   1  32
TORSDOF 5
