REMARK  Name = ZINC39143302
REMARK  6 active torsions:
REMARK  status: ('A' for Active; 'I' for Inactive)
REMARK    1  A    between atoms: C_4  and  C_7
REMARK    2  A    between atoms: C_9  and  C_24
REMARK    3  A    between atoms: N_12  and  C_16
REMARK    4  A    between atoms: C_13  and  N_15
REMARK    5  A    between atoms: C_24  and  S_25
REMARK    6  A    between atoms: S_25  and  C_26
REMARK                            x       y       z     vdW  Elec       q    Type
REMARK                         _______ _______ _______ _____ _____    ______ ____
ROOT
ATOM      1  C   UNL     1       3.710  -0.714  -0.042  0.00  0.00    +0.042 C 
ATOM      2  C   UNL     1       3.737  -1.796  -1.156  0.00  0.00    +0.090 C 
ATOM      3  N   UNL     1       4.688  -2.788  -0.592  0.00  0.00    -0.237 NA
ATOM      4  N   UNL     1       4.447  -2.857   0.755  0.00  0.00    -0.278 N 
ATOM      5  C   UNL     1       3.875  -1.585   1.227  0.00  0.00    +0.040 C 
ATOM      6  H   UNL     1       4.569  -3.690  -1.028  0.00  0.00    +0.145 HD
ENDROOT
BRANCH   4   7
ATOM      7  C   UNL     1       4.705  -3.971   1.563  0.00  0.00    +0.078 A 
ATOM      8  C   UNL     1       5.497  -3.840   2.696  0.00  0.00    +0.030 A 
ATOM      9  C   UNL     1       5.751  -4.940   3.491  0.00  0.00    +0.040 A 
ATOM     10  C   UNL     1       5.218  -6.174   3.160  0.00  0.00    +0.126 A 
ATOM     11  C   UNL     1       4.428  -6.309   2.031  0.00  0.00    +0.078 A 
ATOM     12  C   UNL     1       4.165  -5.209   1.235  0.00  0.00    +0.148 A 
ATOM     13  F   UNL     1       3.389  -5.339   0.137  0.00  0.00    -0.203 F 
ATOM     14  F   UNL     1       5.468  -7.249   3.940  0.00  0.00    -0.205 F 
ENDBRANCH   4   7
BRANCH   1  18
ATOM     15  C   UNL     1      -0.022   1.363  -0.008  0.00  0.00    +0.000 A 
ATOM     16  C   UNL     1       1.159   2.062   0.160  0.00  0.00    +0.000 A 
ATOM     17  C   UNL     1       2.367   1.390   0.149  0.00  0.00    +0.004 A 
ATOM     18  C   UNL     1       2.393   0.019  -0.029  0.00  0.00    -0.043 A 
ATOM     19  C   UNL     1       1.212  -0.679  -0.196  0.00  0.00    +0.004 A 
ATOM     20  C   UNL     1       0.004  -0.007  -0.187  0.00  0.00    +0.000 A 
ENDBRANCH   1  18
BRANCH   5  21
ATOM     21  N   UNL     1       2.569  -1.817   1.858  0.00  0.00    +0.392 N 
ATOM     22  H   UNL     1       1.988  -2.360   1.237  0.00  0.00    -0.087 HD
ATOM     23  H   UNL     1       2.698  -2.319   2.723  0.00  0.00    -0.087 HD
ATOM     24  H   UNL     1       2.124  -0.931   2.046  0.00  0.00    -0.087 HD
ENDBRANCH   5  21
BRANCH   2  25
ATOM     25  C   UNL     1       4.264  -1.216  -2.470  0.00  0.00    +0.098 C 
BRANCH  25  26
ATOM     26  S   UNL     1       4.140  -2.468  -3.776  0.00  0.00    -0.086 S 
BRANCH  26  27
ATOM     27  C   UNL     1       4.776  -1.657  -5.205  0.00  0.00    +0.167 A 
ATOM     28  N   UNL     1       5.221  -0.425  -5.237  0.00  0.00    -0.222 NA
ATOM     29  C   UNL     1       5.637  -0.122  -6.495  0.00  0.00    +0.090 A 
ATOM     30  C   UNL     1       6.185   1.025  -7.073  0.00  0.00    +0.030 A 
ATOM     31  C   UNL     1       6.513   1.026  -8.411  0.00  0.00    +0.002 A 
ATOM     32  C   UNL     1       6.303  -0.103  -9.188  0.00  0.00    +0.002 A 
ATOM     33  C   UNL     1       5.761  -1.244  -8.631  0.00  0.00    +0.028 A 
ATOM     34  C   UNL     1       5.426  -1.263  -7.287  0.00  0.00    +0.067 A 
ATOM     35  N   UNL     1       4.886  -2.222  -6.445  0.00  0.00    -0.333 N 
ATOM     36  H   UNL     1       4.630  -3.125  -6.691  0.00  0.00    +0.168 HD
ENDBRANCH  26  27
ENDBRANCH  25  26
ENDBRANCH   2  25
TORSDOF 6
