REMARK  Name = ZINC12473649
REMARK  10 active torsions:
REMARK  status: ('A' for Active; 'I' for Inactive)
REMARK    1  A    between atoms: C_1  and  C_2
REMARK    2  A    between atoms: C_5  and  N_9
REMARK    3  A    between atoms: C_6  and  C_8
REMARK    4  A    between atoms: N_9  and  C_10
REMARK    5  A    between atoms: C_10  and  C_12
REMARK    6  A    between atoms: C_10  and  C_19
REMARK    7  A    between atoms: N_21  and  C_22
REMARK    8  A    between atoms: C_27  and  C_29
REMARK    9  A    between atoms: C_30  and  N_37
REMARK   10  A    between atoms: C_31  and  C_34
REMARK                            x       y       z     vdW  Elec       q    Type
REMARK                         _______ _______ _______ _____ _____    ______ ____
ROOT
ATOM      1  N   UNL     1       0.393  -2.465   0.051  0.00  0.00    -0.251 N 
ATOM      2  C   UNL     1       0.451  -3.183  -1.088  0.00  0.00    +0.262 C 
ATOM      3  O   UNL     1       1.164  -4.167  -1.151  0.00  0.00    -0.269 OA
ENDROOT
BRANCH   1   8
ATOM      4  C   UNL     1      -2.929   2.124   0.341  0.00  0.00    +0.044 C 
ATOM      5  C   UNL     1      -2.047   0.905   0.264  0.00  0.00    -0.050 A 
ATOM      6  C   UNL     1      -0.760   1.015  -0.230  0.00  0.00    +0.005 A 
ATOM      7  C   UNL     1       0.051  -0.100  -0.302  0.00  0.00    +0.024 A 
ATOM      8  C   UNL     1      -0.426  -1.333   0.123  0.00  0.00    +0.041 A 
ATOM      9  C   UNL     1      -1.719  -1.440   0.619  0.00  0.00    -0.029 A 
ATOM     10  C   UNL     1      -2.526  -0.321   0.688  0.00  0.00    +0.008 A 
ATOM     11  C   UNL     1      -2.241  -2.776   1.081  0.00  0.00    +0.045 C 
ENDBRANCH   1   8
BRANCH   2  12
ATOM     12  C   UNL     1      -0.343  -2.779  -2.250  0.00  0.00    +0.116 A 
ATOM     13  C   UNL     1      -0.430  -3.371  -3.511  0.00  0.00    +0.076 A 
ATOM     14  C   UNL     1      -1.301  -2.689  -4.362  0.00  0.00    +0.155 A 
ATOM     15  N   UNL     1      -1.921  -1.617  -3.923  0.00  0.00    -0.203 NA
ATOM     16  S   UNL     1      -1.461  -1.404  -2.430  0.00  0.00    +0.019 S 
BRANCH  14  17
ATOM     17  C   UNL     1      -1.523  -3.167  -5.739  0.00  0.00    +0.262 C 
ATOM     18  O   UNL     1      -0.946  -4.160  -6.139  0.00  0.00    -0.269 OA
ATOM     19  N   UNL     1      -2.366  -2.503  -6.555  0.00  0.00    -0.324 N 
ATOM     20  H   UNL     1      -2.826  -1.711  -6.236  0.00  0.00    +0.145 HD
ATOM     21  H   UNL     1      -2.512  -2.817  -7.461  0.00  0.00    +0.145 HD
ENDBRANCH  14  17
BRANCH  13  22
ATOM     22  N   UNL     1       0.271  -4.512  -3.878  0.00  0.00    -0.355 N 
ATOM     23  H   UNL     1       0.862  -4.943  -3.242  0.00  0.00    +0.142 HD
ATOM     24  H   UNL     1       0.169  -4.878  -4.771  0.00  0.00    +0.142 HD
ENDBRANCH  13  22
ENDBRANCH   2  12
BRANCH   1  25
ATOM     25  C   UNL     1       1.187  -2.869   1.213  0.00  0.00    +0.197 C 
BRANCH  25  26
ATOM     26  C   UNL     1       2.653  -2.767   0.880  0.00  0.00    -0.018 A 
ATOM     27  C   UNL     1       3.143  -1.633   0.260  0.00  0.00    +0.009 A 
ATOM     28  C   UNL     1       4.489  -1.536  -0.041  0.00  0.00    +0.038 A 
ATOM     29  C   UNL     1       5.343  -2.581   0.268  0.00  0.00    +0.123 A 
ATOM     30  C   UNL     1       4.850  -3.719   0.883  0.00  0.00    +0.038 A 
ATOM     31  C   UNL     1       3.506  -3.811   1.189  0.00  0.00    +0.009 A 
ATOM     32  F   UNL     1       6.658  -2.490  -0.032  0.00  0.00    -0.205 F 
ENDBRANCH  25  26
BRANCH  25  33
ATOM     33  C   UNL     1       0.872  -1.964   2.376  0.00  0.00    +0.239 C 
ATOM     34  O   UNL     1       0.795  -0.765   2.208  0.00  0.00    -0.273 OA
ATOM     35  N   UNL     1       0.677  -2.486   3.603  0.00  0.00    -0.311 N 
ATOM     36  H   UNL     1       0.738  -3.444   3.738  0.00  0.00    +0.149 HD
BRANCH  35  37
ATOM     37  C   UNL     1       0.371  -1.606   4.734  0.00  0.00    +0.073 C 
ATOM     38  C   UNL     1       1.678  -1.114   5.389  0.00  0.00    +0.022 C 
ATOM     39  C   UNL     1       1.354  -1.082   6.904  0.00  0.00    +0.002 C 
ATOM     40  C   UNL     1       0.469  -2.340   7.091  0.00  0.00    +0.002 C 
ATOM     41  C   UNL     1      -0.398  -2.385   5.815  0.00  0.00    +0.022 C 
ENDBRANCH  35  37
ENDBRANCH  25  33
ENDBRANCH   1  25
TORSDOF 8
