REMARK  Name = ZINC39658008
REMARK  5 active torsions:
REMARK  status: ('A' for Active; 'I' for Inactive)
REMARK    1  A    between atoms: C_1  and  C_2
REMARK    2  A    between atoms: C_2  and  C_8
REMARK    3  A    between atoms: C_12  and  C_21
REMARK    4  A    between atoms: N_23  and  C_24
REMARK    5  A    between atoms: C_27  and  C_30
REMARK                            x       y       z     vdW  Elec       q    Type
REMARK                         _______ _______ _______ _____ _____    ______ ____
ROOT
ATOM      1  C   UNL     1       0.144  -0.319  -1.014  0.00  0.00    +0.222 C 
ATOM      2  O   UNL     1       1.046  -1.105  -0.821  0.00  0.00    -0.275 OA
ATOM      3  N   UNL     1      -0.202   0.013  -2.274  0.00  0.00    -0.300 N 
ATOM      4  C   UNL     1      -1.191   1.028  -2.707  0.00  0.00    +0.121 C 
ATOM      5  C   UNL     1      -0.547   1.700  -3.941  0.00  0.00    +0.100 C 
ATOM      6  C   UNL     1       0.443   0.655  -4.484  0.00  0.00    -0.004 C 
ATOM      7  C   UNL     1       0.326  -0.550  -3.540  0.00  0.00    +0.115 C 
ATOM      8  C   UNL     1       1.865   1.208  -4.450  0.00  0.00    -0.010 C 
ATOM      9  C   UNL     1       2.823   0.173  -5.048  0.00  0.00    -0.082 C 
ATOM     10  N   UNL     1       2.425  -0.125  -6.429  0.00  0.00    +0.379 N 
ATOM     11  C   UNL     1       1.093  -0.742  -6.444  0.00  0.00    -0.082 C 
ATOM     12  C   UNL     1       0.061   0.254  -5.905  0.00  0.00    -0.010 C 
ATOM     13  H   UNL     1       2.404   0.730  -6.964  0.00  0.00    -0.086 HD
ATOM     14  H   UNL     1       3.092  -0.760  -6.840  0.00  0.00    -0.086 HD
ENDROOT
BRANCH   1  16
ATOM     15  C   UNL     1      -0.287   1.785   0.226  0.00  0.00    +0.021 C 
ATOM     16  C   UNL     1      -0.592   0.287   0.153  0.00  0.00    +0.044 C 
ATOM     17  C   UNL     1      -2.097   0.081  -0.029  0.00  0.00    +0.016 C 
ATOM     18  C   UNL     1      -2.401  -1.416  -0.102  0.00  0.00    +0.001 C 
ATOM     19  C   UNL     1      -1.947  -2.092   1.193  0.00  0.00    +0.000 C 
ATOM     20  C   UNL     1      -0.442  -1.887   1.376  0.00  0.00    +0.001 C 
ATOM     21  C   UNL     1      -0.137  -0.389   1.448  0.00  0.00    +0.016 C 
ENDBRANCH   1  16
BRANCH   5  22
ATOM     22  C   UNL     1       0.181   2.955  -3.535  0.00  0.00    +0.218 C 
ATOM     23  O   UNL     1       0.733   3.014  -2.457  0.00  0.00    -0.275 OA
ATOM     24  N   UNL     1       0.219   4.012  -4.370  0.00  0.00    -0.312 N 
ATOM     25  H   UNL     1      -0.222   3.965  -5.233  0.00  0.00    +0.149 HD
BRANCH  24  26
ATOM     26  C   UNL     1       0.927   5.232  -3.976  0.00  0.00    +0.073 C 
ATOM     27  C   UNL     1      -0.003   6.114  -3.139  0.00  0.00    +0.023 C 
ATOM     28  C   UNL     1       0.737   7.388  -2.727  0.00  0.00    +0.016 C 
ATOM     29  C   UNL     1       1.173   8.152  -3.978  0.00  0.00    +0.102 C 
ATOM     30  C   UNL     1       2.103   7.271  -4.815  0.00  0.00    +0.016 C 
ATOM     31  C   UNL     1       1.364   5.996  -5.227  0.00  0.00    +0.023 C 
BRANCH  29  32
ATOM     32  C   UNL     1       1.902   9.407  -3.572  0.00  0.00    +0.359 C 
ATOM     33  O   UNL     1       2.774   9.865  -4.291  0.00  0.00    -0.246 OA
ATOM     34  O   UNL     1       1.619   9.964  -2.526  0.00  0.00    -0.246 OA
ENDBRANCH  29  32
ENDBRANCH  24  26
ENDBRANCH   5  22
TORSDOF 4
