REMARK  Name = ZINC39895356
REMARK  8 active torsions:
REMARK  status: ('A' for Active; 'I' for Inactive)
REMARK    1  A    between atoms: C_1  and  C_2
REMARK    2  A    between atoms: C_7  and  C_10
REMARK    3  A    between atoms: C_11  and  C_13
REMARK    4  A    between atoms: C_16  and  C_23
REMARK    5  A    between atoms: C_17  and  C_21
REMARK    6  A    between atoms: C_18  and  N_20
REMARK    7  A    between atoms: C_30  and  N_31
REMARK    8  A    between atoms: N_31  and  C_32
REMARK                            x       y       z     vdW  Elec       q    Type
REMARK                         _______ _______ _______ _____ _____    ______ ____
ROOT
ATOM      1  C   UNL     1       4.197   0.946  -2.211  0.00  0.00    +0.091 A 
ATOM      2  C   UNL     1       5.236   0.134  -2.844  0.00  0.00    +0.095 A 
ATOM      3  C   UNL     1       6.526   0.696  -2.819  0.00  0.00    +0.049 A 
ATOM      4  C   UNL     1       7.617   0.049  -3.377  0.00  0.00    +0.019 A 
ATOM      5  C   UNL     1       7.401  -1.210  -3.984  0.00  0.00    +0.100 A 
ATOM      6  C   UNL     1       6.092  -1.726  -3.981  0.00  0.00    +0.135 A 
ATOM      7  N   UNL     1       5.092  -1.071  -3.437  0.00  0.00    -0.230 NA
ATOM      8  S   UNL     1       6.321   2.243  -1.977  0.00  0.00    -0.071 S 
ATOM      9  C   UNL     1       4.568   2.168  -1.662  0.00  0.00    +0.085 A 
ENDROOT
BRANCH   1  18
ATOM     10  C   UNL     1       0.288   1.183   0.428  0.00  0.00    +0.039 C 
ATOM     11  C   UNL     1       0.417  -0.339   0.328  0.00  0.00    +0.133 C 
ATOM     12  C   UNL     1       0.985  -0.715  -1.046  0.00  0.00    +0.139 C 
ATOM     13  N   UNL     1       2.378  -0.244  -1.117  0.00  0.00    -0.292 N 
ATOM     14  C   UNL     1       3.285  -0.598  -0.014  0.00  0.00    +0.139 C 
ATOM     15  C   UNL     1       2.605  -0.228   1.309  0.00  0.00    +0.133 C 
ATOM     16  O   UNL     1       1.300  -0.812   1.348  0.00  0.00    -0.371 OA
ATOM     17  C   UNL     1       3.438  -0.758   2.478  0.00  0.00    +0.039 C 
ATOM     18  C   UNL     1       2.809   0.490  -2.162  0.00  0.00    +0.251 C 
ATOM     19  O   UNL     1       2.043   0.772  -3.065  0.00  0.00    -0.270 OA
ENDBRANCH   1  18
BRANCH   4  20
ATOM     20  C   UNL     1       8.967   0.658  -3.341  0.00  0.00    -0.015 A 
ATOM     21  C   UNL     1       9.218   1.846  -4.027  0.00  0.00    +0.008 A 
ATOM     22  C   UNL     1      10.477   2.408  -3.989  0.00  0.00    +0.001 A 
ATOM     23  C   UNL     1      11.490   1.796  -3.273  0.00  0.00    +0.000 A 
ATOM     24  C   UNL     1      11.247   0.617  -2.591  0.00  0.00    +0.001 A 
ATOM     25  C   UNL     1       9.990   0.048  -2.615  0.00  0.00    +0.008 A 
ENDBRANCH   4  20
BRANCH   6  26
ATOM     26  N   UNL     1       5.851  -2.958  -4.569  0.00  0.00    -0.342 N 
ATOM     27  H   UNL     1       6.580  -3.452  -4.975  0.00  0.00    +0.144 HD
ATOM     28  H   UNL     1       4.953  -3.325  -4.575  0.00  0.00    +0.144 HD
ENDBRANCH   6  26
BRANCH   5  29
ATOM     29  C   UNL     1       8.480  -1.937  -4.582  0.00  0.00    +0.103 C 
ATOM     30  N   UNL     1       9.336  -2.514  -5.056  0.00  0.00    -0.191 NA
ENDBRANCH   5  29
BRANCH   9  31
ATOM     31  N   UNL     1       3.775   3.095  -1.027  0.00  0.00    -0.308 N 
ATOM     32  H   UNL     1       2.813   2.971  -0.998  0.00  0.00    +0.153 HD
BRANCH  31  33
ATOM     33  C   UNL     1       4.354   4.215  -0.424  0.00  0.00    +0.032 A 
ATOM     34  C   UNL     1       3.675   5.427  -0.411  0.00  0.00    +0.023 A 
ATOM     35  C   UNL     1       4.250   6.532   0.185  0.00  0.00    +0.002 A 
ATOM     36  C   UNL     1       5.500   6.432   0.770  0.00  0.00    +0.000 A 
ATOM     37  C   UNL     1       6.178   5.227   0.759  0.00  0.00    +0.002 A 
ATOM     38  C   UNL     1       5.606   4.117   0.169  0.00  0.00    +0.023 A 
ENDBRANCH  31  33
ENDBRANCH   9  31
TORSDOF 6
