REMARK  Name = ZINC14477604
REMARK  5 active torsions:
REMARK  status: ('A' for Active; 'I' for Inactive)
REMARK    1  A    between atoms: C_2  and  C_3
REMARK    2  A    between atoms: C_3  and  N_4
REMARK    3  A    between atoms: N_4  and  S_5
REMARK    4  A    between atoms: S_5  and  C_8
REMARK    5  A    between atoms: C_21  and  C_24
REMARK                            x       y       z     vdW  Elec       q    Type
REMARK                         _______ _______ _______ _____ _____    ______ ____
ROOT
ATOM      1  C   UNL     1       4.825  -0.055   1.941  0.00  0.00    +0.106 A 
ATOM      2  C   UNL     1       5.096  -0.077   0.585  0.00  0.00    +0.030 A 
ATOM      3  C   UNL     1       4.667   0.964  -0.215  0.00  0.00    +0.025 A 
ATOM      4  C   UNL     1       3.966   2.026   0.342  0.00  0.00    +0.031 A 
ATOM      5  C   UNL     1       3.694   2.053   1.702  0.00  0.00    -0.018 A 
ATOM      6  C   UNL     1       4.130   1.000   2.495  0.00  0.00    +0.034 A 
ATOM      7  C   UNL     1       2.948   3.177   2.347  0.00  0.00    +0.049 C 
ATOM      8  C   UNL     1       1.532   2.776   2.688  0.00  0.00    -0.023 C 
ATOM      9  C   UNL     1       0.715   3.790   2.506  0.00  0.00    -0.030 C 
ATOM     10  C   UNL     1       1.479   5.008   2.023  0.00  0.00    +0.033 C 
ATOM     11  C   UNL     1       2.781   4.401   1.421  0.00  0.00    +0.029 C 
ATOM     12  C   UNL     1       2.452   3.936  -0.000  0.00  0.00    +0.106 C 
ATOM     13  N   UNL     1       3.535   3.071  -0.482  0.00  0.00    -0.336 N 
ATOM     14  H   UNL     1       3.942   3.221  -1.349  0.00  0.00    +0.147 HD
ENDROOT
BRANCH  12  15
ATOM     15  C   UNL     1       1.157   3.165   0.008  0.00  0.00    -0.009 A 
ATOM     16  C   UNL     1       1.158   1.814   0.299  0.00  0.00    +0.008 A 
ATOM     17  C   UNL     1      -0.029   1.107   0.307  0.00  0.00    +0.020 A 
ATOM     18  C   UNL     1      -1.220   1.750   0.018  0.00  0.00    +0.042 A 
ATOM     19  C   UNL     1      -1.222   3.103  -0.269  0.00  0.00    +0.040 A 
ATOM     20  C   UNL     1      -0.033   3.811  -0.277  0.00  0.00    +0.047 A 
ATOM     21 CL   UNL     1      -0.035   5.508  -0.642  0.00  0.00    -0.083 Cl
ATOM     22 CL   UNL     1      -2.710   0.861   0.020  0.00  0.00    -0.083 Cl
ENDBRANCH  12  15
BRANCH   1  23
ATOM     23  S   UNL     1       5.370  -1.381   2.965  0.00  0.00    +0.059 S 
ATOM     24  O   UNL     1       6.472  -1.982   2.300  0.00  0.00    -0.153 OA
ATOM     25  O   UNL     1       5.468  -0.862   4.284  0.00  0.00    -0.153 OA
BRANCH  23  26
ATOM     26  N   UNL     1       4.159  -2.510   2.990  0.00  0.00    -0.186 NA
ATOM     27  H   UNL     1       3.692  -2.703   3.818  0.00  0.00    +0.148 HD
BRANCH  26  28
ATOM     28  C   UNL     1       3.792  -3.218   1.760  0.00  0.00    +0.132 C 
BRANCH  28  30
ATOM     29  C   UNL     1       1.773  -4.575   1.554  0.00  0.00    +0.005 C 
ATOM     30  C   UNL     1       2.951  -4.420   2.105  0.00  0.00    -0.018 C 
ENDBRANCH  28  30
ENDBRANCH  26  28
ENDBRANCH  23  26
ENDBRANCH   1  23
TORSDOF 5
