REMARK  Name = ZINC13805602
REMARK  7 active torsions:
REMARK  status: ('A' for Active; 'I' for Inactive)
REMARK    1  A    between atoms: C_1  and  C_2
REMARK    2  A    between atoms: C_5  and  C_27
REMARK    3  A    between atoms: C_6  and  N_8
REMARK    4  A    between atoms: C_9  and  C_11
REMARK    5  A    between atoms: C_11  and  S_12
REMARK    6  A    between atoms: S_12  and  C_13
REMARK    7  A    between atoms: C_20  and  C_22
REMARK                            x       y       z     vdW  Elec       q    Type
REMARK                         _______ _______ _______ _____ _____    ______ ____
ROOT
ATOM      1  C   UNL     1       4.452   7.309   0.264  0.00  0.00    +0.120 A 
ATOM      2  C   UNL     1       3.068   7.125   0.278  0.00  0.00    +0.040 A 
ATOM      3  C   UNL     1       2.583   5.835   0.159  0.00  0.00    +0.048 A 
ATOM      4  C   UNL     1       3.508   4.796   0.042  0.00  0.00    +0.148 A 
ATOM      5  N   UNL     1       4.803   5.065   0.039  0.00  0.00    -0.133 NA
ATOM      6  N   UNL     1       5.254   6.262   0.144  0.00  0.00    -0.141 NA
ATOM      7  N   UNL     1       3.067   3.477  -0.076  0.00  0.00    -0.262 N 
ATOM      8  C   UNL     1       3.959   2.467  -0.085  0.00  0.00    +0.285 C 
ATOM      9  O   UNL     1       5.152   2.708  -0.083  0.00  0.00    -0.266 OA
ATOM     10  H   UNL     1       2.119   3.288  -0.151  0.00  0.00    +0.157 HD
ENDROOT
BRANCH   8  11
ATOM     11  C   UNL     1       3.493   1.077  -0.097  0.00  0.00    +0.189 A 
ATOM     12  C   UNL     1       4.285  -0.035  -0.107  0.00  0.00    +0.054 A 
ATOM     13  C   UNL     1       3.424  -1.144  -0.116  0.00  0.00    +0.042 A 
ATOM     14  C   UNL     1       2.160  -0.666  -0.111  0.00  0.00    +0.196 A 
ATOM     15  O   UNL     1       2.206   0.673  -0.099  0.00  0.00    -0.458 OA
ENDBRANCH   8  11
BRANCH   1  16
ATOM     16  S   UNL     1       5.129   8.929   0.406  0.00  0.00    -0.095 S 
BRANCH  16  17
ATOM     17  C   UNL     1       6.923   8.662   0.340  0.00  0.00    +0.172 C 
BRANCH  17  19
ATOM     18  N   UNL     1       8.979  10.034   0.427  0.00  0.00    -0.285 N 
ATOM     19  C   UNL     1       7.632   9.987   0.453  0.00  0.00    +0.227 C 
ATOM     20  O   UNL     1       6.991  11.010   0.566  0.00  0.00    -0.275 OA
ATOM     21  H   UNL     1       9.490   9.225   0.271  0.00  0.00    +0.155 HD
BRANCH  18  27
ATOM     22  C   UNL     1       9.125  14.914  -0.152  0.00  0.00    +0.044 C 
ATOM     23  C   UNL     1       9.733  13.632   0.356  0.00  0.00    -0.049 A 
ATOM     24  C   UNL     1      10.947  13.658   1.018  0.00  0.00    +0.004 A 
ATOM     25  C   UNL     1      11.508  12.484   1.485  0.00  0.00    +0.005 A 
ATOM     26  C   UNL     1      10.858  11.281   1.290  0.00  0.00    -0.029 A 
ATOM     27  C   UNL     1       9.640  11.251   0.626  0.00  0.00    +0.037 A 
ATOM     28  C   UNL     1       9.081  12.432   0.153  0.00  0.00    +0.027 A 
ATOM     29  C   UNL     1      11.471  10.002   1.799  0.00  0.00    +0.045 C 
ENDBRANCH  18  27
ENDBRANCH  17  19
ENDBRANCH  16  17
ENDBRANCH   1  16
TORSDOF 5
