REMARK  Name = ZINC16603596
REMARK  8 active torsions:
REMARK  status: ('A' for Active; 'I' for Inactive)
REMARK    1  A    between atoms: C_1  and  C_2
REMARK    2  A    between atoms: C_2  and  C_3
REMARK    3  A    between atoms: C_3  and  C_5
REMARK    4  A    between atoms: C_3  and  O_14
REMARK    5  A    between atoms: C_10  and  C_13
REMARK    6  A    between atoms: O_14  and  C_15
REMARK    7  A    between atoms: C_17  and  C_23
REMARK    8  A    between atoms: C_19  and  C_21
REMARK                            x       y       z     vdW  Elec       q    Type
REMARK                         _______ _______ _______ _____ _____    ______ ____
ROOT
ATOM      1  C   UNL     1       1.609   5.446  -0.032  0.00  0.00    +0.259 C 
ENDROOT
BRANCH   1   2
ATOM      2  C   UNL     1       1.021   4.074  -0.245  0.00  0.00    +0.259 C 
ATOM      3  O   UNL     1      -0.180   3.937  -0.335  0.00  0.00    -0.271 OA
ATOM      4  N   UNL     1       1.831   3.001  -0.335  0.00  0.00    -0.265 N 
ATOM      5  C   UNL     1       1.286   1.731  -0.531  0.00  0.00    +0.168 A 
ATOM      6  C   UNL     1      -0.090   1.404  -0.656  0.00  0.00    +0.091 A 
ATOM      7  C   UNL     1      -0.091   0.063  -0.830  0.00  0.00    +0.136 A 
ATOM      8  O   UNL     1       1.191  -0.329  -0.804  0.00  0.00    -0.358 OA
ATOM      9  N   UNL     1       1.941   0.605  -0.638  0.00  0.00    -0.063 NA
ATOM     10  C   UNL     1      -1.299  -0.820  -1.018  0.00  0.00    +0.089 C 
ATOM     11  H   UNL     1       2.792   3.111  -0.263  0.00  0.00    +0.156 HD
ENDBRANCH   1   2
BRANCH   1  13
ATOM     12  C   UNL     1       3.096   6.817   1.434  0.00  0.00    +0.008 C 
ATOM     13  C   UNL     1       2.397   5.465   1.280  0.00  0.00    +0.051 C 
ENDBRANCH   1  13
BRANCH   1  14
ATOM     14  O   UNL     1       0.557   6.411   0.029  0.00  0.00    -0.480 OA
BRANCH  14  15
ATOM     15  C   UNL     1       0.820   7.644  -0.479  0.00  0.00    +0.122 A 
ATOM     16  C   UNL     1      -0.139   8.644  -0.407  0.00  0.00    +0.050 A 
ATOM     17  C   UNL     1       0.132   9.897  -0.920  0.00  0.00    -0.028 A 
ATOM     18  C   UNL     1       1.355  10.153  -1.514  0.00  0.00    +0.047 A 
ATOM     19  C   UNL     1       2.311   9.156  -1.591  0.00  0.00    -0.028 A 
ATOM     20  C   UNL     1       2.046   7.902  -1.075  0.00  0.00    +0.050 A 
ATOM     21  C   UNL     1       3.642   9.437  -2.240  0.00  0.00    +0.045 C 
ATOM     22 CL   UNL     1       1.691  11.728  -2.163  0.00  0.00    -0.083 Cl
ATOM     23  C   UNL     1      -0.907  10.985  -0.838  0.00  0.00    +0.045 C 
ENDBRANCH  14  15
ENDBRANCH   1  14
TORSDOF 4
