REMARK  Name = ZINC40795995
REMARK  7 active torsions:
REMARK  status: ('A' for Active; 'I' for Inactive)
REMARK    1  A    between atoms: C_1  and  C_2
REMARK    2  A    between atoms: C_2  and  C_3
REMARK    3  A    between atoms: C_2  and  O_4
REMARK    4  A    between atoms: O_4  and  C_5
REMARK    5  A    between atoms: C_6  and  N_23
REMARK    6  A    between atoms: C_7  and  N_11
REMARK    7  A    between atoms: C_15  and  C_18
REMARK                            x       y       z     vdW  Elec       q    Type
REMARK                         _______ _______ _______ _____ _____    ______ ____
ROOT
ATOM      1  C   UNL     1      -1.928  -0.705  -1.192  0.00  0.00    +0.241 A 
ATOM      2  C   UNL     1      -3.236  -1.181  -1.267  0.00  0.00    +0.128 A 
ATOM      3  C   UNL     1      -3.796  -1.376  -2.532  0.00  0.00    +0.152 A 
ATOM      4  N   UNL     1      -3.064  -1.102  -3.609  0.00  0.00    -0.218 NA
ATOM      5  C   UNL     1      -1.831  -0.654  -3.493  0.00  0.00    +0.227 A 
ATOM      6  N   UNL     1      -1.269  -0.452  -2.318  0.00  0.00    -0.200 NA
ENDROOT
BRANCH   3   7
ATOM      7  N   UNL     1      -5.097  -1.849  -2.664  0.00  0.00    -0.282 N 
ATOM      8  C   UNL     1      -5.644  -2.039  -3.930  0.00  0.00    +0.142 A 
ATOM      9  C   UNL     1      -6.949  -2.508  -4.055  0.00  0.00    +0.081 A 
ATOM     10  C   UNL     1      -7.479  -2.692  -5.319  0.00  0.00    +0.037 A 
ATOM     11  C   UNL     1      -6.684  -2.400  -6.420  0.00  0.00    +0.074 A 
ATOM     12  C   UNL     1      -5.399  -1.939  -6.223  0.00  0.00    +0.125 A 
ATOM     13  N   UNL     1      -4.920  -1.768  -5.005  0.00  0.00    -0.238 NA
ATOM     14 CL   UNL     1      -7.897  -2.857  -2.643  0.00  0.00    -0.080 Cl
ATOM     15  H   UNL     1      -5.624  -2.047  -1.874  0.00  0.00    +0.155 HD
BRANCH  11  16
ATOM     16  C   UNL     1      -7.220  -2.586  -7.816  0.00  0.00    +0.419 C 
ATOM     17  F   UNL     1      -7.832  -1.402  -8.242  0.00  0.00    -0.166 F 
ATOM     18  F   UNL     1      -6.167  -2.904  -8.681  0.00  0.00    -0.166 F 
ATOM     19  F   UNL     1      -8.158  -3.624  -7.822  0.00  0.00    -0.166 F 
ENDBRANCH  11  16
ENDBRANCH   3   7
BRANCH   2  20
ATOM     20  N   UNL     1      -3.971  -1.457  -0.104  0.00  0.00    -0.351 N 
ATOM     21  H   UNL     1      -3.570  -1.317   0.768  0.00  0.00    +0.143 HD
ATOM     22  H   UNL     1      -4.880  -1.788  -0.172  0.00  0.00    +0.143 HD
ENDBRANCH   2  20
BRANCH   1  23
ATOM     23  O   UNL     1      -1.339  -0.499   0.012  0.00  0.00    -0.472 OA
BRANCH  23  25
ATOM     24  C   UNL     1      -0.019   1.526   0.010  0.00  0.00    +0.051 C 
ATOM     25  C   UNL     1       0.002  -0.004   0.002  0.00  0.00    +0.169 C 
ATOM     26  C   UNL     1       0.742  -0.511   1.242  0.00  0.00    +0.051 C 
ENDBRANCH  23  25
ENDBRANCH   1  23
TORSDOF 5
