REMARK  Name = ZINC03850843
REMARK  6 active torsions:
REMARK  status: ('A' for Active; 'I' for Inactive)
REMARK    1  A    between atoms: C_1  and  C_2
REMARK    2  A    between atoms: C_2  and  O_27
REMARK    3  A    between atoms: C_4  and  C_21
REMARK    4  A    between atoms: C_6  and  N_18
REMARK    5  A    between atoms: C_8  and  C_11
REMARK    6  A    between atoms: C_16  and  N_17
REMARK                            x       y       z     vdW  Elec       q    Type
REMARK                         _______ _______ _______ _____ _____    ______ ____
ROOT
ATOM      1  C   UNL     1       1.981   5.389  -1.046  0.00  0.00    +0.074 C 
ATOM      2  C   UNL     1       0.953   5.968  -0.072  0.00  0.00    +0.166 C 
ATOM      3  C   UNL     1       1.541   5.984   1.342  0.00  0.00    +0.075 C 
ATOM      4  C   UNL     1       1.837   4.546   1.779  0.00  0.00    +0.056 C 
ATOM      5  C   UNL     1       0.548   3.723   1.695  0.00  0.00    +0.210 C 
ATOM      6  C   UNL     1      -0.002   3.794   0.268  0.00  0.00    +0.183 C 
ATOM      7  O   UNL     1      -0.226   5.160  -0.087  0.00  0.00    -0.339 OA
ENDROOT
BRANCH   6   8
ATOM      8  C   UNL     1      -1.301   3.035   0.191  0.00  0.00    +0.004 A 
ATOM      9  C   UNL     1      -2.499   3.693   0.391  0.00  0.00    +0.008 A 
ATOM     10  C   UNL     1      -3.691   2.996   0.326  0.00  0.00    +0.000 A 
ATOM     11  C   UNL     1      -3.689   1.639   0.057  0.00  0.00    +0.002 A 
ATOM     12  C   UNL     1      -2.496   0.977  -0.150  0.00  0.00    +0.023 A 
ATOM     13  C   UNL     1      -1.296   1.674  -0.086  0.00  0.00    +0.030 A 
BRANCH  13  14
ATOM     14  N   UNL     1      -0.087   1.006  -0.293  0.00  0.00    -0.358 N 
ATOM     15  H   UNL     1      -0.071   0.038  -0.352  0.00  0.00    +0.142 HD
ATOM     16  H   UNL     1       0.737   1.511  -0.382  0.00  0.00    +0.142 HD
ENDBRANCH  13  14
ENDBRANCH   6   8
BRANCH   4  17
ATOM     17  C   UNL     1       2.344   4.545   3.198  0.00  0.00    -0.042 A 
ATOM     18  C   UNL     1       1.559   5.060   4.213  0.00  0.00    +0.004 A 
ATOM     19  C   UNL     1       2.022   5.054   5.516  0.00  0.00    +0.000 A 
ATOM     20  C   UNL     1       3.274   4.544   5.802  0.00  0.00    +0.000 A 
ATOM     21  C   UNL     1       4.061   4.035   4.786  0.00  0.00    +0.000 A 
ATOM     22  C   UNL     1       3.596   4.035   3.485  0.00  0.00    +0.004 A 
ENDBRANCH   4  17
BRANCH   5  23
ATOM     23  N   UNL     1       0.834   2.328   2.040  0.00  0.00    +0.029 N 
ATOM     24  O   UNL     1       1.723   1.727   1.464  0.00  0.00    -0.131 OA
ATOM     25  O   UNL     1       0.181   1.768   2.903  0.00  0.00    -0.131 OA
ENDBRANCH   5  23
BRANCH   2  26
ATOM     26  O   UNL     1       0.622   7.301  -0.465  0.00  0.00    -0.365 OA
ATOM     27  H   UNL     1       0.243   7.367  -1.352  0.00  0.00    +0.213 HD
ENDBRANCH   2  26
TORSDOF 5
