REMARK  Name = ZINC60042055
REMARK  16 active torsions:
REMARK  status: ('A' for Active; 'I' for Inactive)
REMARK    1  A    between atoms: C_1  and  C_2
REMARK    2  A    between atoms: C_2  and  C_3
REMARK    3  A    between atoms: C_3  and  C_4
REMARK    4  A    between atoms: C_4  and  N_5
REMARK    5  A    between atoms: C_6  and  N_31
REMARK    6  A    between atoms: C_7  and  N_14
REMARK    7  A    between atoms: N_14  and  C_15
REMARK    8  A    between atoms: C_15  and  C_16
REMARK    9  A    between atoms: C_17  and  C_19
REMARK   10  A    between atoms: C_19  and  N_20
REMARK   11  A    between atoms: N_20  and  C_21
REMARK   12  A    between atoms: N_20  and  C_28
REMARK   13  A    between atoms: C_21  and  C_22
REMARK   14  A    between atoms: C_25  and  C_27
REMARK   15  A    between atoms: C_28  and  C_29
REMARK   16  A    between atoms: C_28  and  C_30
REMARK                            x       y       z     vdW  Elec       q    Type
REMARK                         _______ _______ _______ _____ _____    ______ ____
ROOT
ATOM      1  N   UNL     1       4.999  -3.853   3.087  0.00  0.00    -0.266 N 
ATOM      2  C   UNL     1       5.849  -3.354   2.166  0.00  0.00    +0.203 C 
ATOM      3  O   UNL     1       5.504  -3.268   1.006  0.00  0.00    -0.277 OA
ENDROOT
BRANCH   1   6
ATOM      4  N   UNL     1       1.331  -3.808   2.874  0.00  0.00    -0.280 N 
ATOM      5  C   UNL     1       2.610  -3.470   3.248  0.00  0.00    +0.127 A 
ATOM      6  C   UNL     1       3.674  -4.176   2.723  0.00  0.00    +0.140 A 
ATOM      7  C   UNL     1       3.415  -5.222   1.819  0.00  0.00    +0.277 A 
ATOM      8  O   UNL     1       4.337  -5.862   1.340  0.00  0.00    -0.266 OA
ATOM      9  N   UNL     1       2.143  -5.513   1.485  0.00  0.00    -0.273 N 
ATOM     10  H   UNL     1       1.963  -6.234   0.862  0.00  0.00    +0.173 HD
ATOM     11  C   UNL     1       1.118  -4.818   2.011  0.00  0.00    +0.331 A 
ATOM     12  O   UNL     1      -0.021  -5.105   1.696  0.00  0.00    -0.246 OA
BRANCH   5  13
ATOM     13  N   UNL     1       2.827  -2.442   4.133  0.00  0.00    -0.343 N 
ATOM     14  H   UNL     1       2.082  -1.906   4.446  0.00  0.00    +0.144 HD
ATOM     15  H   UNL     1       3.726  -2.252   4.446  0.00  0.00    +0.144 HD
ENDBRANCH   5  13
BRANCH   4  16
ATOM     16  C   UNL     1       0.192  -3.068   3.423  0.00  0.00    +0.128 C 
BRANCH  16  17
ATOM     17  C   UNL     1      -0.276  -3.738   4.717  0.00  0.00    +0.021 C 
BRANCH  17  19
ATOM     18  C   UNL     1      -1.932  -3.635   6.584  0.00  0.00    +0.004 C 
ATOM     19  C   UNL     1      -1.465  -2.965   5.290  0.00  0.00    -0.002 C 
ENDBRANCH  17  19
ENDBRANCH  16  17
ENDBRANCH   4  16
ENDBRANCH   1   6
BRANCH   1  20
ATOM     20  C   UNL     1       5.450  -4.059   4.465  0.00  0.00    +0.110 C 
ATOM     21  C   UNL     1       6.139  -5.420   4.578  0.00  0.00    +0.025 C 
ENDBRANCH   1  20
BRANCH   2  22
ATOM     22  C   UNL     1       7.227  -2.904   2.577  0.00  0.00    +0.020 C 
BRANCH  22  23
ATOM     23  N   UNL     1       7.882  -2.234   1.446  0.00  0.00    +0.390 N 
ATOM     24  H   UNL     1       7.646  -2.712   0.589  0.00  0.00    -0.080 HD
BRANCH  23  25
ATOM     25  C   UNL     1       7.425  -0.840   1.371  0.00  0.00    -0.074 C 
ATOM     26  C   UNL     1       5.904  -0.811   1.202  0.00  0.00    -0.013 C 
ATOM     27  C   UNL     1       7.809  -0.108   2.658  0.00  0.00    -0.013 C 
ENDBRANCH  23  25
BRANCH  23  28
ATOM     28  C   UNL     1       9.338  -2.262   1.636  0.00  0.00    -0.035 C 
BRANCH  28  29
ATOM     29  C   UNL     1      10.016  -1.695   0.415  0.00  0.00    -0.026 A 
ATOM     30  C   UNL     1      10.454  -0.432   0.192  0.00  0.00    +0.009 A 
ATOM     31  C   UNL     1      11.054  -0.135  -1.018  0.00  0.00    +0.011 A 
ATOM     32  C   UNL     1      11.186  -1.115  -1.944  0.00  0.00    -0.013 A 
ATOM     33  S   UNL     1      10.456  -2.514  -1.109  0.00  0.00    -0.100 S 
ATOM     34  C   UNL     1      11.797  -1.045  -3.320  0.00  0.00    +0.051 C 
ENDBRANCH  28  29
ENDBRANCH  23  28
ENDBRANCH  22  23
ENDBRANCH   2  22
TORSDOF 11
