REMARK  Name = ZINC13398502
REMARK  6 active torsions:
REMARK  status: ('A' for Active; 'I' for Inactive)
REMARK    1  A    between atoms: C_1  and  C_2
REMARK    2  A    between atoms: C_2  and  C_15
REMARK    3  A    between atoms: N_6  and  C_8
REMARK    4  A    between atoms: C_18  and  C_21
REMARK    5  A    between atoms: C_21  and  N_22
REMARK    6  A    between atoms: C_26  and  C_29
REMARK                            x       y       z     vdW  Elec       q    Type
REMARK                         _______ _______ _______ _____ _____    ______ ____
ROOT
ATOM      1  C   UNL     1       4.077   7.934   1.660  0.00  0.00    +0.100 C 
ATOM      2  N   UNL     1       4.677   6.984   2.265  0.00  0.00    -0.090 NA
ATOM      3  O   UNL     1       5.080   5.940   1.400  0.00  0.00    -0.388 OA
ATOM      4  C   UNL     1       4.333   6.080   0.174  0.00  0.00    +0.227 C 
ATOM      5  C   UNL     1       4.001   7.592   0.183  0.00  0.00    +0.106 C 
ENDROOT
BRANCH   1   7
ATOM      6  C   UNL     1       4.278  10.417   1.782  0.00  0.00    +0.057 C 
ATOM      7  C   UNL     1       3.536   9.185   2.303  0.00  0.00    +0.142 C 
ATOM      8  N   UNL     1       2.091   9.309   2.052  0.00  0.00    -0.274 N 
ATOM      9  C   UNL     1       1.486   9.290   3.257  0.00  0.00    +0.322 C 
ATOM     10  O   UNL     1       0.283   9.373   3.417  0.00  0.00    -0.251 OA
ATOM     11  N   UNL     1       2.371   9.170   4.255  0.00  0.00    -0.187 N 
ATOM     12  N   UNL     1       3.647   9.099   3.773  0.00  0.00    -0.204 NA
ATOM     13  H   UNL     1       1.717   9.394   1.021  0.00  0.00    +0.152 HD
ATOM     14  H   UNL     1       4.213   9.850   4.138  0.00  0.00    +0.148 HD
BRANCH  11  15
ATOM     15  C   UNL     1       2.033   9.124   5.613  0.00  0.00    +0.054 A 
ATOM     16  C   UNL     1       1.145  10.052   6.141  0.00  0.00    +0.028 A 
ATOM     17  C   UNL     1       0.808  10.001   7.479  0.00  0.00    +0.040 A 
ATOM     18  C   UNL     1       1.364   9.032   8.297  0.00  0.00    +0.124 A 
ATOM     19  C   UNL     1       2.254   8.109   7.774  0.00  0.00    +0.040 A 
ATOM     20  C   UNL     1       2.588   8.153   6.435  0.00  0.00    +0.028 A 
ATOM     21  F   UNL     1       1.038   8.987   9.608  0.00  0.00    -0.205 F 
ENDBRANCH  11  15
ENDBRANCH   1   7
BRANCH   4  22
ATOM     22  C   UNL     1       3.056   5.238   0.211  0.00  0.00    +0.150 C 
BRANCH  22  23
ATOM     23  N   UNL     1       3.409   3.818   0.278  0.00  0.00    -0.324 N 
ATOM     24  C   UNL     1       2.409   2.853   0.321  0.00  0.00    +0.137 A 
ATOM     25  C   UNL     1       2.752   1.505   0.385  0.00  0.00    +0.081 A 
ATOM     26  C   UNL     1       1.745   0.556   0.428  0.00  0.00    +0.037 A 
ATOM     27  C   UNL     1       0.425   0.989   0.399  0.00  0.00    +0.074 A 
ATOM     28  C   UNL     1       0.158   2.341   0.341  0.00  0.00    +0.125 A 
ATOM     29  N   UNL     1       1.138   3.224   0.301  0.00  0.00    -0.238 NA
ATOM     30 CL   UNL     1       4.418   1.021   0.410  0.00  0.00    -0.080 Cl
ATOM     31  H   UNL     1       4.467   3.514   0.295  0.00  0.00    +0.148 HD
BRANCH  27  32
ATOM     32  C   UNL     1      -0.703  -0.009   0.437  0.00  0.00    +0.419 C 
ATOM     33  F   UNL     1      -1.062  -0.258   1.766  0.00  0.00    -0.166 F 
ATOM     34  F   UNL     1      -1.805   0.507  -0.254  0.00  0.00    -0.166 F 
ATOM     35  F   UNL     1      -0.291  -1.202  -0.166  0.00  0.00    -0.166 F 
ENDBRANCH  27  32
ENDBRANCH  22  23
ENDBRANCH   4  22
TORSDOF 5
