REMARK  Name = ZINC27323148
REMARK  13 active torsions:
REMARK  status: ('A' for Active; 'I' for Inactive)
REMARK    1  A    between atoms: C_1  and  C_2
REMARK    2  A    between atoms: C_2  and  C_3
REMARK    3  A    between atoms: C_3  and  C_4
REMARK    4  A    between atoms: C_4  and  N_5
REMARK    5  A    between atoms: C_6  and  N_26
REMARK    6  A    between atoms: C_7  and  N_14
REMARK    7  A    between atoms: N_14  and  C_15
REMARK    8  A    between atoms: N_14  and  C_22
REMARK    9  A    between atoms: C_15  and  C_16
REMARK   10  A    between atoms: C_18  and  C_21
REMARK   11  A    between atoms: C_22  and  C_23
REMARK   12  A    between atoms: C_23  and  C_24
REMARK   13  A    between atoms: C_23  and  C_25
REMARK                            x       y       z     vdW  Elec       q    Type
REMARK                         _______ _______ _______ _____ _____    ______ ____
ROOT
ATOM      1  N   UNL     1       0.266   1.351  -0.020  0.00  0.00    -0.280 N 
ATOM      2  C   UNL     1       1.405   2.121   0.050  0.00  0.00    +0.127 A 
ATOM      3  C   UNL     1       1.306   3.479  -0.081  0.00  0.00    +0.134 A 
ATOM      4  C   UNL     1       0.038   4.054  -0.284  0.00  0.00    +0.277 A 
ATOM      5  O   UNL     1      -0.076   5.262  -0.403  0.00  0.00    -0.266 OA
ATOM      6  N   UNL     1      -1.050   3.261  -0.346  0.00  0.00    -0.273 N 
ATOM      7  H   UNL     1      -2.045   3.704  -0.500  0.00  0.00    +0.173 HD
ATOM      8  C   UNL     1      -0.933   1.927  -0.220  0.00  0.00    +0.331 A 
ATOM      9  O   UNL     1      -1.928   1.230  -0.284  0.00  0.00    -0.246 OA
ENDROOT
BRANCH   2  10
ATOM     10  N   UNL     1       2.632   1.530   0.250  0.00  0.00    -0.343 N 
ATOM     11  H   UNL     1       3.539   2.150   0.305  0.00  0.00    +0.144 HD
ATOM     12  H   UNL     1       2.706   0.438   0.355  0.00  0.00    +0.144 HD
ENDBRANCH   2  10
BRANCH   1  13
ATOM     13  C   UNL     1       0.362  -0.104   0.118  0.00  0.00    +0.128 C 
BRANCH  13  14
ATOM     14  C   UNL     1       0.223  -0.487   1.593  0.00  0.00    +0.021 C 
BRANCH  14  16
ATOM     15  C   UNL     1       0.183  -2.389   3.212  0.00  0.00    +0.004 C 
ATOM     16  C   UNL     1       0.322  -2.007   1.738  0.00  0.00    -0.002 C 
ENDBRANCH  14  16
ENDBRANCH  13  14
ENDBRANCH   1  13
BRANCH   3  17
ATOM     17  N   UNL     1       2.460   4.293  -0.012  0.00  0.00    -0.317 N 
BRANCH  17  18
ATOM     18  C   UNL     1       2.662   5.028  -1.268  0.00  0.00    +0.164 C 
BRANCH  18  19
ATOM     19  C   UNL     1       4.017   5.687  -1.253  0.00  0.00    +0.101 A 
ATOM     20  C   UNL     1       5.215   5.173  -1.800  0.00  0.00    +0.072 A 
ATOM     21  C   UNL     1       6.135   6.130  -1.529  0.00  0.00    +0.135 A 
ATOM     22  O   UNL     1       5.488   7.105  -0.876  0.00  0.00    -0.360 OA
ATOM     23  N   UNL     1       4.315   6.845  -0.738  0.00  0.00    -0.081 NA
ATOM     24  C   UNL     1       7.598   6.102  -1.891  0.00  0.00    +0.089 C 
ENDBRANCH  18  19
ENDBRANCH  17  18
BRANCH  17  25
ATOM     25  C   UNL     1       2.388   5.214   1.130  0.00  0.00    +0.108 C 
BRANCH  25  26
ATOM     26  C   UNL     1       2.672   4.446   2.423  0.00  0.00    +0.000 C 
ATOM     27  C   UNL     1       4.114   3.936   2.407  0.00  0.00    +0.009 C 
ATOM     28  C   UNL     1       2.473   5.375   3.622  0.00  0.00    +0.009 C 
ENDBRANCH  25  26
ENDBRANCH  17  25
ENDBRANCH   3  17
TORSDOF 9
