REMARK  Name = ZINC05576438
REMARK  7 active torsions:
REMARK  status: ('A' for Active; 'I' for Inactive)
REMARK    1  A    between atoms: C_1  and  C_2
REMARK    2  A    between atoms: C_2  and  C_3
REMARK    3  A    between atoms: C_10  and  C_15
REMARK    4  A    between atoms: C_15  and  C_17
REMARK    5  A    between atoms: C_15  and  N_63
REMARK    6  A    between atoms: N_21  and  C_22
REMARK    7  A    between atoms: C_30  and  C_33
REMARK                            x       y       z     vdW  Elec       q    Type
REMARK                         _______ _______ _______ _____ _____    ______ ____
ROOT
ATOM      1  C   UNL     1       4.969  -2.783  -0.060  0.00  0.00    +0.039 C 
ENDROOT
BRANCH   1   9
ATOM      2  C   UNL     1       1.138   2.068  -0.328  0.00  0.00    -0.047 A 
ATOM      3  C   UNL     1      -0.036   1.334  -0.433  0.00  0.00    +0.005 A 
ATOM      4  C   UNL     1      -0.005  -0.043  -0.445  0.00  0.00    +0.026 A 
ATOM      5  C   UNL     1       1.214  -0.708  -0.350  0.00  0.00    +0.049 A 
ATOM      6  C   UNL     1       2.401   0.040  -0.244  0.00  0.00    -0.001 A 
ATOM      7  C   UNL     1       2.346   1.438  -0.234  0.00  0.00    +0.013 A 
ATOM      8  C   UNL     1       3.679  -0.668  -0.145  0.00  0.00    +0.017 A 
ATOM      9  C   UNL     1       3.671  -2.023  -0.160  0.00  0.00    +0.011 A 
ATOM     10  C   UNL     1       2.452  -2.726  -0.269  0.00  0.00    +0.251 A 
ATOM     11  O   UNL     1       2.468  -3.945  -0.281  0.00  0.00    -0.268 OA
ATOM     12  N   UNL     1       1.274  -2.085  -0.360  0.00  0.00    -0.322 N 
ATOM     13  H   UNL     1       0.429  -2.615  -0.436  0.00  0.00    +0.169 HD
BRANCH   2  15
ATOM     14  C   UNL     1       0.939   4.069   1.124  0.00  0.00    +0.009 C 
ATOM     15  C   UNL     1       1.078   3.574  -0.317  0.00  0.00    +0.032 C 
ENDBRANCH   2  15
ENDBRANCH   1   9
BRANCH   1  22
ATOM     16  C   UNL     1       6.116  -4.547   1.136  0.00  0.00    -0.077 C 
ATOM     17  C   UNL     1       5.942  -5.633   2.201  0.00  0.00    -0.018 C 
ATOM     18  C   UNL     1       5.641  -4.973   3.550  0.00  0.00    -0.001 C 
ATOM     19  C   UNL     1       4.386  -4.106   3.416  0.00  0.00    -0.031 C 
ATOM     20  C   UNL     1       4.606  -3.065   2.316  0.00  0.00    -0.074 C 
ATOM     21  C   UNL     1       4.112  -3.396   4.744  0.00  0.00    +0.005 C 
ATOM     22  N   UNL     1       4.866  -3.764   1.040  0.00  0.00    +0.389 N 
ATOM     23  H   UNL     1       4.087  -4.403   0.845  0.00  0.00    -0.080 HD
ENDBRANCH   1  22
BRANCH   1  24
ATOM     24  C   UNL     1       5.220  -3.520  -1.351  0.00  0.00    +0.143 A 
ATOM     25  N   UNL     1       4.662  -4.643  -1.732  0.00  0.00    -0.115 NA
ATOM     26  N   UNL     1       5.133  -4.949  -2.891  0.00  0.00    -0.023 NA
ATOM     27  N   UNL     1       5.984  -4.055  -3.256  0.00  0.00    -0.044 NA
ATOM     28  N   UNL     1       6.066  -3.157  -2.333  0.00  0.00    -0.227 N 
BRANCH  28  29
ATOM     29  C   UNL     1       6.919  -1.966  -2.350  0.00  0.00    +0.111 C 
ATOM     30  C   UNL     1       6.609  -1.112  -3.597  0.00  0.00    +0.027 C 
ATOM     31  C   UNL     1       7.990  -0.564  -4.034  0.00  0.00    +0.002 C 
ATOM     32  C   UNL     1       8.935  -1.760  -3.763  0.00  0.00    +0.002 C 
ATOM     33  C   UNL     1       8.397  -2.378  -2.455  0.00  0.00    +0.027 C 
ENDBRANCH  28  29
ENDBRANCH   1  24
TORSDOF 5
