REMARK  Name = ZINC38718467
REMARK  4 active torsions:
REMARK  status: ('A' for Active; 'I' for Inactive)
REMARK    1  A    between atoms: C_3  and  S_9
REMARK    2  A    between atoms: S_9  and  N_12
REMARK    3  A    between atoms: N_12  and  C_13
REMARK    4  A    between atoms: C_16  and  C_19
REMARK                            x       y       z     vdW  Elec       q    Type
REMARK                         _______ _______ _______ _____ _____    ______ ____
ROOT
ATOM      1  C   UNL     1       5.907   2.572   1.671  0.00  0.00    +0.074 A 
ATOM      2  C   UNL     1       6.484   3.435   0.747  0.00  0.00    +0.027 A 
ATOM      3  C   UNL     1       7.707   4.013   1.012  0.00  0.00    +0.012 A 
ATOM      4  C   UNL     1       8.366   3.732   2.208  0.00  0.00    +0.002 A 
ATOM      5  C   UNL     1       7.785   2.866   3.134  0.00  0.00    +0.012 A 
ATOM      6  C   UNL     1       6.559   2.294   2.867  0.00  0.00    +0.027 A 
ENDROOT
BRANCH   4   7
ATOM      7  C   UNL     1       9.682   4.352   2.496  0.00  0.00    +0.090 A 
ATOM      8  C   UNL     1      10.425   4.161   3.609  0.00  0.00    +0.116 A 
ATOM      9  N   UNL     1      11.588   4.915   3.471  0.00  0.00    -0.324 N 
ATOM     10  C   UNL     1      11.467   5.554   2.272  0.00  0.00    +0.170 A 
ATOM     11  N   UNL     1      10.355   5.206   1.686  0.00  0.00    -0.222 NA
ATOM     12  S   UNL     1      12.917   6.575   2.103  0.00  0.00    -0.086 S 
ATOM     13  C   UNL     1      13.525   6.450   3.838  0.00  0.00    +0.099 C 
ATOM     14  C   UNL     1      12.809   5.143   4.251  0.00  0.00    +0.135 C 
ENDBRANCH   4   7
BRANCH   1  15
ATOM     15  N   UNL     1       4.668   1.987   1.400  0.00  0.00    -0.098 NA
BRANCH  15  16
ATOM     16  S   UNL     1       3.890   2.317  -0.024  0.00  0.00    +0.093 S 
ATOM     17  O   UNL     1       4.688   1.761  -1.061  0.00  0.00    -0.148 OA
ATOM     18  O   UNL     1       3.541   3.694   0.013  0.00  0.00    -0.148 OA
BRANCH  16  21
ATOM     19  C   UNL     1      -0.017   1.378   0.010  0.00  0.00    +0.003 A 
ATOM     20  C   UNL     1       1.171   2.086   0.002  0.00  0.00    +0.030 A 
ATOM     21  C   UNL     1       2.378   1.413  -0.013  0.00  0.00    +0.130 A 
ATOM     22  C   UNL     1       2.398   0.030  -0.021  0.00  0.00    +0.086 A 
ATOM     23  C   UNL     1       1.209  -0.679  -0.013  0.00  0.00    +0.061 A 
ATOM     24  C   UNL     1       0.002  -0.004   0.002  0.00  0.00    +0.021 A 
ATOM     25 CL   UNL     1       1.234  -2.415  -0.023  0.00  0.00    -0.082 Cl
ATOM     26 CL   UNL     1       3.914  -0.816  -0.041  0.00  0.00    -0.080 Cl
ENDBRANCH  16  21
ENDBRANCH  15  16
ENDBRANCH   1  15
TORSDOF 4
