REMARK  Name = ZINC19266059
REMARK  2 active torsions:
REMARK  status: ('A' for Active; 'I' for Inactive)
REMARK    1  A    between atoms: C_3  and  N_9
REMARK    2  A    between atoms: C_4  and  N_8
REMARK                            x       y       z     vdW  Elec       q    Type
REMARK                         _______ _______ _______ _____ _____    ______ ____
ROOT
ATOM      1  N   UNL     1       4.197   5.165  -0.941  0.00  0.00    -0.325 N 
ATOM      2  C   UNL     1       4.440   4.476   0.335  0.00  0.00    +0.124 C 
ATOM      3  C   UNL     1       3.708   3.132   0.333  0.00  0.00    +0.126 C 
ATOM      4  N   UNL     1       2.271   3.360   0.127  0.00  0.00    -0.307 N 
ATOM      5  C   UNL     1       2.028   4.049  -1.148  0.00  0.00    +0.126 C 
ATOM      6  C   UNL     1       2.760   5.393  -1.147  0.00  0.00    +0.124 C 
ATOM      7  C   UNL     1       1.565   2.169   0.191  0.00  0.00    +0.161 A 
ATOM      8  N   UNL     1       2.017   0.948   0.402  0.00  0.00    -0.233 NA
ATOM      9  C   UNL     1       1.199  -0.087   0.432  0.00  0.00    +0.120 A 
ATOM     10  C   UNL     1      -0.124   0.129   0.241  0.00  0.00    +0.068 A 
ATOM     11  S   UNL     1      -0.141   1.902   0.014  0.00  0.00    -0.061 S 
ENDROOT
BRANCH   1  14
ATOM     12  C   UNL     1       4.939   8.766  -1.080  0.00  0.00    +0.022 A 
ATOM     13  C   UNL     1       4.233   7.578  -1.017  0.00  0.00    +0.026 A 
ATOM     14  C   UNL     1       4.911   6.369  -1.005  0.00  0.00    +0.051 A 
ATOM     15  C   UNL     1       6.305   6.354  -1.051  0.00  0.00    +0.047 A 
ATOM     16  C   UNL     1       7.005   7.548  -1.120  0.00  0.00    +0.044 A 
ATOM     17  C   UNL     1       6.322   8.751  -1.131  0.00  0.00    +0.043 A 
ATOM     18 CL   UNL     1       7.201  10.246  -1.210  0.00  0.00    -0.083 Cl
BRANCH  15  19
ATOM     19  N   UNL     1       6.995   5.135  -1.034  0.00  0.00    -0.357 N 
ATOM     20  H   UNL     1       8.094   5.125  -1.071  0.00  0.00    +0.142 HD
ATOM     21  H   UNL     1       6.437   4.188  -0.984  0.00  0.00    +0.142 HD
ENDBRANCH  15  19
ENDBRANCH   1  14
TORSDOF 2
