REMARK  Name = ZINC16266834
REMARK  10 active torsions:
REMARK  status: ('A' for Active; 'I' for Inactive)
REMARK    1  A    between atoms: C_1  and  C_2
REMARK    2  A    between atoms: C_4  and  O_30
REMARK    3  A    between atoms: C_5  and  C_10
REMARK    4  A    between atoms: C_10  and  C_11
REMARK    5  A    between atoms: C_10  and  C_20
REMARK    6  A    between atoms: C_15  and  O_18
REMARK    7  A    between atoms: C_16  and  O_17
REMARK    8  A    between atoms: O_18  and  C_19
REMARK    9  A    between atoms: C_21  and  O_29
REMARK   10  A    between atoms: C_23  and  C_28
REMARK                            x       y       z     vdW  Elec       q    Type
REMARK                         _______ _______ _______ _____ _____    ______ ____
ROOT
ATOM      1  C   UNL     1       1.224  -2.189  -0.022  0.00  0.00    +0.100 C 
ENDROOT
BRANCH   1   6
ATOM      2  C   UNL     1       0.861  -4.445   5.270  0.00  0.00    +0.063 C 
ATOM      3  C   UNL     1       0.963  -3.867   3.882  0.00  0.00    +0.019 A 
ATOM      4  C   UNL     1       1.570  -4.579   2.908  0.00  0.00    +0.066 A 
ATOM      5  C   UNL     1       1.663  -4.046   1.606  0.00  0.00    +0.128 A 
ATOM      6  C   UNL     1       1.137  -2.792   1.356  0.00  0.00    +0.070 A 
ATOM      7  C   UNL     1       0.519  -2.093   2.399  0.00  0.00    +0.257 A 
ATOM      8  O   UNL     1       0.045  -0.986   2.193  0.00  0.00    -0.267 OA
ATOM      9  N   UNL     1       0.444  -2.638   3.628  0.00  0.00    -0.326 N 
ATOM     10  H   UNL     1       0.012  -2.145   4.343  0.00  0.00    +0.169 HD
BRANCH   5  11
ATOM     11  O   UNL     1       2.263  -4.750   0.617  0.00  0.00    -0.506 OA
ATOM     12  H   UNL     1       2.597  -5.614   0.895  0.00  0.00    +0.292 HD
ENDBRANCH   5  11
ENDBRANCH   1   6
BRANCH   1  13
ATOM     13  C   UNL     1       0.874  -3.234  -1.050  0.00  0.00    +0.070 A 
ATOM     14  C   UNL     1      -0.173  -4.109  -0.831  0.00  0.00    +0.128 A 
ATOM     15  C   UNL     1      -0.476  -5.071  -1.816  0.00  0.00    +0.066 A 
ATOM     16  C   UNL     1       0.262  -5.131  -2.945  0.00  0.00    +0.019 A 
ATOM     17  N   UNL     1       1.293  -4.270  -3.151  0.00  0.00    -0.326 N 
ATOM     18  H   UNL     1       1.810  -4.332  -3.970  0.00  0.00    +0.169 HD
ATOM     19  C   UNL     1       1.610  -3.334  -2.237  0.00  0.00    +0.257 A 
ATOM     20  O   UNL     1       2.541  -2.572  -2.443  0.00  0.00    -0.267 OA
ATOM     21  C   UNL     1      -0.063  -6.166  -3.992  0.00  0.00    +0.063 C 
BRANCH  14  22
ATOM     22  O   UNL     1      -0.900  -4.041   0.310  0.00  0.00    -0.506 OA
ATOM     23  H   UNL     1      -1.608  -4.697   0.365  0.00  0.00    +0.292 HD
ENDBRANCH  14  22
ENDBRANCH   1  13
BRANCH   1  24
ATOM     24  C   UNL     1       0.258  -1.037  -0.128  0.00  0.00    +0.010 A 
ATOM     25  C   UNL     1      -1.105  -1.275  -0.122  0.00  0.00    +0.008 A 
ATOM     26  C   UNL     1      -1.994  -0.221  -0.219  0.00  0.00    +0.004 A 
ATOM     27  C   UNL     1      -1.524   1.076  -0.323  0.00  0.00    +0.049 A 
ATOM     28  C   UNL     1      -0.161   1.321  -0.329  0.00  0.00    +0.162 A 
ATOM     29  C   UNL     1       0.734   0.259  -0.231  0.00  0.00    +0.163 A 
BRANCH  29  30
ATOM     30  O   UNL     1       2.073   0.494  -0.237  0.00  0.00    -0.503 OA
ATOM     31  H   UNL     1       2.470   0.489  -1.119  0.00  0.00    +0.292 HD
ENDBRANCH  29  30
BRANCH  28  32
ATOM     32  O   UNL     1       0.302   2.595  -0.431  0.00  0.00    -0.491 OA
ATOM     33  C   UNL     1      -0.674   3.634  -0.528  0.00  0.00    +0.277 C 
ENDBRANCH  28  32
ENDBRANCH   1  24
TORSDOF 7
