REMARK  Name = ZINC04577072
REMARK  4 active torsions:
REMARK  status: ('A' for Active; 'I' for Inactive)
REMARK    1  A    between atoms: N_9  and  C_17
REMARK    2  A    between atoms: C_10  and  C_12
REMARK    3  A    between atoms: C_12  and  S_13
REMARK    4  A    between atoms: S_13  and  C_14
REMARK                            x       y       z     vdW  Elec       q    Type
REMARK                         _______ _______ _______ _____ _____    ______ ____
ROOT
ATOM      1  C   UNL     1      -0.017   1.373   0.010  0.00  0.00    +0.001 A 
ATOM      2  C   UNL     1       1.169   2.096   0.002  0.00  0.00    +0.002 A 
ATOM      3  C   UNL     1       2.387   1.453  -0.013  0.00  0.00    +0.028 A 
ATOM      4  C   UNL     1       2.432   0.058  -0.021  0.00  0.00    +0.078 A 
ATOM      5  C   UNL     1       1.224  -0.674  -0.013  0.00  0.00    +0.065 A 
ATOM      6  C   UNL     1       0.002  -0.004   0.002  0.00  0.00    +0.015 A 
ATOM      7  C   UNL     1       1.305  -2.142  -0.022  0.00  0.00    +0.266 A 
ATOM      8  O   UNL     1       0.302  -2.831  -0.016  0.00  0.00    -0.267 OA
ATOM      9  N   UNL     1       2.539  -2.697  -0.038  0.00  0.00    -0.262 N 
ATOM     10  C   UNL     1       3.651  -1.913  -0.044  0.00  0.00    +0.128 A 
ATOM     11  N   UNL     1       3.610  -0.616  -0.037  0.00  0.00    -0.232 NA
ENDROOT
BRANCH   9  12
ATOM     12  C   UNL     1       2.673  -4.092  -0.047  0.00  0.00    +0.069 A 
ATOM     13  C   UNL     1       2.733  -4.777  -1.253  0.00  0.00    +0.028 A 
ATOM     14  C   UNL     1       2.865  -6.152  -1.259  0.00  0.00    +0.002 A 
ATOM     15  C   UNL     1       2.937  -6.847  -0.066  0.00  0.00    +0.002 A 
ATOM     16  C   UNL     1       2.877  -6.168   1.137  0.00  0.00    +0.022 A 
ATOM     17  C   UNL     1       2.752  -4.792   1.151  0.00  0.00    +0.065 A 
ATOM     18 CL   UNL     1       2.685  -3.939   2.662  0.00  0.00    -0.081 Cl
ENDBRANCH   9  12
BRANCH  10  19
ATOM     19  C   UNL     1       5.000  -2.586  -0.061  0.00  0.00    +0.151 C 
BRANCH  19  20
ATOM     20  S   UNL     1       6.304  -1.324  -0.067  0.00  0.00    -0.085 S 
BRANCH  20  21
ATOM     21  C   UNL     1       7.799  -2.257  -0.086  0.00  0.00    +0.123 C 
ATOM     22  N   UNL     1       8.888  -1.758  -0.671  0.00  0.00    -0.382 N 
ATOM     23  N   UNL     1       7.841  -3.461   0.483  0.00  0.00    -0.340 N 
ATOM     24  H   UNL     1       8.857  -0.882  -1.086  0.00  0.00    +0.158 HD
ATOM     25  H   UNL     1       7.048  -3.824   0.909  0.00  0.00    +0.144 HD
ATOM     26  H   UNL     1       8.664  -3.974   0.473  0.00  0.00    +0.144 HD
ATOM     27  H   UNL     1       9.711  -2.271  -0.682  0.00  0.00    +0.158 HD
ENDBRANCH  20  21
ENDBRANCH  19  20
ENDBRANCH  10  19
TORSDOF 4
