REMARK  Name = ZINC35483769
REMARK  10 active torsions:
REMARK  status: ('A' for Active; 'I' for Inactive)
REMARK    1  A    between atoms: C_1  and  C_2
REMARK    2  A    between atoms: C_2  and  C_3
REMARK    3  A    between atoms: C_6  and  C_9
REMARK    4  A    between atoms: C_11  and  C_12
REMARK    5  A    between atoms: C_12  and  C_13
REMARK    6  A    between atoms: C_14  and  C_23
REMARK    7  A    between atoms: C_19  and  C_22
REMARK    8  A    between atoms: C_32  and  C_38
REMARK    9  A    between atoms: C_33  and  C_35
REMARK   10  A    between atoms: C_35  and  C_37
REMARK                            x       y       z     vdW  Elec       q    Type
REMARK                         _______ _______ _______ _____ _____    ______ ____
ROOT
ATOM      1  C   UNL     1       2.751  -1.888  -4.817  0.00  0.00    +0.152 C 
ATOM      2  C   UNL     1       3.064  -3.284  -4.330  0.00  0.00    +0.078 C 
ATOM      3  C   UNL     1       4.323  -3.251  -3.834  0.00  0.00    +0.250 C 
ATOM      4  O   UNL     1       4.981  -4.305  -3.297  0.00  0.00    -0.282 OA
ATOM      5  C   UNL     1       4.864  -1.884  -3.971  0.00  0.00    +0.293 C 
ATOM      6  O   UNL     1       5.972  -1.534  -3.617  0.00  0.00    -0.266 OA
ATOM      7  N   UNL     1       3.948  -1.083  -4.546  0.00  0.00    -0.232 N 
ATOM      8  C   UNL     1       4.107   0.259  -4.830  0.00  0.00    +0.169 A 
ATOM      9  N   UNL     1       3.237   1.085  -5.386  0.00  0.00    -0.229 NA
ATOM     10  C   UNL     1       3.526   2.341  -5.598  0.00  0.00    +0.058 A 
ATOM     11  C   UNL     1       4.797   2.757  -5.204  0.00  0.00    +0.078 A 
ATOM     12  S   UNL     1       5.450   1.231  -4.544  0.00  0.00    -0.049 S 
ATOM     13  C   UNL     1       2.540   3.289  -6.231  0.00  0.00    +0.067 C 
ENDROOT
BRANCH   1  17
ATOM     14  C   UNL     1      -0.597  -0.306  -2.688  0.00  0.00    -0.048 A 
ATOM     15  C   UNL     1      -0.741  -0.706  -4.004  0.00  0.00    +0.004 A 
ATOM     16  C   UNL     1       0.343  -1.217  -4.693  0.00  0.00    +0.006 A 
ATOM     17  C   UNL     1       1.570  -1.329  -4.066  0.00  0.00    -0.022 A 
ATOM     18  C   UNL     1       1.714  -0.929  -2.751  0.00  0.00    +0.006 A 
ATOM     19  C   UNL     1       0.631  -0.413  -2.063  0.00  0.00    +0.004 A 
BRANCH  14  21
ATOM     20  C   UNL     1      -1.836   1.768  -2.130  0.00  0.00    +0.009 C 
ATOM     21  C   UNL     1      -1.779   0.252  -1.937  0.00  0.00    +0.032 C 
ENDBRANCH  14  21
ENDBRANCH   1  17
BRANCH  11  22
ATOM     22  C   UNL     1       5.398   4.028  -5.296  0.00  0.00    +0.168 C 
ATOM     23  O   UNL     1       4.782   4.957  -5.780  0.00  0.00    -0.292 OA
ATOM     24  C   UNL     1       6.804   4.235  -4.795  0.00  0.00    +0.092 C 
ENDBRANCH  11  22
BRANCH   2  25
ATOM     25  C   UNL     1       2.175  -4.448  -4.385  0.00  0.00    +0.215 C 
ATOM     26  O   UNL     1       0.992  -4.300  -4.632  0.00  0.00    -0.285 OA
BRANCH  25  27
ATOM     27  C   UNL     1       2.714  -5.800  -4.141  0.00  0.00    +0.133 A 
ATOM     28  C   UNL     1       1.977  -6.959  -4.029  0.00  0.00    +0.051 A 
ATOM     29  N   UNL     1       2.861  -7.971  -3.807  0.00  0.00    -0.303 N 
ATOM     30  C   UNL     1       2.690  -9.315  -3.622  0.00  0.00    +0.093 A 
ATOM     31  C   UNL     1       3.751 -10.120  -3.417  0.00  0.00    +0.018 A 
ATOM     32  C   UNL     1       5.052  -9.588  -3.390  0.00  0.00    +0.008 A 
ATOM     33  C   UNL     1       5.238  -8.254  -3.572  0.00  0.00    -0.008 A 
ATOM     34  C   UNL     1       4.118  -7.421  -3.786  0.00  0.00    +0.141 A 
ATOM     35  N   UNL     1       4.013  -6.119  -3.994  0.00  0.00    -0.224 NA
ATOM     36  C   UNL     1       6.627  -7.669  -3.546  0.00  0.00    +0.047 C 
ATOM     37  C   UNL     1       0.478  -7.082  -4.131  0.00  0.00    +0.066 C 
ENDBRANCH  25  27
ENDBRANCH   2  25
TORSDOF 5
