REMARK  Name = ZINC62834291
REMARK  3 active torsions:
REMARK  status: ('A' for Active; 'I' for Inactive)
REMARK    1  A    between atoms: C_6  and  N_7
REMARK    2  A    between atoms: C_9  and  C_12
REMARK    3  A    between atoms: C_19  and  C_21
REMARK                            x       y       z     vdW  Elec       q    Type
REMARK                         _______ _______ _______ _____ _____    ______ ____
ROOT
ATOM      1  C   UNL     1       0.251   1.147  -2.264  0.00  0.00    +0.025 A 
ATOM      2  C   UNL     1       1.461   1.800  -2.316  0.00  0.00    +0.028 A 
ATOM      3  C   UNL     1       2.582   1.242  -1.708  0.00  0.00    +0.047 A 
ATOM      4  C   UNL     1       2.469   0.007  -1.041  0.00  0.00    +0.002 A 
ATOM      5  C   UNL     1       1.232  -0.648  -0.995  0.00  0.00    +0.032 A 
ATOM      6  C   UNL     1       0.133  -0.077  -1.605  0.00  0.00    +0.025 A 
ATOM      7  C   UNL     1       3.752  -0.306  -0.530  0.00  0.00    +0.041 A 
ATOM      8  C   UNL     1       4.594   0.702  -0.879  0.00  0.00    +0.103 A 
ATOM      9  N   UNL     1       3.892   1.651  -1.597  0.00  0.00    -0.351 N 
ATOM     10  H   UNL     1       4.261   2.470  -1.962  0.00  0.00    +0.166 HD
ENDROOT
BRANCH   8  11
ATOM     11  C   UNL     1       6.024   0.773  -0.545  0.00  0.00    +0.264 C 
ATOM     12  O   UNL     1       6.659  -0.250  -0.366  0.00  0.00    -0.268 OA
ATOM     13  N   UNL     1       6.633   1.970  -0.435  0.00  0.00    -0.285 N 
ATOM     14  C   UNL     1       5.850   3.213  -0.465  0.00  0.00    +0.109 C 
ATOM     15  C   UNL     1       6.193   4.042   0.777  0.00  0.00    +0.019 C 
ATOM     16  C   UNL     1       7.707   4.254   0.841  0.00  0.00    +0.004 C 
ATOM     17  C   UNL     1       8.410   2.900   0.955  0.00  0.00    +0.032 C 
ATOM     18  C   UNL     1       8.091   2.058  -0.279  0.00  0.00    +0.162 C 
BRANCH  18  19
ATOM     19  C   UNL     1       8.665   0.675  -0.107  0.00  0.00    +0.231 C 
ATOM     20  O   UNL     1       8.408   0.032   0.889  0.00  0.00    -0.274 OA
ATOM     21  N   UNL     1       9.463   0.153  -1.059  0.00  0.00    -0.328 N 
ATOM     22  H   UNL     1       9.668   0.667  -1.855  0.00  0.00    +0.145 HD
ATOM     23  H   UNL     1       9.832  -0.737  -0.948  0.00  0.00    +0.145 HD
ENDBRANCH  18  19
ENDBRANCH   8  11
BRANCH   6  24
ATOM     24  N   UNL     1      -1.105  -0.728  -1.561  0.00  0.00    -0.358 N 
ATOM     25  H   UNL     1      -1.878  -0.328  -1.989  0.00  0.00    +0.142 HD
ATOM     26  H   UNL     1      -1.190  -1.579  -1.104  0.00  0.00    +0.142 HD
ENDBRANCH   6  24
TORSDOF 3
