REMARK  Name = ZINC06643199
REMARK  7 active torsions:
REMARK  status: ('A' for Active; 'I' for Inactive)
REMARK    1  A    between atoms: C_1  and  C_2
REMARK    2  A    between atoms: C_2  and  C_3
REMARK    3  A    between atoms: C_2  and  C_4
REMARK    4  A    between atoms: C_4  and  C_6
REMARK    5  A    between atoms: C_4  and  O_12
REMARK    6  A    between atoms: O_12  and  C_13
REMARK    7  A    between atoms: C_13  and  C_15
REMARK                            x       y       z     vdW  Elec       q    Type
REMARK                         _______ _______ _______ _____ _____    ______ ____
ROOT
ATOM      1  C   UNL     1       0.828   3.562  -0.154  0.00  0.00    +0.265 C 
ENDROOT
BRANCH   1   2
ATOM      2  C   UNL     1       1.940   4.029   0.749  0.00  0.00    +0.261 C 
ATOM      3  O   UNL     1       2.171   5.214   0.864  0.00  0.00    -0.271 OA
ATOM      4  N   UNL     1       2.679   3.130   1.430  0.00  0.00    -0.237 N 
ATOM      5  C   UNL     1       3.607   3.550   2.312  0.00  0.00    +0.303 C 
ATOM      6  O   UNL     1       3.778   4.739   2.494  0.00  0.00    -0.253 OA
ATOM      7  N   UNL     1       4.345   2.651   2.993  0.00  0.00    -0.313 N 
ATOM      8  H   UNL     1       2.542   2.181   1.284  0.00  0.00    +0.159 HD
ATOM      9  H   UNL     1       4.208   1.702   2.847  0.00  0.00    +0.146 HD
ATOM     10  H   UNL     1       5.013   2.953   3.628  0.00  0.00    +0.146 HD
ENDBRANCH   1   2
BRANCH   1  12
ATOM     11  C   UNL     1       0.107   3.296  -2.531  0.00  0.00    +0.011 C 
ATOM     12  C   UNL     1       1.229   3.786  -1.614  0.00  0.00    +0.033 C 
ATOM     13  C   UNL     1       1.468   5.278  -1.853  0.00  0.00    +0.011 C 
ENDBRANCH   1  12
BRANCH   1  14
ATOM     14  O   UNL     1       0.585   2.148   0.069  0.00  0.00    -0.448 OA
BRANCH  14  15
ATOM     15  C   UNL     1      -0.671   1.705  -0.130  0.00  0.00    +0.341 C 
ATOM     16  O   UNL     1      -1.539   2.477  -0.485  0.00  0.00    -0.245 OA
BRANCH  15  17
ATOM     17  C   UNL     1      -0.993   0.279   0.078  0.00  0.00    +0.079 A 
ATOM     18  C   UNL     1      -2.296  -0.195  -0.126  0.00  0.00    +0.039 A 
ATOM     19  C   UNL     1      -2.545  -1.540   0.083  0.00  0.00    +0.078 A 
ATOM     20  C   UNL     1      -1.507  -2.367   0.483  0.00  0.00    +0.147 A 
ATOM     21  N   UNL     1      -0.289  -1.892   0.667  0.00  0.00    -0.241 NA
ATOM     22  C   UNL     1      -0.002  -0.621   0.475  0.00  0.00    +0.127 A 
ATOM     23 CL   UNL     1      -1.813  -4.056   0.746  0.00  0.00    -0.060 Cl
ATOM     24 CL   UNL     1      -4.140  -2.183  -0.154  0.00  0.00    -0.080 Cl
ENDBRANCH  15  17
ENDBRANCH  14  15
ENDBRANCH   1  14
TORSDOF 5
