REMARK  Name = ZINC40095457
REMARK  10 active torsions:
REMARK  status: ('A' for Active; 'I' for Inactive)
REMARK    1  A    between atoms: C_1  and  C_2
REMARK    2  A    between atoms: C_7  and  C_12
REMARK    3  A    between atoms: C_12  and  C_14
REMARK    4  A    between atoms: N_18  and  C_31
REMARK    5  A    between atoms: C_19  and  C_21
REMARK    6  A    between atoms: C_23  and  O_29
REMARK    7  A    between atoms: C_24  and  O_28
REMARK    8  A    between atoms: O_29  and  C_30
REMARK    9  A    between atoms: C_31  and  C_32
REMARK   10  A    between atoms: C_32  and  O_33
REMARK                            x       y       z     vdW  Elec       q    Type
REMARK                         _______ _______ _______ _____ _____    ______ ____
ROOT
ATOM      1  C   UNL     1      -1.494  -6.370   3.186  0.00  0.00    +0.076 C 
ATOM      2  C   UNL     1      -1.874  -7.657   3.356  0.00  0.00    +0.249 C 
ATOM      3  C   UNL     1      -1.115  -8.244   4.480  0.00  0.00    +0.288 C 
ATOM      4  O   UNL     1      -1.230  -9.385   4.880  0.00  0.00    -0.266 OA
ATOM      5  N   UNL     1      -0.277  -7.326   4.996  0.00  0.00    -0.281 N 
ATOM      6  C   UNL     1      -0.439  -6.085   4.229  0.00  0.00    +0.145 C 
ATOM      7  O   UNL     1      -2.802  -8.305   2.614  0.00  0.00    -0.282 OA
ENDROOT
BRANCH   6   8
ATOM      8  C   UNL     1       0.860  -5.711   3.563  0.00  0.00    -0.018 A 
ATOM      9  C   UNL     1       1.454  -4.494   3.845  0.00  0.00    +0.055 A 
ATOM     10  C   UNL     1       2.649  -4.148   3.234  0.00  0.00    +0.163 A 
ATOM     11  C   UNL     1       3.248  -5.027   2.337  0.00  0.00    +0.173 A 
ATOM     12  C   UNL     1       2.648  -6.245   2.059  0.00  0.00    +0.063 A 
ATOM     13  C   UNL     1       1.458  -6.586   2.676  0.00  0.00    +0.025 A 
ATOM     14 BR   UNL     1       3.459  -7.443   0.841  0.00  0.00    -0.046 Br
BRANCH  11  15
ATOM     15  O   UNL     1       4.420  -4.691   1.734  0.00  0.00    -0.503 OA
ATOM     16  H   UNL     1       5.207  -4.966   2.224  0.00  0.00    +0.292 HD
ENDBRANCH  11  15
BRANCH  10  17
ATOM     17  O   UNL     1       3.233  -2.952   3.510  0.00  0.00    -0.491 OA
ATOM     18  C   UNL     1       2.621  -2.148   4.521  0.00  0.00    +0.277 C 
ENDBRANCH  10  17
ENDBRANCH   6   8
BRANCH   1  19
ATOM     19  C   UNL     1      -2.004  -5.433   2.180  0.00  0.00    +0.195 C 
ATOM     20  O   UNL     1      -1.798  -5.638   0.998  0.00  0.00    -0.287 OA
BRANCH  19  26
ATOM     21  C   UNL     1      -6.025   0.785   2.121  0.00  0.00    +0.052 C 
ATOM     22  C   UNL     1      -4.749  -0.004   2.420  0.00  0.00    +0.175 C 
ATOM     23  C   UNL     1      -4.449  -1.012   1.285  0.00  0.00    +0.083 C 
ATOM     24  C   UNL     1      -3.885  -2.191   2.054  0.00  0.00    -0.002 A 
ATOM     25  C   UNL     1      -3.176  -3.296   1.654  0.00  0.00    +0.019 A 
ATOM     26  C   UNL     1      -2.766  -4.241   2.600  0.00  0.00    +0.023 A 
ATOM     27  C   UNL     1      -3.086  -4.048   3.948  0.00  0.00    +0.015 A 
ATOM     28  C   UNL     1      -3.800  -2.940   4.337  0.00  0.00    +0.046 A 
ATOM     29  C   UNL     1      -4.212  -1.997   3.393  0.00  0.00    +0.124 A 
ATOM     30  O   UNL     1      -4.931  -0.853   3.565  0.00  0.00    -0.488 OA
ENDBRANCH  19  26
ENDBRANCH   1  19
BRANCH   5  31
ATOM     31  C   UNL     1       0.639  -7.531   6.121  0.00  0.00    +0.137 C 
BRANCH  31  32
ATOM     32  C   UNL     1       1.919  -8.204   5.620  0.00  0.00    +0.175 C 
BRANCH  32  33
ATOM     33  O   UNL     1       2.658  -7.284   4.816  0.00  0.00    -0.393 OA
ATOM     34  H   UNL     1       3.484  -7.644   4.464  0.00  0.00    +0.209 HD
ENDBRANCH  32  33
ENDBRANCH  31  32
ENDBRANCH   5  31
TORSDOF 8
