REMARK  Name = ZINC38557206
REMARK  12 active torsions:
REMARK  status: ('A' for Active; 'I' for Inactive)
REMARK    1  A    between atoms: C_1  and  C_2
REMARK    2  A    between atoms: N_4  and  C_5
REMARK    3  A    between atoms: C_5  and  C_6
REMARK    4  A    between atoms: C_6  and  C_7
REMARK    5  A    between atoms: C_15  and  C_17
REMARK    6  A    between atoms: N_24  and  C_27
REMARK    7  A    between atoms: C_27  and  C_28
REMARK    8  A    between atoms: C_28  and  C_29
REMARK    9  A    between atoms: C_32  and  O_37
REMARK   10  A    between atoms: C_33  and  O_35
REMARK   11  A    between atoms: O_35  and  C_36
REMARK   12  A    between atoms: O_37  and  C_38
REMARK                            x       y       z     vdW  Elec       q    Type
REMARK                         _______ _______ _______ _____ _____    ______ ____
ROOT
ATOM      1  C   UNL     1      -4.590  -4.888  -1.217  0.00  0.00    +0.020 C 
ATOM      2  C   UNL     1      -4.804  -5.897  -2.091  0.00  0.00    +0.099 C 
ATOM      3  C   UNL     1      -5.528  -5.679  -3.363  0.00  0.00    +0.276 C 
ATOM      4  O   UNL     1      -6.000  -4.459  -3.689  0.00  0.00    -0.268 OA
ATOM      5  N   UNL     1      -5.701  -6.708  -4.170  0.00  0.00    -0.123 NA
ATOM      6  C   UNL     1      -5.247  -7.926  -3.875  0.00  0.00    +0.335 C 
ATOM      7  O   UNL     1      -5.448  -8.822  -4.674  0.00  0.00    -0.250 OA
ATOM      8  N   UNL     1      -4.581  -8.221  -2.749  0.00  0.00    -0.220 N 
ATOM      9  C   UNL     1      -4.318  -7.273  -1.824  0.00  0.00    +0.259 C 
ATOM     10  O   UNL     1      -3.709  -7.538  -0.806  0.00  0.00    -0.269 OA
ENDROOT
BRANCH   1  19
ATOM     11  C   UNL     1      -4.472  -5.114   1.246  0.00  0.00    -0.033 C 
ATOM     12  C   UNL     1      -4.007  -4.088   1.993  0.00  0.00    -0.000 A 
ATOM     13  C   UNL     1      -4.362  -3.587   3.326  0.00  0.00    +0.010 A 
ATOM     14  C   UNL     1      -3.705  -2.514   3.821  0.00  0.00    +0.001 A 
ATOM     15  C   UNL     1      -2.694  -1.869   3.094  0.00  0.00    +0.002 A 
ATOM     16  C   UNL     1      -2.312  -2.271   1.863  0.00  0.00    +0.026 A 
ATOM     17  C   UNL     1      -2.936  -3.390   1.246  0.00  0.00    +0.043 A 
ATOM     18  N   UNL     1      -2.748  -3.963   0.082  0.00  0.00    -0.374 N 
ATOM     19  C   UNL     1      -3.674  -5.094  -0.038  0.00  0.00    +0.130 C 
ATOM     20  H   UNL     1      -2.101  -3.687  -0.586  0.00  0.00    +0.161 HD
BRANCH  11  21
ATOM     21  C   UNL     1      -5.562  -6.086   1.620  0.00  0.00    +0.052 C 
BRANCH  21  22
ATOM     22  C   UNL     1      -6.099  -5.740   3.010  0.00  0.00    +0.108 C 
BRANCH  22  26
ATOM     23  C   UNL     1      -8.871  -7.544   4.937  0.00  0.00    +0.109 C 
ATOM     24  C   UNL     1      -7.782  -6.573   4.563  0.00  0.00    +0.210 C 
ATOM     25  O   UNL     1      -7.466  -5.690   5.333  0.00  0.00    -0.276 OA
ATOM     26  N   UNL     1      -7.158  -6.684   3.374  0.00  0.00    -0.315 N 
ATOM     27  H   UNL     1      -7.411  -7.391   2.758  0.00  0.00    +0.149 HD
ENDBRANCH  22  26
ENDBRANCH  21  22
ENDBRANCH  11  21
ENDBRANCH   1  19
BRANCH   8  28
ATOM     28  C   UNL     1      -4.124  -9.594  -2.522  0.00  0.00    +0.123 C 
BRANCH  28  29
ATOM     29  C   UNL     1      -2.718  -9.767  -3.101  0.00  0.00    +0.055 C 
BRANCH  29  30
ATOM     30  C   UNL     1      -2.249 -11.180  -2.868  0.00  0.00    -0.042 A 
ATOM     31  C   UNL     1      -1.566 -11.496  -1.708  0.00  0.00    +0.007 A 
ATOM     32  C   UNL     1      -1.133 -12.791  -1.489  0.00  0.00    +0.049 A 
ATOM     33  C   UNL     1      -1.384 -13.774  -2.433  0.00  0.00    +0.161 A 
ATOM     34  C   UNL     1      -2.071 -13.455  -3.600  0.00  0.00    +0.162 A 
ATOM     35  C   UNL     1      -2.507 -12.157  -3.811  0.00  0.00    +0.053 A 
BRANCH  34  36
ATOM     36  O   UNL     1      -2.320 -14.417  -4.529  0.00  0.00    -0.491 OA
ATOM     37  C   UNL     1      -3.031 -14.017  -5.702  0.00  0.00    +0.277 C 
ENDBRANCH  34  36
BRANCH  33  38
ATOM     38  O   UNL     1      -0.958 -15.048  -2.219  0.00  0.00    -0.491 OA
ATOM     39  C   UNL     1      -0.258 -15.302  -0.999  0.00  0.00    +0.277 C 
ENDBRANCH  33  38
ENDBRANCH  29  30
ENDBRANCH  28  29
ENDBRANCH   8  28
TORSDOF 9
