REMARK  Name = ZINC40166587
REMARK  8 active torsions:
REMARK  status: ('A' for Active; 'I' for Inactive)
REMARK    1  A    between atoms: C_3  and  O_8
REMARK    2  A    between atoms: C_6  and  N_7
REMARK    3  A    between atoms: O_8  and  C_9
REMARK    4  A    between atoms: C_12  and  N_15
REMARK    5  A    between atoms: N_15  and  C_16
REMARK    6  A    between atoms: C_16  and  N_18
REMARK    7  A    between atoms: N_18  and  C_19
REMARK    8  A    between atoms: C_19  and  C_20
REMARK                            x       y       z     vdW  Elec       q    Type
REMARK                         _______ _______ _______ _____ _____    ______ ____
ROOT
ATOM      1  C   UNL     1       4.739   1.452   0.017  0.00  0.00    +0.129 A 
ATOM      2  C   UNL     1       4.869   0.144  -0.428  0.00  0.00    +0.048 A 
ATOM      3  C   UNL     1       6.105  -0.470  -0.416  0.00  0.00    +0.027 A 
ATOM      4  C   UNL     1       7.219   0.221   0.042  0.00  0.00    +0.033 A 
ATOM      5  C   UNL     1       7.089   1.530   0.487  0.00  0.00    +0.027 A 
ATOM      6  C   UNL     1       5.853   2.145   0.469  0.00  0.00    +0.048 A 
ENDROOT
BRANCH   4   7
ATOM      7  N   UNL     1       8.473  -0.403   0.055  0.00  0.00    -0.297 N 
ATOM      8  H   UNL     1       9.044  -0.327   0.836  0.00  0.00    +0.154 HD
BRANCH   7   9
ATOM      9  C   UNL     1       8.887  -1.107  -1.016  0.00  0.00    +0.135 C 
ATOM     10  S   UNL     1       7.838  -1.332  -2.350  0.00  0.00    -0.019 S 
BRANCH   9  11
ATOM     11  N   UNL     1      10.127  -1.635  -1.038  0.00  0.00    -0.326 N 
ATOM     12  H   UNL     1      10.722  -1.507  -0.282  0.00  0.00    +0.148 HD
BRANCH  11  13
ATOM     13  C   UNL     1      10.577  -2.401  -2.203  0.00  0.00    +0.108 C 
BRANCH  13  14
ATOM     14  C   UNL     1      12.011  -2.884  -1.973  0.00  0.00    +0.029 C 
ATOM     15  C   UNL     1      12.030  -3.886  -0.807  0.00  0.00    +0.029 C 
ATOM     16  C   UNL     1      13.417  -4.591  -0.798  0.00  0.00    +0.166 C 
ATOM     17  S   UNL     1      13.678  -4.846  -2.604  0.00  0.00    -0.031 S 
ATOM     18  O   UNL     1      15.013  -4.491  -2.933  0.00  0.00    -0.174 OA
ATOM     19  O   UNL     1      13.187  -6.130  -2.965  0.00  0.00    -0.174 OA
ATOM     20  C   UNL     1      12.537  -3.563  -3.261  0.00  0.00    +0.171 C 
ENDBRANCH  13  14
ENDBRANCH  11  13
ENDBRANCH   9  11
ENDBRANCH   7   9
ENDBRANCH   4   7
BRANCH   1  21
ATOM     21  O   UNL     1       3.522   2.057   0.004  0.00  0.00    -0.456 OA
BRANCH  21  24
ATOM     22  C   UNL     1       2.097   0.495   2.965  0.00  0.00    +0.026 A 
ATOM     23  C   UNL     1       2.983   0.801   1.951  0.00  0.00    +0.048 A 
ATOM     24  C   UNL     1       2.649   1.756   1.002  0.00  0.00    +0.129 A 
ATOM     25  C   UNL     1       1.425   2.406   1.072  0.00  0.00    +0.048 A 
ATOM     26  C   UNL     1       0.538   2.101   2.086  0.00  0.00    +0.026 A 
ATOM     27  C   UNL     1       0.872   1.145   3.035  0.00  0.00    +0.025 A 
BRANCH  27  28
ATOM     28  N   UNL     1      -0.026   0.835   4.063  0.00  0.00    -0.358 N 
ATOM     29  H   UNL     1       0.207   0.167   4.726  0.00  0.00    +0.142 HD
ATOM     30  H   UNL     1      -0.882   1.289   4.112  0.00  0.00    +0.142 HD
ENDBRANCH  27  28
ENDBRANCH  21  24
ENDBRANCH   1  21
TORSDOF 8
