REMARK  Name = ZINC39858693
REMARK  6 active torsions:
REMARK  status: ('A' for Active; 'I' for Inactive)
REMARK    1  A    between atoms: C_8  and  O_27
REMARK    2  A    between atoms: C_9  and  C_12
REMARK    3  A    between atoms: C_13  and  C_14
REMARK    4  A    between atoms: C_13  and  C_16
REMARK    5  A    between atoms: N_18  and  C_19
REMARK    6  A    between atoms: O_27  and  C_28
REMARK                            x       y       z     vdW  Elec       q    Type
REMARK                         _______ _______ _______ _____ _____    ______ ____
ROOT
ATOM      1  C   UNL     1      -0.374   0.725   0.281  0.00  0.00    +0.005 A 
ATOM      2  C   UNL     1       0.786   1.397   0.684  0.00  0.00    +0.018 A 
ATOM      3  C   UNL     1       1.984   0.771   0.635  0.00  0.00    +0.096 A 
ATOM      4  N   UNL     1       2.081  -0.515   0.196  0.00  0.00    -0.268 N 
ATOM      5  C   UNL     1       0.967  -1.198  -0.202  0.00  0.00    +0.144 A 
ATOM      6  C   UNL     1      -0.287  -0.564  -0.159  0.00  0.00    +0.047 A 
ATOM      7  N   UNL     1       1.041  -2.459  -0.634  0.00  0.00    -0.194 NA
ATOM      8  C   UNL     1       2.192  -3.106  -0.697  0.00  0.00    +0.235 A 
ATOM      9  C   UNL     1       3.384  -2.451  -0.298  0.00  0.00    +0.103 A 
ATOM     10  C   UNL     1       3.293  -1.111   0.160  0.00  0.00    +0.269 A 
ATOM     11  O   UNL     1       4.291  -0.508   0.514  0.00  0.00    -0.266 OA
ENDROOT
BRANCH   9  12
ATOM     12  C   UNL     1       4.623  -3.113  -0.354  0.00  0.00    +0.042 C 
ATOM     13  C   UNL     1       5.613  -2.661  -1.215  0.00  0.00    +0.114 C 
BRANCH  13  14
ATOM     14  C   UNL     1       5.316  -1.600  -2.182  0.00  0.00    +0.259 C 
ATOM     15  O   UNL     1       4.173  -1.202  -2.317  0.00  0.00    -0.269 OA
ATOM     16  N   UNL     1       6.307  -1.064  -2.921  0.00  0.00    -0.280 N 
ATOM     17  H   UNL     1       7.202  -1.435  -2.874  0.00  0.00    +0.155 HD
BRANCH  16  18
ATOM     18  C   UNL     1       6.045   0.028  -3.756  0.00  0.00    +0.054 A 
ATOM     19  C   UNL     1       4.913   0.805  -3.551  0.00  0.00    +0.025 A 
ATOM     20  C   UNL     1       4.657   1.882  -4.377  0.00  0.00    +0.003 A 
ATOM     21  C   UNL     1       5.526   2.188  -5.408  0.00  0.00    +0.021 A 
ATOM     22  C   UNL     1       6.656   1.416  -5.616  0.00  0.00    +0.061 A 
ATOM     23  C   UNL     1       6.921   0.340  -4.789  0.00  0.00    +0.080 A 
ATOM     24 CL   UNL     1       8.342  -0.624  -5.044  0.00  0.00    -0.080 Cl
ATOM     25 CL   UNL     1       7.745   1.804  -6.911  0.00  0.00    -0.082 Cl
ENDBRANCH  16  18
ENDBRANCH  13  14
BRANCH  13  26
ATOM     26  C   UNL     1       6.926  -3.232  -1.160  0.00  0.00    +0.104 C 
ATOM     27  N   UNL     1       7.966  -3.685  -1.117  0.00  0.00    -0.191 NA
ENDBRANCH  13  26
ENDBRANCH   9  12
BRANCH   8  28
ATOM     28  O   UNL     1       2.232  -4.382  -1.138  0.00  0.00    -0.437 OA
BRANCH  28  29
ATOM     29  C   UNL     1       1.052  -5.000  -1.412  0.00  0.00    +0.131 A 
ATOM     30  C   UNL     1       0.365  -4.699  -2.579  0.00  0.00    +0.049 A 
ATOM     31  C   UNL     1      -0.833  -5.328  -2.856  0.00  0.00    +0.042 A 
ATOM     32  C   UNL     1      -1.348  -6.258  -1.970  0.00  0.00    +0.124 A 
ATOM     33  C   UNL     1      -0.664  -6.559  -0.804  0.00  0.00    +0.042 A 
ATOM     34  C   UNL     1       0.537  -5.936  -0.527  0.00  0.00    +0.049 A 
ATOM     35  F   UNL     1      -2.521  -6.872  -2.242  0.00  0.00    -0.205 F 
ENDBRANCH  28  29
ENDBRANCH   8  28
TORSDOF 6
