REMARK  Name = ZINC18250508
REMARK  5 active torsions:
REMARK  status: ('A' for Active; 'I' for Inactive)
REMARK    1  A    between atoms: C_1  and  C_2
REMARK    2  A    between atoms: C_5  and  N_9
REMARK    3  A    between atoms: C_13  and  N_17
REMARK    4  A    between atoms: C_20  and  C_23
REMARK    5  A    between atoms: C_20  and  N_26
REMARK                            x       y       z     vdW  Elec       q    Type
REMARK                         _______ _______ _______ _____ _____    ______ ____
ROOT
ATOM      1  N   UNL     1      -1.086  -7.092   1.276  0.00  0.00    -0.291 NA
ATOM      2  C   UNL     1      -1.042  -8.500   0.862  0.00  0.00    +0.084 C 
ATOM      3  C   UNL     1      -2.282  -9.227   1.386  0.00  0.00    +0.013 C 
ATOM      4  C   UNL     1      -2.319  -9.126   2.914  0.00  0.00    +0.015 C 
ATOM      5  C   UNL     1      -2.316  -7.649   3.320  0.00  0.00    +0.013 C 
ATOM      6  C   UNL     1      -1.075  -6.968   2.739  0.00  0.00    +0.084 C 
ENDROOT
BRANCH   1  11
ATOM      7  N   UNL     1      -0.278  -4.231  -0.282  0.00  0.00    -0.209 N 
ATOM      8  C   UNL     1      -0.199  -5.046  -1.341  0.00  0.00    +0.228 C 
ATOM      9  O   UNL     1      -0.272  -4.699  -2.500  0.00  0.00    -0.275 OA
ATOM     10  C   UNL     1      -0.003  -6.468  -0.861  0.00  0.00    +0.125 C 
ATOM     11  C   UNL     1       0.018  -6.331   0.675  0.00  0.00    +0.153 C 
ATOM     12  C   UNL     1      -0.163  -4.846   0.902  0.00  0.00    +0.244 C 
ATOM     13  O   UNL     1      -0.201  -4.301   1.984  0.00  0.00    -0.273 OA
BRANCH   7  18
ATOM     14  C   UNL     1      -1.012   1.377  -0.769  0.00  0.00    +0.045 C 
ATOM     15  C   UNL     1      -0.817  -0.112  -0.640  0.00  0.00    -0.032 A 
ATOM     16  C   UNL     1       0.341  -0.610  -0.071  0.00  0.00    +0.006 A 
ATOM     17  C   UNL     1       0.522  -1.973   0.049  0.00  0.00    +0.024 A 
ATOM     18  C   UNL     1      -0.460  -2.846  -0.402  0.00  0.00    +0.045 A 
ATOM     19  C   UNL     1      -1.621  -2.344  -0.972  0.00  0.00    +0.044 A 
ATOM     20  C   UNL     1      -1.800  -0.978  -1.085  0.00  0.00    +0.046 A 
ATOM     21 CL   UNL     1      -3.255  -0.349  -1.792  0.00  0.00    -0.083 Cl
ENDBRANCH   7  18
ENDBRANCH   1  11
BRANCH   4  22
ATOM     22  N   UNL     1      -3.538  -9.771   3.419  0.00  0.00    +0.389 N 
ATOM     23  C   UNL     1      -4.715  -9.053   2.915  0.00  0.00    -0.077 C 
ATOM     24  C   UNL     1      -5.988  -9.768   3.372  0.00  0.00    -0.019 C 
ATOM     25  C   UNL     1      -6.027  -9.804   4.902  0.00  0.00    -0.004 C 
ATOM     26  C   UNL     1      -4.758 -10.490   5.419  0.00  0.00    -0.019 C 
ATOM     27  C   UNL     1      -3.531  -9.748   4.886  0.00  0.00    -0.077 C 
ATOM     28  H   UNL     1      -3.569 -10.728   3.099  0.00  0.00    -0.080 HD
ENDBRANCH   4  22
BRANCH   4  29
ATOM     29  C   UNL     1      -1.108  -9.810   3.494  0.00  0.00    +0.200 C 
ATOM     30  O   UNL     1      -0.144  -9.155   3.829  0.00  0.00    -0.278 OA
ATOM     31  N   UNL     1      -1.097 -11.150   3.639  0.00  0.00    -0.330 N 
ATOM     32  H   UNL     1      -1.893 -11.666   3.441  0.00  0.00    +0.145 HD
ATOM     33  H   UNL     1      -0.291 -11.598   3.941  0.00  0.00    +0.145 HD
ENDBRANCH   4  29
TORSDOF 4
