REMARK  Name = ZINC14459333
REMARK  7 active torsions:
REMARK  status: ('A' for Active; 'I' for Inactive)
REMARK    1  A    between atoms: C_1  and  O_2
REMARK    2  A    between atoms: O_2  and  C_3
REMARK    3  A    between atoms: C_5  and  C_10
REMARK    4  A    between atoms: C_8  and  O_9
REMARK    5  A    between atoms: C_23  and  O_26
REMARK    6  A    between atoms: O_26  and  C_27
REMARK    7  A    between atoms: C_27  and  C_28
REMARK                            x       y       z     vdW  Elec       q    Type
REMARK                         _______ _______ _______ _____ _____    ______ ____
ROOT
ATOM      1  C   UNL     1      -1.333   2.112   0.020  0.00  0.00    +0.105 C 
ATOM      2  C   UNL     1      -1.907   2.149  -1.398  0.00  0.00    +0.029 C 
ATOM      3  C   UNL     1      -0.993   3.066  -2.259  0.00  0.00    +0.033 C 
ATOM      4  C   UNL     1      -1.487   4.463  -1.939  0.00  0.00    -0.030 C 
ATOM      5  C   UNL     1      -2.707   4.421  -1.466  0.00  0.00    -0.023 C 
ATOM      6  C   UNL     1      -3.199   2.994  -1.393  0.00  0.00    +0.049 C 
ATOM      7  C   UNL     1      -3.998   2.774  -0.143  0.00  0.00    -0.016 A 
ATOM      8  C   UNL     1      -5.261   3.351  -0.067  0.00  0.00    +0.006 A 
ATOM      9  C   UNL     1      -6.041   3.194   1.060  0.00  0.00    +0.004 A 
ATOM     10  C   UNL     1      -5.571   2.456   2.131  0.00  0.00    +0.047 A 
ATOM     11  C   UNL     1      -4.318   1.875   2.066  0.00  0.00    +0.142 A 
ATOM     12  C   UNL     1      -3.527   2.032   0.923  0.00  0.00    +0.074 A 
ATOM     13  N   UNL     1      -2.270   1.422   0.907  0.00  0.00    -0.334 N 
ATOM     14  H   UNL     1      -2.345   0.445   0.664  0.00  0.00    +0.147 HD
ENDROOT
BRANCH   1  17
ATOM     15  C   UNL     1       2.380   1.415  -0.013  0.00  0.00    +0.162 A 
ATOM     16  C   UNL     1       1.169   2.089   0.002  0.00  0.00    +0.054 A 
ATOM     17  C   UNL     1      -0.017   1.378   0.010  0.00  0.00    -0.023 A 
ATOM     18  C   UNL     1       0.002  -0.004   0.002  0.00  0.00    +0.009 A 
ATOM     19  C   UNL     1       1.207  -0.682  -0.014  0.00  0.00    +0.049 A 
ATOM     20  C   UNL     1       2.399   0.024  -0.021  0.00  0.00    +0.158 A 
BRANCH  15  22
ATOM     21  C   UNL     1       3.452   3.539  -0.011  0.00  0.00    +0.277 C 
ATOM     22  O   UNL     1       3.548   2.113  -0.020  0.00  0.00    -0.491 OA
ENDBRANCH  15  22
BRANCH  20  23
ATOM     23  O   UNL     1       3.585  -0.641  -0.037  0.00  0.00    -0.503 OA
ATOM     24  H   UNL     1       3.919  -0.828  -0.925  0.00  0.00    +0.292 HD
ENDBRANCH  20  23
ENDBRANCH   1  17
BRANCH  11  25
ATOM     25  O   UNL     1      -3.853   1.148   3.117  0.00  0.00    -0.486 OA
BRANCH  25  26
ATOM     26  C   UNL     1      -4.712   1.028   4.253  0.00  0.00    +0.264 C 
BRANCH  26  27
ATOM     27  C   UNL     1      -4.034   0.194   5.309  0.00  0.00    -0.010 A 
ATOM     28  C   UNL     1      -4.211  -1.177   5.326  0.00  0.00    +0.007 A 
ATOM     29  C   UNL     1      -3.585  -1.943   6.292  0.00  0.00    +0.000 A 
ATOM     30  C   UNL     1      -2.790  -1.336   7.247  0.00  0.00    +0.000 A 
ATOM     31  C   UNL     1      -2.617   0.035   7.233  0.00  0.00    +0.000 A 
ATOM     32  C   UNL     1      -3.240   0.800   6.264  0.00  0.00    +0.007 A 
ENDBRANCH  26  27
ENDBRANCH  25  26
ENDBRANCH  11  25
TORSDOF 6
