REMARK  Name = ZINC15906455
REMARK  4 active torsions:
REMARK  status: ('A' for Active; 'I' for Inactive)
REMARK    1  A    between atoms: C_3  and  N_11
REMARK    2  A    between atoms: C_4  and  O_10
REMARK    3  A    between atoms: C_6  and  N_7
REMARK    4  A    between atoms: C_12  and  C_14
REMARK                            x       y       z     vdW  Elec       q    Type
REMARK                         _______ _______ _______ _____ _____    ______ ____
ROOT
ATOM      1  N   UNL     1      -2.427   1.039   0.019  0.00  0.00    -0.276 N 
ATOM      2  C   UNL     1      -2.414  -0.304  -0.090  0.00  0.00    +0.284 C 
ATOM      3  O   UNL     1      -1.355  -0.904  -0.098  0.00  0.00    -0.266 OA
ATOM      4  H   UNL     1      -3.271   1.511   0.091  0.00  0.00    +0.155 HD
ENDROOT
BRANCH   2   5
ATOM      5  C   UNL     1      -3.679  -1.045  -0.199  0.00  0.00    +0.191 A 
ATOM      6  C   UNL     1      -3.787  -2.394  -0.313  0.00  0.00    +0.063 A 
ATOM      7  C   UNL     1      -5.219  -2.681  -0.391  0.00  0.00    +0.023 A 
ATOM      8  C   UNL     1      -5.972  -3.851  -0.516  0.00  0.00    +0.027 A 
ATOM      9  C   UNL     1      -7.337  -3.776  -0.563  0.00  0.00    +0.020 A 
ATOM     10  C   UNL     1      -7.977  -2.546  -0.486  0.00  0.00    +0.034 A 
ATOM     11  C   UNL     1      -7.251  -1.381  -0.363  0.00  0.00    +0.062 A 
ATOM     12  C   UNL     1      -5.862  -1.432  -0.314  0.00  0.00    +0.150 A 
ATOM     13  O   UNL     1      -4.908  -0.488  -0.194  0.00  0.00    -0.449 OA
ATOM     14 BR   UNL     1      -8.143   0.284  -0.262  0.00  0.00    -0.046 Br
ATOM     15 BR   UNL     1      -8.358  -5.359  -0.732  0.00  0.00    -0.050 Br
ENDBRANCH   2   5
BRANCH   1  18
ATOM     16  C   UNL     1       1.094   1.910   0.628  0.00  0.00    +0.035 A 
ATOM     17  C   UNL     1      -0.095   1.206   0.625  0.00  0.00    +0.029 A 
ATOM     18  C   UNL     1      -1.222   1.752   0.029  0.00  0.00    +0.076 A 
ATOM     19  C   UNL     1      -1.154   3.015  -0.556  0.00  0.00    +0.140 A 
ATOM     20  C   UNL     1       0.042   3.714  -0.549  0.00  0.00    +0.080 A 
ATOM     21  C   UNL     1       1.163   3.161   0.043  0.00  0.00    +0.130 A 
BRANCH  21  22
ATOM     22  N   UNL     1       2.440   3.909   0.049  0.00  0.00    +0.057 N 
ATOM     23  O   UNL     1       3.428   3.423   0.569  0.00  0.00    -0.126 OA
ATOM     24  O   UNL     1       2.502   5.011  -0.466  0.00  0.00    -0.126 OA
ENDBRANCH  21  22
BRANCH  19  25
ATOM     25  O   UNL     1      -2.257   3.558  -1.137  0.00  0.00    -0.505 OA
ATOM     26  H   UNL     1      -2.353   3.343  -2.075  0.00  0.00    +0.292 HD
ENDBRANCH  19  25
ENDBRANCH   1  18
TORSDOF 4
