REMARK  Name = ZINC05937769
REMARK  4 active torsions:
REMARK  status: ('A' for Active; 'I' for Inactive)
REMARK    1  A    between atoms: C_1  and  C_2
REMARK    2  A    between atoms: C_8  and  C_12
REMARK    3  A    between atoms: N_14  and  C_15
REMARK    4  A    between atoms: C_15  and  C_16
REMARK                            x       y       z     vdW  Elec       q    Type
REMARK                         _______ _______ _______ _____ _____    ______ ____
ROOT
ATOM      1  C   UNL     1      -1.338   4.144   2.297  0.00  0.00    +0.234 C 
ATOM      2  O   UNL     1      -1.846   3.526   3.208  0.00  0.00    -0.274 OA
ATOM      3  N   UNL     1      -0.755   3.484   1.277  0.00  0.00    -0.313 N 
ATOM      4  H   UNL     1      -0.348   3.979   0.548  0.00  0.00    +0.149 HD
ENDROOT
BRANCH   1  12
ATOM      5  C   UNL     1      -3.039   8.350   2.843  0.00  0.00    +0.044 C 
ATOM      6  C   UNL     1      -1.932   7.621   3.607  0.00  0.00    +0.082 C 
ATOM      7  C   UNL     1      -1.948   7.924   5.115  0.00  0.00    +0.046 C 
ATOM      8  C   UNL     1      -2.854   6.781   5.636  0.00  0.00    +0.099 C 
ATOM      9  C   UNL     1      -2.702   5.683   4.607  0.00  0.00    +0.217 C 
ATOM     10  O   UNL     1      -3.115   4.550   4.739  0.00  0.00    -0.276 OA
ATOM     11  N   UNL     1      -2.041   6.139   3.523  0.00  0.00    -0.275 N 
ATOM     12  C   UNL     1      -1.358   5.651   2.306  0.00  0.00    +0.173 C 
ATOM     13  C   UNL     1       0.103   6.203   2.340  0.00  0.00    +0.103 C 
ATOM     14  S   UNL     1      -0.252   7.920   2.925  0.00  0.00    -0.133 S 
ENDBRANCH   1  12
BRANCH   3  15
ATOM     15  C   UNL     1      -0.735   2.019   1.269  0.00  0.00    +0.111 C 
BRANCH  15  16
ATOM     16  C   UNL     1      -0.019   1.526   0.010  0.00  0.00    -0.013 C 
ATOM     17  C   UNL     1       1.417   2.055  -0.000  0.00  0.00    +0.012 C 
ATOM     18  C   UNL     1       2.133   1.562  -1.259  0.00  0.00    -0.010 C 
ATOM     19  C   UNL     1       2.154   0.032  -1.268  0.00  0.00    +0.007 C 
ATOM     20  C   UNL     1       0.718  -0.497  -1.257  0.00  0.00    -0.010 C 
ATOM     21  C   UNL     1       0.002  -0.004   0.002  0.00  0.00    +0.012 C 
ATOM     22  C   UNL     1      -0.022   0.009  -2.496  0.00  0.00    +0.007 C 
ATOM     23  C   UNL     1      -0.043   1.539  -2.488  0.00  0.00    -0.010 C 
ATOM     24  C   UNL     1       1.393   2.069  -2.499  0.00  0.00    +0.007 C 
ATOM     25  C   UNL     1      -0.759   2.033  -1.229  0.00  0.00    +0.012 C 
ENDBRANCH  15  16
ENDBRANCH   3  15
TORSDOF 3
