REMARK  Name = ZINC28541700
REMARK  8 active torsions:
REMARK  status: ('A' for Active; 'I' for Inactive)
REMARK    1  A    between atoms: C_1  and  C_2
REMARK    2  A    between atoms: C_2  and  C_4
REMARK    3  A    between atoms: C_4  and  O_6
REMARK    4  A    between atoms: O_6  and  C_7
REMARK    5  A    between atoms: C_15  and  O_32
REMARK    6  A    between atoms: C_17  and  C_29
REMARK    7  A    between atoms: C_17  and  O_31
REMARK    8  A    between atoms: C_29  and  O_30
REMARK                            x       y       z     vdW  Elec       q    Type
REMARK                         _______ _______ _______ _____ _____    ______ ____
ROOT
ATOM      1  C   UNL     1       0.677   0.338  -2.718  0.00  0.00    +0.192 C 
ATOM      2  C   UNL     1      -0.616  -0.408  -3.058  0.00  0.00    +0.075 C 
ATOM      3  C   UNL     1      -1.726   0.595  -2.837  0.00  0.00    -0.069 C 
ATOM      4  C   UNL     1      -2.310   0.663  -1.667  0.00  0.00    +0.008 C 
ATOM      5  C   UNL     1      -2.167   1.510  -3.934  0.00  0.00    +0.027 C 
ATOM      6  C   UNL     1      -2.662   0.807  -5.202  0.00  0.00    +0.042 C 
ATOM      7  C   UNL     1      -2.571   1.924  -6.271  0.00  0.00    +0.149 C 
ATOM      8  C   UNL     1      -1.513   2.927  -5.772  0.00  0.00    +0.121 C 
ATOM      9  C   UNL     1      -0.916   2.325  -4.458  0.00  0.00    +0.074 C 
ATOM     10  C   UNL     1       0.052   1.261  -4.925  0.00  0.00    +0.194 C 
ATOM     11  C   UNL     1       1.237   0.960  -3.972  0.00  0.00    +0.107 C 
ATOM     12  C   UNL     1       2.055   0.054  -4.861  0.00  0.00    +0.040 C 
ATOM     13  C   UNL     1       2.938  -0.873  -4.496  0.00  0.00    +0.020 C 
ATOM     14  C   UNL     1       1.645   0.436  -6.239  0.00  0.00    +0.335 C 
ATOM     15  O   UNL     1       2.084  -0.052  -7.261  0.00  0.00    -0.245 OA
ATOM     16  O   UNL     1       0.711   1.431  -6.170  0.00  0.00    -0.457 OA
ENDROOT
BRANCH   8  17
ATOM     17  O   UNL     1      -2.126   4.184  -5.477  0.00  0.00    -0.383 OA
ATOM     18  H   UNL     1      -2.546   4.605  -6.239  0.00  0.00    +0.210 HD
ENDBRANCH   8  17
BRANCH   7  19
ATOM     19  O   UNL     1      -2.169   1.369  -7.525  0.00  0.00    -0.389 OA
ATOM     20  H   UNL     1      -2.785   0.714  -7.882  0.00  0.00    +0.210 HD
ENDBRANCH   7  19
BRANCH   1  21
ATOM     21  O   UNL     1       0.401   1.361  -1.760  0.00  0.00    -0.457 OA
BRANCH  21  22
ATOM     22  C   UNL     1       0.497   1.023  -0.458  0.00  0.00    +0.335 C 
ATOM     23  O   UNL     1       0.808  -0.109  -0.146  0.00  0.00    -0.245 OA
BRANCH  22  25
ATOM     24  C   UNL     1      -0.158   3.429   0.195  0.00  0.00    +0.050 C 
ATOM     25  C   UNL     1       0.227   2.025   0.583  0.00  0.00    +0.026 C 
ATOM     26  C   UNL     1       0.322   1.691   1.868  0.00  0.00    +0.019 C 
ENDBRANCH  22  25
ENDBRANCH  21  22
ENDBRANCH   1  21
BRANCH   8  27
ATOM     27  C   UNL     1      -0.419   3.108  -6.827  0.00  0.00    +0.193 C 
BRANCH  27  28
ATOM     28  O   UNL     1       0.762   3.617  -6.206  0.00  0.00    -0.392 OA
ATOM     29  H   UNL     1       1.499   3.757  -6.817  0.00  0.00    +0.210 HD
ENDBRANCH  27  28
ENDBRANCH   8  27
TORSDOF 7
