REMARK  Name = ZINC57036442
REMARK  9 active torsions:
REMARK  status: ('A' for Active; 'I' for Inactive)
REMARK    1  A    between atoms: C_1  and  C_2
REMARK    2  A    between atoms: C_10  and  C_11
REMARK    3  A    between atoms: C_11  and  C_13
REMARK    4  A    between atoms: C_11  and  N_14
REMARK    5  A    between atoms: C_15  and  C_17
REMARK    6  A    between atoms: C_17  and  N_18
REMARK    7  A    between atoms: N_18  and  S_19
REMARK    8  A    between atoms: S_19  and  C_22
REMARK    9  A    between atoms: N_25  and  C_27
REMARK                            x       y       z     vdW  Elec       q    Type
REMARK                         _______ _______ _______ _____ _____    ______ ____
ROOT
ATOM      1  N   UNL     1       1.025  -1.119   3.258  0.00  0.00    -0.305 N 
ATOM      2  C   UNL     1       1.577  -0.595   4.370  0.00  0.00    +0.229 C 
ATOM      3  O   UNL     1       1.251   0.511   4.746  0.00  0.00    -0.274 OA
ATOM      4  H   UNL     1       1.286  -2.003   2.958  0.00  0.00    +0.149 HD
ENDROOT
BRANCH   1   5
ATOM      5  C   UNL     1       0.030  -0.352   2.503  0.00  0.00    +0.136 C 
ATOM      6  C   UNL     1      -1.354  -0.570   3.116  0.00  0.00    +0.036 C 
BRANCH   5  16
ATOM      7  C   UNL     1      -0.018   1.503   0.010  0.00  0.00    +0.048 C 
ATOM      8  C   UNL     1       0.002  -0.004   0.002  0.00  0.00    +0.000 A 
ATOM      9  C   UNL     1       0.009  -0.879  -1.177  0.00  0.00    +0.023 A 
ATOM     10  C   UNL     1       0.000  -0.660  -2.553  0.00  0.00    +0.012 A 
ATOM     11  C   UNL     1       0.011  -1.726  -3.409  0.00  0.00    +0.001 A 
ATOM     12  C   UNL     1       0.031  -3.023  -2.916  0.00  0.00    +0.004 A 
ATOM     13  C   UNL     1       0.040  -3.259  -1.558  0.00  0.00    +0.047 A 
ATOM     14  C   UNL     1       0.029  -2.190  -0.671  0.00  0.00    +0.136 A 
ATOM     15  O   UNL     1       0.033  -2.100   0.674  0.00  0.00    -0.458 OA
ATOM     16  C   UNL     1       0.023  -0.814   1.069  0.00  0.00    +0.129 A 
ENDBRANCH   5  16
ENDBRANCH   1   5
BRANCH   2  17
ATOM     17  C   UNL     1       2.600  -1.383   5.147  0.00  0.00    +0.201 C 
BRANCH  17  18
ATOM     18  N   UNL     1       3.044  -0.601   6.304  0.00  0.00    -0.181 NA
ATOM     19  H   UNL     1       2.852   0.348   6.350  0.00  0.00    +0.149 HD
BRANCH  18  20
ATOM     20  S   UNL     1       3.872  -1.339   7.533  0.00  0.00    +0.062 S 
ATOM     21  O   UNL     1       4.182  -0.326   8.480  0.00  0.00    -0.153 OA
ATOM     22  O   UNL     1       3.136  -2.504   7.878  0.00  0.00    -0.153 OA
BRANCH  20  23
ATOM     23  C   UNL     1       5.407  -1.892   6.868  0.00  0.00    +0.142 A 
ATOM     24  C   UNL     1       5.648  -3.138   6.279  0.00  0.00    +0.162 A 
ATOM     25  N   UNL     1       6.902  -3.179   5.907  0.00  0.00    -0.178 NA
ATOM     26  N   UNL     1       7.500  -1.959   6.249  0.00  0.00    -0.273 N 
ATOM     27  C   UNL     1       6.561  -1.185   6.832  0.00  0.00    +0.136 A 
ATOM     28  C   UNL     1       8.896  -1.587   6.010  0.00  0.00    +0.172 C 
ENDBRANCH  20  23
ENDBRANCH  18  20
ENDBRANCH  17  18
ENDBRANCH   2  17
TORSDOF 6
