REMARK  Name = ZINC56556967
REMARK  7 active torsions:
REMARK  status: ('A' for Active; 'I' for Inactive)
REMARK    1  A    between atoms: C_1  and  C_2
REMARK    2  A    between atoms: C_2  and  C_4
REMARK    3  A    between atoms: C_2  and  N_12
REMARK    4  A    between atoms: N_15  and  C_16
REMARK    5  A    between atoms: C_19  and  O_22
REMARK    6  A    between atoms: O_22  and  C_23
REMARK    7  A    between atoms: C_23  and  C_24
REMARK                            x       y       z     vdW  Elec       q    Type
REMARK                         _______ _______ _______ _____ _____    ______ ____
ROOT
ATOM      1  N   UNL     1       0.710  -0.495   1.187  0.00  0.00    -0.293 N 
ATOM      2  C   UNL     1       0.052  -0.632   2.356  0.00  0.00    +0.304 C 
ATOM      3  O   UNL     1      -1.129  -0.351   2.425  0.00  0.00    -0.252 OA
ATOM      4  N   UNL     1       0.703  -1.080   3.447  0.00  0.00    -0.269 N 
ATOM      5  H   UNL     1       1.652  -0.719   1.132  0.00  0.00    +0.151 HD
ATOM      6  H   UNL     1       1.627  -1.367   3.377  0.00  0.00    +0.156 HD
ENDROOT
BRANCH   4   7
ATOM      7  C   UNL     1       0.046  -1.131   4.684  0.00  0.00    +0.035 A 
ATOM      8  C   UNL     1       0.745  -0.864   5.854  0.00  0.00    +0.027 A 
ATOM      9  C   UNL     1       0.096  -0.913   7.072  0.00  0.00    +0.047 A 
ATOM     10  C   UNL     1      -1.253  -1.230   7.127  0.00  0.00    +0.122 A 
ATOM     11  C   UNL     1      -1.952  -1.497   5.959  0.00  0.00    +0.047 A 
ATOM     12  C   UNL     1      -1.306  -1.442   4.740  0.00  0.00    +0.027 A 
BRANCH  10  13
ATOM     13  O   UNL     1      -1.891  -1.278   8.327  0.00  0.00    -0.477 OA
BRANCH  13  14
ATOM     14  C   UNL     1      -3.281  -1.610   8.310  0.00  0.00    +0.346 C 
BRANCH  14  15
ATOM     15  C   UNL     1      -3.801  -1.616   9.687  0.00  0.00    +0.104 C 
ATOM     16  N   UNL     1      -4.202  -1.620  10.750  0.00  0.00    -0.193 NA
ENDBRANCH  14  15
ENDBRANCH  13  14
ENDBRANCH  10  13
ENDBRANCH   4   7
BRANCH   1  18
ATOM     17  C   UNL     1      -0.009   1.522   0.006  0.00  0.00    +0.033 C 
ATOM     18  C   UNL     1       0.002  -0.008   0.001  0.00  0.00    +0.102 C 
BRANCH  18  19
ATOM     19  C   UNL     1       0.701  -0.502  -1.239  0.00  0.00    -0.026 A 
ATOM     20  C   UNL     1       2.082  -0.532  -1.288  0.00  0.00    +0.008 A 
ATOM     21  C   UNL     1       2.725  -0.985  -2.424  0.00  0.00    +0.040 A 
ATOM     22  C   UNL     1       1.986  -1.409  -3.515  0.00  0.00    +0.142 A 
ATOM     23  C   UNL     1       0.602  -1.378  -3.466  0.00  0.00    +0.076 A 
ATOM     24  C   UNL     1      -0.039  -0.929  -2.325  0.00  0.00    +0.028 A 
ATOM     25 CL   UNL     1      -0.328  -1.910  -4.832  0.00  0.00    -0.081 Cl
ATOM     26  F   UNL     1       2.614  -1.851  -4.626  0.00  0.00    -0.204 F 
ENDBRANCH  18  19
ENDBRANCH   1  18
TORSDOF 6
