REMARK  Name = ZINC27931070
REMARK  6 active torsions:
REMARK  status: ('A' for Active; 'I' for Inactive)
REMARK    1  A    between atoms: C_1  and  C_2
REMARK    2  A    between atoms: C_3  and  C_22
REMARK    3  A    between atoms: C_5  and  N_10
REMARK    4  A    between atoms: C_6  and  C_7
REMARK    5  A    between atoms: N_10  and  S_11
REMARK    6  A    between atoms: S_11  and  C_14
REMARK                            x       y       z     vdW  Elec       q    Type
REMARK                         _______ _______ _______ _____ _____    ______ ____
ROOT
ATOM      1  C   UNL     1       5.389  -0.428   3.730  0.00  0.00    +0.045 C 
ATOM      2  C   UNL     1       4.785   0.324   2.572  0.00  0.00    -0.026 A 
ATOM      3  C   UNL     1       4.582  -0.267   1.382  0.00  0.00    -0.008 A 
ATOM      4  S   UNL     1       3.861   1.029   0.397  0.00  0.00    -0.075 S 
ATOM      5  C   UNL     1       3.852   2.308   1.564  0.00  0.00    +0.124 A 
ATOM      6  C   UNL     1       4.399   1.711   2.695  0.00  0.00    +0.071 A 
ATOM      7  C   UNL     1       4.888  -1.687   0.980  0.00  0.00    +0.052 C 
ENDROOT
BRANCH   6   8
ATOM      8  C   UNL     1       4.576   2.450   3.946  0.00  0.00    +0.244 C 
ATOM      9  O   UNL     1       3.686   2.463   4.777  0.00  0.00    -0.270 OA
ATOM     10  N   UNL     1       5.724   3.118   4.178  0.00  0.00    -0.325 N 
ATOM     11  H   UNL     1       5.857   3.673   5.118  0.00  0.00    +0.145 HD
ATOM     12  H   UNL     1       6.528   3.107   3.427  0.00  0.00    +0.145 HD
ENDBRANCH   6   8
BRANCH   5  13
ATOM     13  N   UNL     1       3.404   3.607   1.410  0.00  0.00    -0.090 NA
BRANCH  13  14
ATOM     14  S   UNL     1       2.678   4.071  -0.004  0.00  0.00    +0.094 S 
ATOM     15  O   UNL     1       2.374   5.452   0.130  0.00  0.00    -0.148 OA
ATOM     16  O   UNL     1       1.684   3.096  -0.288  0.00  0.00    -0.148 OA
BRANCH  14  17
ATOM     17  C   UNL     1       3.888   3.943  -1.278  0.00  0.00    +0.130 A 
ATOM     18  C   UNL     1       3.717   3.034  -2.305  0.00  0.00    +0.050 A 
ATOM     19  C   UNL     1       4.668   2.933  -3.305  0.00  0.00    +0.043 A 
ATOM     20  C   UNL     1       5.787   3.746  -3.280  0.00  0.00    +0.021 A 
ATOM     21  C   UNL     1       5.961   4.650  -2.249  0.00  0.00    +0.023 A 
ATOM     22  C   UNL     1       5.010   4.751  -1.249  0.00  0.00    +0.068 A 
ATOM     23 CL   UNL     1       5.226   5.892   0.041  0.00  0.00    -0.082 Cl
ATOM     24 CL   UNL     1       4.452   1.792  -4.595  0.00  0.00    -0.083 Cl
ENDBRANCH  14  17
ENDBRANCH  13  14
ENDBRANCH   5  13
TORSDOF 4
