REMARK  Name = ZINC43941370
REMARK  6 active torsions:
REMARK  status: ('A' for Active; 'I' for Inactive)
REMARK    1  A    between atoms: C_10  and  C_13
REMARK    2  A    between atoms: C_13  and  N_14
REMARK    3  A    between atoms: C_15  and  C_17
REMARK    4  A    between atoms: N_19  and  C_20
REMARK    5  A    between atoms: C_20  and  C_21
REMARK    6  A    between atoms: C_21  and  C_22
REMARK                            x       y       z     vdW  Elec       q    Type
REMARK                         _______ _______ _______ _____ _____    ______ ____
ROOT
ATOM      1  N   UNL     1       0.432  -6.637   2.103  0.00  0.00    -0.307 N 
ATOM      2  C   UNL     1       0.337  -7.629   3.010  0.00  0.00    +0.299 C 
ATOM      3  O   UNL     1       1.179  -7.741   3.876  0.00  0.00    -0.265 OA
ATOM      4  H   UNL     1      -0.241  -6.547   1.410  0.00  0.00    +0.149 HD
ENDROOT
BRANCH   2   5
ATOM      5  C   UNL     1      -0.804  -8.591   2.947  0.00  0.00    +0.299 C 
ATOM      6  O   UNL     1      -1.646  -8.479   2.081  0.00  0.00    -0.265 OA
ATOM      7  N   UNL     1      -0.899  -9.584   3.854  0.00  0.00    -0.307 N 
ATOM      8  H   UNL     1      -0.226  -9.674   4.547  0.00  0.00    +0.149 HD
BRANCH   7   9
ATOM      9  C   UNL     1      -2.018 -10.527   3.794  0.00  0.00    +0.109 C 
BRANCH   9  10
ATOM     10  C   UNL     1      -1.889 -11.546   4.928  0.00  0.00    +0.049 C 
BRANCH  10  11
ATOM     11  C   UNL     1      -3.040 -12.516   4.865  0.00  0.00    -0.072 C 
ATOM     12  C   UNL     1      -2.857 -13.637   4.244  0.00  0.00    -0.028 C 
ATOM     13  C   UNL     1      -3.909 -14.695   4.090  0.00  0.00    +0.027 C 
ATOM     14  C   UNL     1      -5.038 -14.466   5.098  0.00  0.00    +0.004 C 
ATOM     15  C   UNL     1      -5.474 -12.998   5.013  0.00  0.00    +0.005 C 
ATOM     16  C   UNL     1      -4.327 -12.126   5.532  0.00  0.00    +0.030 C 
ENDBRANCH  10  11
ENDBRANCH   9  10
ENDBRANCH   7   9
ENDBRANCH   2   5
BRANCH   1  17
ATOM     17  C   UNL     1       1.551  -5.693   2.163  0.00  0.00    +0.108 C 
BRANCH  17  27
ATOM     18  C   UNL     1      -0.017   1.379  -0.017  0.00  0.00    +0.005 A 
ATOM     19  C   UNL     1       1.195   2.058   0.002  0.00  0.00    +0.018 A 
ATOM     20  C   UNL     1       2.373   1.339   0.013  0.00  0.00    +0.084 A 
ATOM     21  N   UNL     1       2.361   0.020   0.005  0.00  0.00    -0.350 N 
ATOM     22  C   UNL     1       1.227  -0.664  -0.014  0.00  0.00    +0.099 A 
ATOM     23  C   UNL     1       0.002  -0.004  -0.024  0.00  0.00    +0.042 A 
ATOM     24  N   UNL     1       1.260  -2.054  -0.022  0.00  0.00    -0.317 N 
ATOM     25  C   UNL     1       2.537  -2.771  -0.142  0.00  0.00    +0.107 C 
ATOM     26  C   UNL     1       2.654  -3.767   1.016  0.00  0.00    +0.024 C 
ATOM     27  C   UNL     1       1.422  -4.675   1.029  0.00  0.00    +0.009 C 
ATOM     28  C   UNL     1       0.165  -3.829   1.245  0.00  0.00    +0.024 C 
ATOM     29  C   UNL     1       0.021  -2.833   0.096  0.00  0.00    +0.107 C 
ATOM     30  H   UNL     1       3.203  -0.461   0.012  0.00  0.00    +0.166 HD
ENDBRANCH  17  27
ENDBRANCH   1  17
TORSDOF 6
