REMARK  Name = ZINC39674538
REMARK  9 active torsions:
REMARK  status: ('A' for Active; 'I' for Inactive)
REMARK    1  A    between atoms: C_1  and  C_2
REMARK    2  A    between atoms: C_4  and  C_9
REMARK    3  A    between atoms: C_5  and  C_8
REMARK    4  A    between atoms: C_9  and  C_11
REMARK    5  A    between atoms: C_9  and  N_12
REMARK    6  A    between atoms: C_13  and  C_15
REMARK    7  A    between atoms: C_26  and  C_28
REMARK    8  A    between atoms: C_29  and  C_40
REMARK    9  A    between atoms: C_32  and  C_34
REMARK                            x       y       z     vdW  Elec       q    Type
REMARK                         _______ _______ _______ _____ _____    ______ ____
ROOT
ATOM      1  C   UNL     1      -3.967   3.130  -1.926  0.00  0.00    +0.100 C 
ATOM      2  C   UNL     1      -3.627   3.908  -0.635  0.00  0.00    +0.121 C 
ATOM      3  N   UNL     1      -4.719   4.901  -0.497  0.00  0.00    -0.296 N 
ATOM      4  C   UNL     1      -5.939   4.166  -0.909  0.00  0.00    +0.115 C 
ATOM      5  C   UNL     1      -5.486   3.301  -2.102  0.00  0.00    -0.004 C 
ATOM      6  C   UNL     1      -6.178   1.942  -2.061  0.00  0.00    -0.010 C 
ATOM      7  C   UNL     1      -7.679   2.132  -2.296  0.00  0.00    -0.082 C 
ATOM      8  N   UNL     1      -7.895   2.775  -3.597  0.00  0.00    +0.379 N 
ATOM      9  C   UNL     1      -7.306   4.120  -3.596  0.00  0.00    -0.082 C 
ATOM     10  C   UNL     1      -5.789   4.014  -3.416  0.00  0.00    -0.010 C 
ATOM     11  C   UNL     1      -4.624   6.182  -0.091  0.00  0.00    +0.248 C 
ATOM     12  O   UNL     1      -5.632   6.846   0.069  0.00  0.00    -0.270 OA
ATOM     13  H   UNL     1      -7.463   2.221  -4.321  0.00  0.00    -0.086 HD
ATOM     14  H   UNL     1      -8.886   2.844  -3.777  0.00  0.00    -0.086 HD
ENDROOT
BRANCH  11  15
ATOM     15  C   UNL     1      -3.350   6.757   0.151  0.00  0.00    +0.078 C 
ATOM     16  C   UNL     1      -2.560   6.521   1.212  0.00  0.00    +0.132 C 
ATOM     17  O   UNL     1      -1.416   7.229   1.153  0.00  0.00    -0.410 OA
ATOM     18  N   UNL     1      -1.234   7.688  -0.235  0.00  0.00    -0.144 NA
ATOM     19  C   UNL     1      -2.627   7.746  -0.744  0.00  0.00    +0.161 C 
ATOM     20  C   UNL     1      -2.912   5.577   2.333  0.00  0.00    +0.089 C 
ATOM     21  H   UNL     1      -0.686   7.028  -0.766  0.00  0.00    +0.168 HD
BRANCH  19  22
ATOM     22  C   UNL     1      -3.196   9.132  -0.579  0.00  0.00    -0.023 A 
ATOM     23  C   UNL     1      -2.766   9.937   0.459  0.00  0.00    +0.005 A 
ATOM     24  C   UNL     1      -3.288  11.208   0.610  0.00  0.00    +0.000 A 
ATOM     25  C   UNL     1      -4.240  11.674  -0.277  0.00  0.00    +0.000 A 
ATOM     26  C   UNL     1      -4.670  10.869  -1.315  0.00  0.00    +0.000 A 
ATOM     27  C   UNL     1      -4.145   9.600  -1.469  0.00  0.00    +0.005 A 
ENDBRANCH  19  22
ENDBRANCH  11  15
BRANCH   1  29
ATOM     28  N   UNL     1      -3.406   0.908  -2.857  0.00  0.00    -0.309 N 
ATOM     29  C   UNL     1      -3.618   1.673  -1.768  0.00  0.00    +0.219 C 
ATOM     30  O   UNL     1      -3.527   1.188  -0.660  0.00  0.00    -0.275 OA
ATOM     31  H   UNL     1      -3.479   1.296  -3.744  0.00  0.00    +0.149 HD
BRANCH  28  32
ATOM     32  C   UNL     1      -3.067  -0.508  -2.703  0.00  0.00    +0.100 C 
ATOM     33  C   UNL     1      -4.351  -1.338  -2.650  0.00  0.00    +0.033 C 
BRANCH  32  36
ATOM     34  C   UNL     1      -2.808   0.543  -5.802  0.00  0.00    +0.039 C 
ATOM     35  C   UNL     1      -2.581  -0.902  -5.350  0.00  0.00    +0.154 C 
ATOM     36  C   UNL     1      -2.229  -0.954  -3.874  0.00  0.00    -0.001 C 
ATOM     37  C   UNL     1      -1.005  -1.486  -3.854  0.00  0.00    +0.063 C 
ATOM     38  N   UNL     1      -0.579  -1.758  -5.108  0.00  0.00    -0.159 NA
ATOM     39  N   UNL     1      -1.387  -1.469  -6.000  0.00  0.00    -0.180 NA
ATOM     40  C   UNL     1      -0.206  -1.749  -2.604  0.00  0.00    +0.067 C 
ENDBRANCH  32  36
ENDBRANCH  28  32
ENDBRANCH   1  29
TORSDOF 5
