REMARK  Name = ZINC40335774
REMARK  7 active torsions:
REMARK  status: ('A' for Active; 'I' for Inactive)
REMARK    1  A    between atoms: C_1  and  N_2
REMARK    2  A    between atoms: N_2  and  C_3
REMARK    3  A    between atoms: N_2  and  C_4
REMARK    4  A    between atoms: C_7  and  N_20
REMARK    5  A    between atoms: C_9  and  C_10
REMARK    6  A    between atoms: N_12  and  C_13
REMARK    7  A    between atoms: C_13  and  C_14
REMARK                            x       y       z     vdW  Elec       q    Type
REMARK                         _______ _______ _______ _____ _____    ______ ____
ROOT
ATOM      1  C   UNL     1      -1.193  -0.716   0.010  0.00  0.00    +0.042 A 
ATOM      2  C   UNL     1      -1.800  -1.071  -1.188  0.00  0.00    +0.025 A 
ATOM      3  C   UNL     1      -2.986  -1.776  -1.182  0.00  0.00    +0.024 A 
ATOM      4  C   UNL     1      -3.582  -2.138   0.022  0.00  0.00    +0.025 A 
ATOM      5  C   UNL     1      -2.990  -1.792   1.224  0.00  0.00    +0.037 A 
ATOM      6  C   UNL     1      -1.786  -1.083   1.227  0.00  0.00    +0.059 A 
ENDROOT
BRANCH   6   7
ATOM      7  C   UNL     1      -1.146  -0.716   2.503  0.00  0.00    +0.246 C 
ATOM      8  O   UNL     1      -0.101  -0.094   2.502  0.00  0.00    -0.270 OA
ATOM      9  N   UNL     1      -1.718  -1.070   3.671  0.00  0.00    -0.307 N 
ATOM     10  H   UNL     1      -2.552  -1.566   3.671  0.00  0.00    +0.149 HD
BRANCH   9  11
ATOM     11  C   UNL     1      -1.082  -0.706   4.939  0.00  0.00    +0.143 C 
BRANCH  11  12
ATOM     12  C   UNL     1      -1.917  -1.216   6.085  0.00  0.00    +0.007 A 
ATOM     13  C   UNL     1      -2.921  -0.547   6.698  0.00  0.00    +0.110 A 
ATOM     14  N   UNL     1      -3.413  -1.343   7.669  0.00  0.00    -0.284 N 
ATOM     15  H   UNL     1      -4.141  -1.125   8.272  0.00  0.00    +0.188 HD
ATOM     16  N   UNL     1      -2.688  -2.542   7.653  0.00  0.00    -0.182 NA
ATOM     17  C   UNL     1      -1.795  -2.466   6.699  0.00  0.00    +0.139 A 
ENDBRANCH  11  12
ENDBRANCH   9  11
ENDBRANCH   6   7
BRANCH   1  19
ATOM     18  C   UNL     1      -0.018   1.461   0.010  0.00  0.00    +0.129 C 
ATOM     19  N   UNL     1       0.002  -0.004   0.002  0.00  0.00    -0.335 N 
ATOM     20  C   UNL     1       1.281  -0.719  -0.014  0.00  0.00    +0.129 C 
ENDBRANCH   1  19
BRANCH   4  21
ATOM     21  N   UNL     1      -4.786  -2.854   0.018  0.00  0.00    -0.358 N 
ATOM     22  H   UNL     1      -5.202  -3.097  -0.824  0.00  0.00    +0.142 HD
ATOM     23  H   UNL     1      -5.203  -3.106   0.856  0.00  0.00    +0.142 HD
ENDBRANCH   4  21
TORSDOF 5
