REMARK  Name = ZINC05790396
REMARK  7 active torsions:
REMARK  status: ('A' for Active; 'I' for Inactive)
REMARK    1  A    between atoms: C_1  and  C_2
REMARK    2  A    between atoms: C_5  and  N_9
REMARK    3  A    between atoms: C_10  and  C_12
REMARK    4  A    between atoms: C_14  and  C_18
REMARK    5  A    between atoms: C_20  and  C_26
REMARK    6  A    between atoms: C_22  and  C_25
REMARK    7  A    between atoms: C_23  and  O_24
REMARK                            x       y       z     vdW  Elec       q    Type
REMARK                         _______ _______ _______ _____ _____    ______ ____
ROOT
ATOM      1  C   UNL     1       0.307  -6.315   1.119  0.00  0.00    +0.121 A 
ATOM      2  C   UNL     1       0.429  -7.147   2.216  0.00  0.00    +0.062 A 
ATOM      3  C   UNL     1       0.523  -8.447   1.686  0.00  0.00    +0.097 A 
ATOM      4  N   UNL     1       0.457  -8.348   0.375  0.00  0.00    -0.173 NA
ATOM      5  N   UNL     1       0.326  -7.122   0.016  0.00  0.00    -0.272 N 
ATOM      6  H   UNL     1       0.253  -6.814  -0.901  0.00  0.00    +0.189 HD
ENDROOT
BRANCH   3   7
ATOM      7  C   UNL     1       0.669  -9.703   2.464  0.00  0.00    +0.044 A 
ATOM      8  C   UNL     1       0.720  -9.662   3.855  0.00  0.00    +0.017 A 
ATOM      9  C   UNL     1       0.857 -10.832   4.574  0.00  0.00    -0.049 A 
ATOM     10  C   UNL     1       0.944 -12.047   3.918  0.00  0.00    +0.010 A 
ATOM     11  C   UNL     1       0.894 -12.099   2.538  0.00  0.00    -0.008 A 
ATOM     12  C   UNL     1       0.751 -10.932   1.804  0.00  0.00    +0.129 A 
ATOM     13  C   UNL     1       0.989 -13.426   1.831  0.00  0.00    +0.047 C 
ATOM     14  C   UNL     1       0.912 -10.786   6.079  0.00  0.00    +0.044 C 
BRANCH  12  15
ATOM     15  O   UNL     1       0.697 -10.982   0.447  0.00  0.00    -0.506 OA
ATOM     16  H   UNL     1       1.560 -10.918   0.016  0.00  0.00    +0.292 HD
ENDBRANCH  12  15
ENDBRANCH   3   7
BRANCH   1  18
ATOM     17  N   UNL     1       0.059  -4.170  -0.022  0.00  0.00    -0.280 N 
ATOM     18  C   UNL     1       0.176  -4.849   1.136  0.00  0.00    +0.266 C 
ATOM     19  O   UNL     1       0.174  -4.251   2.195  0.00  0.00    -0.268 OA
ATOM     20  H   UNL     1      -0.015  -4.651  -0.861  0.00  0.00    +0.155 HD
BRANCH  17  25
ATOM     21  C   UNL     1       0.004   1.503   0.009  0.00  0.00    +0.045 C 
ATOM     22  C   UNL     1       0.019  -0.004   0.001  0.00  0.00    -0.032 A 
ATOM     23  C   UNL     1      -0.725  -0.696  -0.937  0.00  0.00    +0.006 A 
ATOM     24  C   UNL     1      -0.713  -2.077  -0.947  0.00  0.00    +0.023 A 
ATOM     25  C   UNL     1       0.046  -2.772  -0.014  0.00  0.00    +0.035 A 
ATOM     26  C   UNL     1       0.792  -2.074   0.927  0.00  0.00    +0.043 A 
ATOM     27  C   UNL     1       0.780  -0.692   0.929  0.00  0.00    +0.046 A 
ATOM     28 CL   UNL     1       1.718   0.182   2.101  0.00  0.00    -0.083 Cl
ENDBRANCH  17  25
ENDBRANCH   1  18
TORSDOF 4
