REMARK  Name = ZINC63416429
REMARK  6 active torsions:
REMARK  status: ('A' for Active; 'I' for Inactive)
REMARK    1  A    between atoms: C_1  and  C_2
REMARK    2  A    between atoms: C_2  and  C_4
REMARK    3  A    between atoms: C_2  and  N_21
REMARK    4  A    between atoms: N_6  and  N_7
REMARK    5  A    between atoms: C_8  and  C_9
REMARK    6  A    between atoms: C_14  and  C_15
REMARK                            x       y       z     vdW  Elec       q    Type
REMARK                         _______ _______ _______ _____ _____    ______ ____
ROOT
ATOM      1  C   UNL     1       0.707  -0.490  -1.238  0.00  0.00    +0.254 C 
ATOM      2  O   UNL     1       0.120  -1.191  -2.034  0.00  0.00    -0.272 OA
ATOM      3  N   UNL     1       1.991  -0.146  -1.462  0.00  0.00    -0.206 N 
ATOM      4  H   UNL     1       2.461   0.415  -0.825  0.00  0.00    +0.177 HD
ENDROOT
BRANCH   1   6
ATOM      5  C   UNL     1      -0.019   1.526   0.010  0.00  0.00    +0.039 C 
ATOM      6  C   UNL     1       0.002  -0.004   0.002  0.00  0.00    +0.177 C 
BRANCH   6   7
ATOM      7  N   UNL     1      -1.372  -0.511   0.012  0.00  0.00    -0.238 N 
ATOM      8  C   UNL     1      -1.938  -1.327   0.998  0.00  0.00    +0.069 A 
ATOM      9  C   UNL     1      -1.441  -1.872   2.170  0.00  0.00    +0.026 A 
ATOM     10  C   UNL     1      -2.255  -2.660   2.964  0.00  0.00    +0.002 A 
ATOM     11  C   UNL     1      -3.563  -2.906   2.590  0.00  0.00    +0.002 A 
ATOM     12  C   UNL     1      -4.067  -2.366   1.421  0.00  0.00    +0.026 A 
ATOM     13  C   UNL     1      -3.259  -1.575   0.621  0.00  0.00    +0.065 A 
ATOM     14  N   UNL     1      -3.477  -0.906  -0.588  0.00  0.00    -0.263 N 
ATOM     15  N   UNL     1      -2.324  -0.264  -0.935  0.00  0.00    -0.160 NA
ATOM     16  H   UNL     1      -4.306  -0.897  -1.091  0.00  0.00    +0.168 HD
ATOM     17  H   UNL     1      -2.010  -0.557  -1.848  0.00  0.00    +0.168 HD
ENDBRANCH   6   7
ENDBRANCH   1   6
BRANCH   3  18
ATOM     18  N   UNL     1       2.647  -0.598  -2.614  0.00  0.00    -0.192 NA
ATOM     19  C   UNL     1       3.866  -0.271  -2.827  0.00  0.00    +0.118 C 
BRANCH  19  20
ATOM     20  C   UNL     1       4.572  -0.757  -4.067  0.00  0.00    +0.125 C 
ATOM     21  C   UNL     1       5.833  -1.514  -3.702  0.00  0.00    +0.123 C 
ATOM     22  N   UNL     1       6.812  -0.855  -4.230  0.00  0.00    -0.161 NA
ATOM     23  N   UNL     1       6.384   0.273  -4.921  0.00  0.00    -0.153 NA
ATOM     24  C   UNL     1       5.084   0.413  -4.883  0.00  0.00    +0.084 C 
BRANCH  24  25
ATOM     25  C   UNL     1       4.284   1.482  -5.502  0.00  0.00    -0.001 A 
ATOM     26  C   UNL     1       2.892   1.490  -5.361  0.00  0.00    +0.010 A 
ATOM     27  C   UNL     1       2.149   2.495  -5.943  0.00  0.00    +0.001 A 
ATOM     28  C   UNL     1       2.777   3.494  -6.667  0.00  0.00    +0.000 A 
ATOM     29  C   UNL     1       4.154   3.493  -6.812  0.00  0.00    +0.001 A 
ATOM     30  C   UNL     1       4.911   2.498  -6.229  0.00  0.00    +0.010 A 
ENDBRANCH  24  25
ENDBRANCH  19  20
ENDBRANCH   3  18
TORSDOF 5
