REMARK  Name = ZINC21077545
REMARK  7 active torsions:
REMARK  status: ('A' for Active; 'I' for Inactive)
REMARK    1  A    between atoms: C_5  and  C_7
REMARK    2  A    between atoms: N_8  and  N_9
REMARK    3  A    between atoms: C_12  and  S_15
REMARK    4  A    between atoms: S_15  and  C_16
REMARK    5  A    between atoms: C_16  and  C_17
REMARK    6  A    between atoms: C_17  and  C_18
REMARK    7  A    between atoms: N_20  and  C_21
REMARK                            x       y       z     vdW  Elec       q    Type
REMARK                         _______ _______ _______ _____ _____    ______ ____
ROOT
ATOM      1  N   UNL     1     -10.930  -0.570  -0.798  0.00  0.00    -0.205 N 
ATOM      2  C   UNL     1      -9.570  -0.318  -0.685  0.00  0.00    +0.232 A 
ATOM      3  N   UNL     1      -8.984   0.916  -0.628  0.00  0.00    -0.186 NA
ATOM      4  C   UNL     1      -7.634   0.738  -0.518  0.00  0.00    +0.210 A 
ATOM      5  N   UNL     1      -7.395  -0.552  -0.512  0.00  0.00    -0.144 NA
ATOM      6  N   UNL     1      -8.622  -1.220  -0.612  0.00  0.00    -0.245 N 
ATOM      7  H   UNL     1     -11.642   0.266  -0.851  0.00  0.00    +0.177 HD
ATOM      8  H   UNL     1      -8.878  -2.290  -0.636  0.00  0.00    +0.192 HD
ENDROOT
BRANCH   1  10
ATOM      9  C   UNL     1     -12.668  -2.127  -0.951  0.00  0.00    +0.141 C 
ATOM     10  N   UNL     1     -11.395  -1.891  -0.845  0.00  0.00    -0.187 NA
BRANCH   9  15
ATOM     11  C   UNL     1     -14.977  -5.077  -1.159  0.00  0.00    +0.001 A 
ATOM     12  C   UNL     1     -14.079  -6.128  -1.093  0.00  0.00    +0.003 A 
ATOM     13  C   UNL     1     -12.723  -5.883  -0.980  0.00  0.00    +0.039 A 
ATOM     14  C   UNL     1     -12.255  -4.583  -0.933  0.00  0.00    +0.132 A 
ATOM     15  C   UNL     1     -13.158  -3.517  -1.001  0.00  0.00    +0.030 A 
ATOM     16  C   UNL     1     -14.526  -3.775  -1.109  0.00  0.00    +0.012 A 
ATOM     17  F   UNL     1     -10.930  -4.344  -0.823  0.00  0.00    -0.205 F 
ENDBRANCH   9  15
ENDBRANCH   1  10
BRANCH   4  18
ATOM     18  S   UNL     1      -6.426   2.016  -0.410  0.00  0.00    -0.084 S 
BRANCH  18  19
ATOM     19  C   UNL     1      -4.852   1.123  -0.286  0.00  0.00    +0.086 C 
BRANCH  19  20
ATOM     20  C   UNL     1      -3.703   2.127  -0.184  0.00  0.00    +0.107 C 
BRANCH  20  21
ATOM     21  C   UNL     1      -2.395   1.385  -0.081  0.00  0.00    +0.218 C 
ATOM     22  O   UNL     1      -2.384   0.172  -0.088  0.00  0.00    -0.275 OA
ATOM     23  N   UNL     1      -1.238   2.069   0.019  0.00  0.00    -0.284 N 
ATOM     24  H   UNL     1      -1.254   3.165   0.117  0.00  0.00    +0.155 HD
BRANCH  23  25
ATOM     25  C   UNL     1      -0.016   1.385  -0.001  0.00  0.00    +0.052 A 
ATOM     26  C   UNL     1       0.076   0.144  -0.617  0.00  0.00    +0.026 A 
ATOM     27  C   UNL     1       1.283  -0.526  -0.641  0.00  0.00    +0.022 A 
ATOM     28  C   UNL     1       2.401   0.038  -0.053  0.00  0.00    +0.042 A 
ATOM     29  C   UNL     1       2.313   1.275   0.561  0.00  0.00    +0.041 A 
ATOM     30  C   UNL     1       1.108   1.950   0.589  0.00  0.00    +0.064 A 
ATOM     31 CL   UNL     1       0.997   3.502   1.359  0.00  0.00    -0.082 Cl
ATOM     32 CL   UNL     1       3.917  -0.807  -0.085  0.00  0.00    -0.083 Cl
ENDBRANCH  23  25
ENDBRANCH  20  21
ENDBRANCH  19  20
ENDBRANCH  18  19
ENDBRANCH   4  18
TORSDOF 7
