REMARK  Name = ZINC39143098
REMARK  6 active torsions:
REMARK  status: ('A' for Active; 'I' for Inactive)
REMARK    1  A    between atoms: C_1  and  C_2
REMARK    2  A    between atoms: C_4  and  C_14
REMARK    3  A    between atoms: C_7  and  O_12
REMARK    4  A    between atoms: O_12  and  C_13
REMARK    5  A    between atoms: C_15  and  C_16
REMARK    6  A    between atoms: N_27  and  C_28
REMARK                            x       y       z     vdW  Elec       q    Type
REMARK                         _______ _______ _______ _____ _____    ______ ____
ROOT
ATOM      1  C   UNL     1      -4.457  -0.981  -1.691  0.00  0.00    +0.190 C 
ATOM      2  N   UNL     1      -5.583  -0.229  -1.126  0.00  0.00    -0.322 N 
ATOM      3  C   UNL     1      -6.622  -0.929  -0.524  0.00  0.00    +0.041 A 
ATOM      4  C   UNL     1      -7.378  -0.378   0.497  0.00  0.00    +0.024 A 
ATOM      5  C   UNL     1      -8.408  -1.109   1.057  0.00  0.00    +0.002 A 
ATOM      6  C   UNL     1      -8.690  -2.389   0.605  0.00  0.00    +0.001 A 
ATOM      7  C   UNL     1      -7.945  -2.954  -0.408  0.00  0.00    +0.015 A 
ATOM      8  C   UNL     1      -6.901  -2.230  -0.979  0.00  0.00    +0.058 A 
ATOM      9  C   UNL     1      -6.060  -2.799  -2.047  0.00  0.00    +0.254 C 
ATOM     10  O   UNL     1      -6.370  -3.848  -2.579  0.00  0.00    -0.270 OA
ATOM     11  N   UNL     1      -4.948  -2.146  -2.428  0.00  0.00    -0.245 N 
ATOM     12  H   UNL     1      -5.602   0.740  -1.172  0.00  0.00    +0.148 HD
ENDROOT
BRANCH  11  13
ATOM     13  C   UNL     1      -4.247  -2.592  -3.553  0.00  0.00    +0.039 A 
ATOM     14  C   UNL     1      -3.577  -3.809  -3.518  0.00  0.00    +0.023 A 
ATOM     15  C   UNL     1      -2.886  -4.247  -4.630  0.00  0.00    +0.002 A 
ATOM     16  C   UNL     1      -2.861  -3.477  -5.778  0.00  0.00    +0.000 A 
ATOM     17  C   UNL     1      -3.526  -2.265  -5.816  0.00  0.00    +0.002 A 
ATOM     18  C   UNL     1      -4.224  -1.824  -4.709  0.00  0.00    +0.023 A 
ENDBRANCH  11  13
BRANCH   1  20
ATOM     19  C   UNL     1      -2.275  -1.043  -0.540  0.00  0.00    +0.005 C 
ATOM     20  C   UNL     1      -3.555  -1.442  -0.575  0.00  0.00    +0.015 C 
BRANCH  19  23
ATOM     21  C   UNL     1      -2.059  -3.951   0.730  0.00  0.00    +0.035 C 
ATOM     22  C   UNL     1      -1.701  -2.648   1.447  0.00  0.00    +0.107 C 
ATOM     23  C   UNL     1      -1.401  -1.562   0.438  0.00  0.00    -0.017 C 
ATOM     24  C   UNL     1      -0.086  -1.184   0.673  0.00  0.00    +0.007 A 
ATOM     25  C   UNL     1       0.756  -0.227   0.063  0.00  0.00    +0.056 A 
ATOM     26  C   UNL     1       2.029  -0.067   0.510  0.00  0.00    +0.121 A 
ATOM     27  C   UNL     1       2.536  -0.833   1.572  0.00  0.00    +0.047 A 
ATOM     28  C   UNL     1       1.786  -1.766   2.201  0.00  0.00    +0.029 A 
ATOM     29  C   UNL     1       0.443  -1.991   1.789  0.00  0.00    +0.044 A 
ATOM     30  N   UNL     1      -0.475  -2.824   2.231  0.00  0.00    -0.378 N 
ATOM     31  H   UNL     1      -0.359  -3.454   2.960  0.00  0.00    +0.160 HD
BRANCH  26  32
ATOM     32  O   UNL     1       2.831   0.856  -0.084  0.00  0.00    -0.495 OA
ATOM     33  C   UNL     1       4.160   0.985   0.424  0.00  0.00    +0.277 C 
ENDBRANCH  26  32
ENDBRANCH  19  23
ENDBRANCH   1  20
TORSDOF 4
