REMARK  Name = ZINC49419620
REMARK  7 active torsions:
REMARK  status: ('A' for Active; 'I' for Inactive)
REMARK    1  A    between atoms: C_1  and  C_2
REMARK    2  A    between atoms: C_2  and  C_3
REMARK    3  A    between atoms: C_2  and  C_4
REMARK    4  A    between atoms: C_2  and  N_5
REMARK    5  A    between atoms: C_7  and  N_10
REMARK    6  A    between atoms: N_10  and  S_11
REMARK    7  A    between atoms: S_11  and  C_14
REMARK                            x       y       z     vdW  Elec       q    Type
REMARK                         _______ _______ _______ _____ _____    ______ ____
ROOT
ATOM      1  N   UNL     1       3.509  -1.150  -3.266  0.00  0.00    -0.213 N 
ATOM      2  H   UNL     1       4.162  -0.433  -3.238  0.00  0.00    +0.174 HD
ENDROOT
BRANCH   1   5
ATOM      3  N   UNL     1       0.688  -0.476  -1.203  0.00  0.00    -0.264 N 
ATOM      4  C   UNL     1       2.030  -0.461  -1.419  0.00  0.00    +0.133 A 
ATOM      5  C   UNL     1       2.253  -0.983  -2.651  0.00  0.00    +0.085 A 
ATOM      6  C   UNL     1       1.011  -1.327  -3.204  0.00  0.00    +0.158 A 
ATOM      7  N   UNL     1       0.077  -1.030  -2.336  0.00  0.00    -0.177 NA
BRANCH   3   9
ATOM      8  C   UNL     1      -0.019   1.526   0.010  0.00  0.00    +0.036 C 
ATOM      9  C   UNL     1       0.002  -0.004   0.002  0.00  0.00    +0.055 C 
ATOM     10  C   UNL     1       0.742  -0.511   1.242  0.00  0.00    +0.036 C 
ATOM     11  C   UNL     1      -1.433  -0.534   0.013  0.00  0.00    +0.036 C 
ENDBRANCH   3   9
ENDBRANCH   1   5
BRANCH   1  12
ATOM     12  S   UNL     1       3.870  -2.569  -4.039  0.00  0.00    +0.079 S 
ATOM     13  O   UNL     1       5.179  -2.420  -4.571  0.00  0.00    -0.149 OA
ATOM     14  O   UNL     1       3.528  -3.618  -3.143  0.00  0.00    -0.149 OA
BRANCH  12  15
ATOM     15  C   UNL     1       2.779  -2.707  -5.415  0.00  0.00    +0.147 A 
ATOM     16  C   UNL     1       2.951  -2.271  -6.687  0.00  0.00    +0.038 A 
ATOM     17  C   UNL     1       1.948  -2.492  -7.613  0.00  0.00    +0.030 A 
ATOM     18  C   UNL     1       0.821  -3.137  -7.220  0.00  0.00    +0.080 A 
ATOM     19  S   UNL     1       1.163  -3.462  -5.498  0.00  0.00    -0.057 S 
ATOM     20 CL   UNL     1      -0.585  -3.547  -8.151  0.00  0.00    -0.076 Cl
ENDBRANCH  12  15
ENDBRANCH   1  12
TORSDOF 4
