REMARK  Name = ZINC01648164
REMARK  4 active torsions:
REMARK  status: ('A' for Active; 'I' for Inactive)
REMARK    1  A    between atoms: C_6  and  O_7
REMARK    2  A    between atoms: C_10  and  O_22
REMARK    3  A    between atoms: C_15  and  O_21
REMARK    4  A    between atoms: C_16  and  O_20
REMARK                            x       y       z     vdW  Elec       q    Type
REMARK                         _______ _______ _______ _____ _____    ______ ____
ROOT
ATOM      1  C   UNL     1      -0.017   1.383   0.010  0.00  0.00    +0.046 A 
ATOM      2  C   UNL     1       1.166   2.093   0.002  0.00  0.00    +0.011 A 
ATOM      3  C   UNL     1       2.386   1.429  -0.010  0.00  0.00    +0.005 A 
ATOM      4  C   UNL     1       2.402   0.045  -0.009  0.00  0.00    +0.128 A 
ATOM      5  C   UNL     1       1.216  -0.673  -0.008  0.00  0.00    +0.091 A 
ATOM      6  C   UNL     1       0.002  -0.004   0.002  0.00  0.00    +0.120 A 
ATOM      7  O   UNL     1       3.586  -0.626   0.008  0.00  0.00    -0.489 OA
ATOM      8  C   UNL     1       4.651   0.043   0.692  0.00  0.00    +0.265 C 
ATOM      9  C   UNL     1       4.912   1.383   0.022  0.00  0.00    +0.115 C 
ATOM     10  C   UNL     1       3.645   2.249  -0.030  0.00  0.00    +0.088 C 
ATOM     11  C   UNL     1       3.736   2.990  -1.339  0.00  0.00    -0.030 A 
ATOM     12  C   UNL     1       3.047   4.122  -1.745  0.00  0.00    +0.053 A 
ATOM     13  C   UNL     1       3.320   4.609  -3.019  0.00  0.00    +0.159 A 
ATOM     14  C   UNL     1       4.245   3.987  -3.848  0.00  0.00    +0.158 A 
ATOM     15  C   UNL     1       4.936   2.851  -3.439  0.00  0.00    +0.053 A 
ATOM     16  C   UNL     1       4.663   2.366  -2.169  0.00  0.00    -0.037 A 
ATOM     17  C   UNL     1       5.255   1.174  -1.469  0.00  0.00    +0.074 C 
ENDROOT
BRANCH   6  18
ATOM     18  O   UNL     1      -1.163  -0.703   0.005  0.00  0.00    -0.507 OA
ATOM     19  H   UNL     1      -1.506  -0.901  -0.877  0.00  0.00    +0.292 HD
ENDBRANCH   6  18
BRANCH  14  20
ATOM     20  O   UNL     1       4.479   4.499  -5.086  0.00  0.00    -0.503 OA
ATOM     21  H   UNL     1       5.188   5.157  -5.111  0.00  0.00    +0.292 HD
ENDBRANCH  14  20
BRANCH  13  22
ATOM     22  O   UNL     1       2.668   5.718  -3.462  0.00  0.00    -0.503 OA
ATOM     23  H   UNL     1       3.120   6.548  -3.259  0.00  0.00    +0.292 HD
ENDBRANCH  13  22
BRANCH   9  24
ATOM     24  O   UNL     1       5.974   2.071   0.685  0.00  0.00    -0.384 OA
ATOM     25  H   UNL     1       6.812   1.587   0.693  0.00  0.00    +0.210 HD
ENDBRANCH   9  24
TORSDOF 4
