REMARK  Name = ZINC46973680
REMARK  8 active torsions:
REMARK  status: ('A' for Active; 'I' for Inactive)
REMARK    1  A    between atoms: C_1  and  C_2
REMARK    2  A    between atoms: C_2  and  C_4
REMARK    3  A    between atoms: C_2  and  N_10
REMARK    4  A    between atoms: N_13  and  N_14
REMARK    5  A    between atoms: C_15  and  C_17
REMARK    6  A    between atoms: C_17  and  O_18
REMARK    7  A    between atoms: O_18  and  C_19
REMARK    8  A    between atoms: C_22  and  C_25
REMARK                            x       y       z     vdW  Elec       q    Type
REMARK                         _______ _______ _______ _____ _____    ______ ____
ROOT
ATOM      1  N   UNL     1       2.001  -1.358  -3.419  0.00  0.00    -0.230 N 
ATOM      2  C   UNL     1       2.632  -1.792  -4.528  0.00  0.00    +0.267 C 
ATOM      3  O   UNL     1       2.019  -1.911  -5.568  0.00  0.00    -0.271 OA
ATOM      4  H   UNL     1       2.492  -1.263  -2.588  0.00  0.00    +0.173 HD
ENDROOT
BRANCH   1   8
ATOM      5  N   UNL     1       0.688  -0.476  -1.203  0.00  0.00    -0.293 N 
ATOM      6  C   UNL     1       0.006  -0.608  -2.358  0.00  0.00    +0.316 C 
ATOM      7  O   UNL     1      -1.178  -0.335  -2.400  0.00  0.00    -0.251 OA
ATOM      8  N   UNL     1       0.637  -1.043  -3.467  0.00  0.00    -0.218 N 
ATOM      9  H   UNL     1       1.632  -0.695  -1.170  0.00  0.00    +0.151 HD
ATOM     10  H   UNL     1       0.146  -1.137  -4.299  0.00  0.00    +0.174 HD
BRANCH   5  12
ATOM     11  C   UNL     1      -0.019   1.526   0.010  0.00  0.00    +0.030 C 
ATOM     12  C   UNL     1       0.002  -0.004   0.002  0.00  0.00    +0.100 C 
BRANCH  12  13
ATOM     13  C   UNL     1       0.742  -0.511   1.242  0.00  0.00    +0.138 C 
ATOM     14  C   UNL     1      -0.040  -0.120   2.514  0.00  0.00    +0.035 C 
ATOM     15  C   UNL     1       1.101   0.265   3.496  0.00  0.00    +0.031 C 
ATOM     16  C   UNL     1       2.131   0.888   2.521  0.00  0.00    +0.160 C 
ATOM     17  O   UNL     1       2.034   0.102   1.320  0.00  0.00    -0.375 OA
ENDBRANCH  12  13
ENDBRANCH   5  12
ENDBRANCH   1   8
BRANCH   2  18
ATOM     18  C   UNL     1       4.100  -2.131  -4.476  0.00  0.00    +0.326 C 
BRANCH  18  19
ATOM     19  O   UNL     1       4.534  -2.565  -5.767  0.00  0.00    -0.483 OA
BRANCH  19  20
ATOM     20  C   UNL     1       5.841  -2.911  -5.893  0.00  0.00    +0.121 A 
ATOM     21  C   UNL     1       6.686  -2.839  -4.792  0.00  0.00    +0.047 A 
ATOM     22  C   UNL     1       8.012  -3.189  -4.916  0.00  0.00    +0.022 A 
ATOM     23  C   UNL     1       8.508  -3.618  -6.150  0.00  0.00    +0.052 A 
ATOM     24  C   UNL     1       7.654  -3.689  -7.255  0.00  0.00    +0.022 A 
ATOM     25  C   UNL     1       6.328  -3.342  -7.121  0.00  0.00    +0.047 A 
BRANCH  23  26
ATOM     26  C   UNL     1       9.886  -3.982  -6.283  0.00  0.00    +0.099 C 
ATOM     27  N   UNL     1      10.980  -4.271  -6.389  0.00  0.00    -0.191 NA
ENDBRANCH  23  26
ENDBRANCH  19  20
ENDBRANCH  18  19
ENDBRANCH   2  18
TORSDOF 7
