REMARK  Name = ZINC63067997
REMARK  3 active torsions:
REMARK  status: ('A' for Active; 'I' for Inactive)
REMARK    1  A    between atoms: C_3  and  O_26
REMARK    2  A    between atoms: C_6  and  C_7
REMARK    3  A    between atoms: O_26  and  C_27
REMARK                            x       y       z     vdW  Elec       q    Type
REMARK                         _______ _______ _______ _____ _____    ______ ____
ROOT
ATOM      1  C   UNL     1      -1.293  -0.774   0.011  0.00  0.00    +0.073 C 
ATOM      2  C   UNL     1      -1.376  -1.640  -1.248  0.00  0.00    +0.148 C 
ATOM      3  C   UNL     1      -2.479  -2.649  -1.033  0.00  0.00    +0.106 C 
ATOM      4  N   UNL     1      -3.489  -2.756  -1.839  0.00  0.00    -0.151 NA
ATOM      5  C   UNL     1      -3.646  -1.965  -2.910  0.00  0.00    +0.331 C 
ATOM      6  O   UNL     1      -4.604  -2.135  -3.639  0.00  0.00    -0.250 OA
ATOM      7  N   UNL     1      -2.770  -0.989  -3.196  0.00  0.00    -0.238 N 
ATOM      8  C   UNL     1      -1.671  -0.781  -2.444  0.00  0.00    +0.231 C 
ATOM      9  O   UNL     1      -0.907   0.115  -2.732  0.00  0.00    -0.275 OA
ATOM     10  N   UNL     1      -2.366  -3.443   0.075  0.00  0.00    -0.307 N 
ATOM     11  C   UNL     1      -1.870  -2.882   1.231  0.00  0.00    +0.016 C 
ATOM     12  C   UNL     1      -1.351  -1.642   1.246  0.00  0.00    +0.020 C 
ATOM     13  C   UNL     1      -0.838  -1.093   2.439  0.00  0.00    +0.161 C 
ATOM     14  O   UNL     1      -0.354   0.022   2.421  0.00  0.00    -0.292 OA
ATOM     15  C   UNL     1      -0.879  -1.855   3.734  0.00  0.00    +0.080 C 
ATOM     16  C   UNL     1      -2.067  -2.823   3.703  0.00  0.00    +0.014 C 
ATOM     17  C   UNL     1      -1.921  -3.722   2.486  0.00  0.00    +0.051 C 
ATOM     18  H   UNL     1      -2.929  -0.420  -3.966  0.00  0.00    +0.159 HD
ATOM     19  H   UNL     1      -2.628  -4.377   0.047  0.00  0.00    +0.153 HD
ENDROOT
BRANCH   1  25
ATOM     20  C   UNL     1      -0.017   1.378   0.010  0.00  0.00    +0.008 A 
ATOM     21  C   UNL     1       1.169   2.087   0.002  0.00  0.00    +0.046 A 
ATOM     22  C   UNL     1       2.380   1.409  -0.013  0.00  0.00    +0.127 A 
ATOM     23  C   UNL     1       2.396   0.022  -0.021  0.00  0.00    +0.046 A 
ATOM     24  C   UNL     1       1.207  -0.681  -0.013  0.00  0.00    +0.008 A 
ATOM     25  C   UNL     1       0.002  -0.004   0.002  0.00  0.00    -0.038 A 
BRANCH  22  26
ATOM     26  O   UNL     1       3.548   2.104  -0.021  0.00  0.00    -0.434 OA
BRANCH  26  27
ATOM     27  C   UNL     1       4.756   1.341  -0.036  0.00  0.00    +0.541 C 
ATOM     28  F   UNL     1       4.810   0.528   1.101  0.00  0.00    -0.166 F 
ATOM     29  F   UNL     1       4.787   0.540  -1.183  0.00  0.00    -0.166 F 
ENDBRANCH  26  27
ENDBRANCH  22  26
ENDBRANCH   1  25
TORSDOF 3
