REMARK  Name = ZINC22626131
REMARK  5 active torsions:
REMARK  status: ('A' for Active; 'I' for Inactive)
REMARK    1  A    between atoms: C_1  and  C_2
REMARK    2  A    between atoms: C_8  and  C_10
REMARK    3  A    between atoms: C_10  and  C_12
REMARK    4  A    between atoms: C_10  and  N_19
REMARK    5  A    between atoms: C_22  and  C_25
REMARK                            x       y       z     vdW  Elec       q    Type
REMARK                         _______ _______ _______ _____ _____    ______ ____
ROOT
ATOM      1  C   UNL     1       1.229  -2.185  -0.022  0.00  0.00    +0.006 C 
ENDROOT
BRANCH   1   9
ATOM      2  C   UNL     1       1.277  -4.888  -6.973  0.00  0.00    +0.090 C 
ATOM      3  C   UNL     1       1.425  -4.312  -5.589  0.00  0.00    +0.150 A 
ATOM      4  N   UNL     1       2.557  -3.842  -5.067  0.00  0.00    -0.205 NA
ATOM      5  C   UNL     1       2.329  -3.421  -3.853  0.00  0.00    +0.199 A 
ATOM      6  N   UNL     1       1.017  -3.609  -3.542  0.00  0.00    -0.170 N 
ATOM      7  N   UNL     1       0.466  -4.196  -4.711  0.00  0.00    -0.147 NA
ATOM      8  C   UNL     1       0.605  -3.223  -2.290  0.00  0.00    +0.282 A 
ATOM      9  C   UNL     1       1.469  -2.676  -1.426  0.00  0.00    +0.050 A 
ATOM     10  S   UNL     1       2.984  -2.688  -2.373  0.00  0.00    -0.050 S 
ATOM     11  O   UNL     1      -0.694  -3.394  -1.925  0.00  0.00    -0.265 OA
ENDBRANCH   1   9
BRANCH   1  12
ATOM     12  N   UNL     1       2.305  -2.666   0.856  0.00  0.00    +0.387 N 
ATOM     13  C   UNL     1       2.227  -2.033   2.178  0.00  0.00    -0.077 C 
ATOM     14  C   UNL     1       3.441  -2.443   3.014  0.00  0.00    -0.015 C 
ATOM     15  C   UNL     1       3.464  -3.967   3.158  0.00  0.00    -0.018 C 
ATOM     16  C   UNL     1       3.496  -4.603   1.765  0.00  0.00    -0.015 C 
ATOM     17  C   UNL     1       2.280  -4.130   0.965  0.00  0.00    -0.077 C 
ATOM     18  C   UNL     1       4.709  -4.389   3.941  0.00  0.00    +0.007 C 
ATOM     19  H   UNL     1       3.265  -2.379   0.403  0.00  0.00    -0.080 HD
ENDBRANCH   1  12
BRANCH   1  20
ATOM     20  C   UNL     1       1.208  -0.678  -0.013  0.00  0.00    -0.055 A 
ATOM     21  C   UNL     1       2.396   0.029  -0.021  0.00  0.00    +0.002 A 
ATOM     22  C   UNL     1       2.378   1.411  -0.013  0.00  0.00    +0.001 A 
ATOM     23  C   UNL     1       1.172   2.087   0.002  0.00  0.00    +0.015 A 
ATOM     24  C   UNL     1      -0.017   1.379   0.010  0.00  0.00    +0.018 A 
ATOM     25  C   UNL     1       0.002  -0.004   0.002  0.00  0.00    +0.017 A 
ATOM     26 BR   UNL     1      -1.667   2.303   0.022  0.00  0.00    -0.050 Br
ENDBRANCH   1  20
TORSDOF 3
