REMARK  Name = ZINC48962087
REMARK  6 active torsions:
REMARK  status: ('A' for Active; 'I' for Inactive)
REMARK    1  A    between atoms: C_1  and  C_2
REMARK    2  A    between atoms: C_5  and  C_17
REMARK    3  A    between atoms: C_6  and  S_8
REMARK    4  A    between atoms: S_8  and  N_11
REMARK    5  A    between atoms: N_11  and  N_12
REMARK    6  A    between atoms: N_15  and  C_16
REMARK                            x       y       z     vdW  Elec       q    Type
REMARK                         _______ _______ _______ _____ _____    ______ ____
ROOT
ATOM      1  S   UNL     1       0.690  -2.986   2.489  0.00  0.00    +0.074 S 
ATOM      2  O   UNL     1       0.865  -2.112   3.597  0.00  0.00    -0.152 OA
ATOM      3  O   UNL     1      -0.428  -3.854   2.373  0.00  0.00    -0.152 OA
ENDROOT
BRANCH   1   9
ATOM      4  C   UNL     1       0.911   1.689   0.161  0.00  0.00    +0.044 C 
ATOM      5  C   UNL     1       0.801   0.192   0.032  0.00  0.00    -0.049 A 
ATOM      6  C   UNL     1       0.704  -0.389  -1.219  0.00  0.00    +0.004 A 
ATOM      7  C   UNL     1       0.603  -1.763  -1.337  0.00  0.00    +0.005 A 
ATOM      8  C   UNL     1       0.599  -2.556  -0.204  0.00  0.00    -0.024 A 
ATOM      9  C   UNL     1       0.696  -1.975   1.046  0.00  0.00    +0.110 A 
ATOM     10  C   UNL     1       0.802  -0.602   1.164  0.00  0.00    +0.032 A 
ATOM     11  C   UNL     1       0.487  -4.053  -0.333  0.00  0.00    +0.046 C 
ENDBRANCH   1   9
BRANCH   1  12
ATOM     12  N   UNL     1       2.041  -3.942   2.423  0.00  0.00    -0.107 NA
ATOM     13  H   UNL     1       1.954  -4.907   2.460  0.00  0.00    +0.172 HD
BRANCH  12  14
ATOM     14  N   UNL     1       3.309  -3.357   2.314  0.00  0.00    -0.216 N 
ATOM     15  C   UNL     1       4.258  -3.628   3.232  0.00  0.00    +0.314 C 
ATOM     16  O   UNL     1       5.359  -3.120   3.137  0.00  0.00    -0.251 OA
ATOM     17  N   UNL     1       3.987  -4.463   4.254  0.00  0.00    -0.301 N 
ATOM     18  C   UNL     1       5.018  -4.759   5.252  0.00  0.00    +0.129 C 
ATOM     19  H   UNL     1       3.504  -2.756   1.578  0.00  0.00    +0.172 HD
ATOM     20  H   UNL     1       3.109  -4.869   4.330  0.00  0.00    +0.150 HD
ENDBRANCH  12  14
ENDBRANCH   1  12
TORSDOF 3
