REMARK  Name = ZINC67275664
REMARK  11 active torsions:
REMARK  status: ('A' for Active; 'I' for Inactive)
REMARK    1  A    between atoms: C_1  and  C_2
REMARK    2  A    between atoms: C_2  and  N_3
REMARK    3  A    between atoms: N_3  and  C_4
REMARK    4  A    between atoms: N_3  and  C_6
REMARK    5  A    between atoms: C_4  and  C_5
REMARK    6  A    between atoms: C_6  and  C_8
REMARK    7  A    between atoms: C_6  and  C_26
REMARK    8  A    between atoms: C_8  and  N_9
REMARK    9  A    between atoms: C_10  and  C_12
REMARK   10  A    between atoms: C_17  and  C_18
REMARK   11  A    between atoms: C_18  and  N_19
REMARK                            x       y       z     vdW  Elec       q    Type
REMARK                         _______ _______ _______ _____ _____    ______ ____
ROOT
ATOM      1  N   UNL     1       0.417  -1.667   1.711  0.00  0.00    -0.312 N 
ATOM      2  C   UNL     1       1.099  -1.845   2.859  0.00  0.00    +0.244 C 
ATOM      3  O   UNL     1       0.641  -2.553   3.735  0.00  0.00    -0.270 OA
ATOM      4  H   UNL     1       0.782  -1.102   1.012  0.00  0.00    +0.149 HD
ENDROOT
BRANCH   2   5
ATOM      5  C   UNL     1       2.405  -1.180   3.054  0.00  0.00    +0.041 A 
ATOM      6  C   UNL     1       2.882  -0.278   2.101  0.00  0.00    +0.013 A 
ATOM      7  C   UNL     1       4.101   0.339   2.289  0.00  0.00    +0.001 A 
ATOM      8  C   UNL     1       4.851   0.067   3.420  0.00  0.00    +0.000 A 
ATOM      9  C   UNL     1       4.384  -0.826   4.368  0.00  0.00    +0.006 A 
ATOM     10  C   UNL     1       3.164  -1.446   4.195  0.00  0.00    -0.017 A 
BRANCH  10  11
ATOM     11  C   UNL     1       2.654  -2.413   5.232  0.00  0.00    +0.153 C 
BRANCH  11  12
ATOM     12  N   UNL     1       3.592  -2.462   6.357  0.00  0.00    -0.220 N 
ATOM     13  C   UNL     1       4.678  -3.259   6.403  0.00  0.00    +0.240 C 
ATOM     14  O   UNL     1       5.049  -4.041   5.554  0.00  0.00    -0.273 OA
ATOM     15  C   UNL     1       5.339  -2.974   7.737  0.00  0.00    +0.202 C 
ATOM     16  N   UNL     1       4.468  -1.953   8.344  0.00  0.00    -0.290 N 
ATOM     17  C   UNL     1       3.479  -1.717   7.462  0.00  0.00    +0.309 C 
ATOM     18  O   UNL     1       2.583  -0.918   7.650  0.00  0.00    -0.252 OA
ATOM     19  H   UNL     1       4.585  -1.532   9.210  0.00  0.00    +0.151 HD
ENDBRANCH  11  12
ENDBRANCH  10  11
ENDBRANCH   2   5
BRANCH   1  20
ATOM     20  C   UNL     1      -0.877  -2.326   1.518  0.00  0.00    +0.097 C 
BRANCH  20  21
ATOM     21  C   UNL     1      -1.512  -1.832   0.216  0.00  0.00    +0.016 C 
BRANCH  21  22
ATOM     22  C   UNL     1      -2.617  -2.771  -0.192  0.00  0.00    +0.093 A 
ATOM     23  C   UNL     1      -2.524  -3.738  -1.122  0.00  0.00    +0.043 A 
ATOM     24  C   UNL     1      -3.787  -4.372  -1.183  0.00  0.00    +0.041 A 
ATOM     25  C   UNL     1      -4.576  -3.754  -0.286  0.00  0.00    +0.195 A 
ATOM     26  O   UNL     1      -3.861  -2.789   0.315  0.00  0.00    -0.469 OA
ENDBRANCH  21  22
BRANCH  21  27
ATOM     27  N   UNL     1      -2.064  -0.486   0.421  0.00  0.00    +0.387 N 
ATOM     28  H   UNL     1      -2.846  -0.536   1.057  0.00  0.00    -0.081 HD
BRANCH  27  30
ATOM     29  C   UNL     1      -1.621   1.772   1.261  0.00  0.00    -0.017 C 
ATOM     30  C   UNL     1      -1.028   0.387   0.989  0.00  0.00    -0.081 C 
ENDBRANCH  27  30
BRANCH  27  31
ATOM     31  C   UNL     1      -2.514   0.060  -0.866  0.00  0.00    -0.081 C 
ATOM     32  C   UNL     1      -3.720  -0.738  -1.365  0.00  0.00    -0.017 C 
ENDBRANCH  27  31
ENDBRANCH  21  27
ENDBRANCH  20  21
ENDBRANCH   1  20
TORSDOF 9
