REMARK  Name = ZINC11422820
REMARK  13 active torsions:
REMARK  status: ('A' for Active; 'I' for Inactive)
REMARK    1  A    between atoms: C_1  and  C_2
REMARK    2  A    between atoms: C_2  and  C_27
REMARK    3  A    between atoms: C_4  and  N_9
REMARK    4  A    between atoms: C_6  and  C_7
REMARK    5  A    between atoms: C_6  and  C_8
REMARK    6  A    between atoms: C_10  and  C_12
REMARK    7  A    between atoms: C_15  and  C_18
REMARK    8  A    between atoms: C_18  and  N_19
REMARK    9  A    between atoms: C_20  and  O_22
REMARK   10  A    between atoms: O_22  and  C_23
REMARK   11  A    between atoms: C_23  and  C_24
REMARK   12  A    between atoms: C_23  and  C_25
REMARK   13  A    between atoms: C_23  and  C_26
REMARK                            x       y       z     vdW  Elec       q    Type
REMARK                         _______ _______ _______ _____ _____    ______ ____
ROOT
ATOM      1  N   UNL     1       0.376   5.050  -1.216  0.00  0.00    -0.309 N 
ATOM      2  C   UNL     1       0.077   5.700  -2.358  0.00  0.00    +0.244 C 
ATOM      3  O   UNL     1      -0.186   5.072  -3.364  0.00  0.00    -0.270 OA
ATOM      4  H   UNL     1       0.587   5.551  -0.413  0.00  0.00    +0.149 HD
ENDROOT
BRANCH   1   8
ATOM      5  C   UNL     1      -0.958   0.983  -2.263  0.00  0.00    -0.010 C 
ATOM      6  C   UNL     1      -1.049   1.551  -0.842  0.00  0.00    -0.072 C 
ATOM      7  C   UNL     1      -1.030   3.077  -0.900  0.00  0.00    +0.009 C 
ATOM      8  C   UNL     1       0.383   3.582  -1.188  0.00  0.00    +0.071 C 
ATOM      9  C   UNL     1       1.307   3.104  -0.068  0.00  0.00    +0.009 C 
ATOM     10  C   UNL     1       1.318   1.579  -0.002  0.00  0.00    -0.072 C 
ATOM     11  C   UNL     1       2.027   1.175   1.309  0.00  0.00    -0.010 C 
ATOM     12  C   UNL     1       2.153   1.022  -1.161  0.00  0.00    -0.010 C 
ATOM     13  C   UNL     1      -2.418   1.125  -0.266  0.00  0.00    -0.010 C 
ATOM     14  N   UNL     1      -0.027   0.945   0.053  0.00  0.00    +0.386 N 
ATOM     15  H   UNL     1       0.076  -0.043  -0.206  0.00  0.00    -0.084 HD
ATOM     16  H   UNL     1      -0.370   1.012   1.019  0.00  0.00    -0.084 HD
ENDBRANCH   1   8
BRANCH   2  17
ATOM     17  C   UNL     1       0.070   7.178  -2.386  0.00  0.00    +0.037 A 
ATOM     18  C   UNL     1       0.367   7.903  -1.231  0.00  0.00    +0.013 A 
ATOM     19  C   UNL     1       0.364   9.282  -1.266  0.00  0.00    +0.006 A 
ATOM     20  C   UNL     1       0.057   9.947  -2.440  0.00  0.00    -0.030 A 
ATOM     21  C   UNL     1      -0.244   9.235  -3.587  0.00  0.00    +0.006 A 
ATOM     22  C   UNL     1      -0.239   7.855  -3.567  0.00  0.00    +0.013 A 
BRANCH  20  23
ATOM     23  C   UNL     1       0.050  11.454  -2.469  0.00  0.00    +0.142 C 
BRANCH  23  24
ATOM     24  N   UNL     1      -1.289  11.943  -2.129  0.00  0.00    -0.277 N 
ATOM     25  C   UNL     1      -1.533  13.268  -2.092  0.00  0.00    +0.401 C 
ATOM     26  O   UNL     1      -0.643  14.057  -2.341  0.00  0.00    -0.226 OA
ATOM     27  H   UNL     1      -1.999  11.313  -1.930  0.00  0.00    +0.152 HD
BRANCH  25  28
ATOM     28  O   UNL     1      -2.763  13.717  -1.779  0.00  0.00    -0.445 OA
BRANCH  28  29
ATOM     29  C   UNL     1      -2.954  15.156  -1.759  0.00  0.00    +0.107 C 
ATOM     30  C   UNL     1      -2.645  15.731  -3.143  0.00  0.00    +0.055 C 
ATOM     31  C   UNL     1      -4.403  15.474  -1.386  0.00  0.00    +0.055 C 
ATOM     32  C   UNL     1      -2.013  15.781  -0.726  0.00  0.00    +0.055 C 
ENDBRANCH  28  29
ENDBRANCH  25  28
ENDBRANCH  23  24
ENDBRANCH  20  23
ENDBRANCH   2  17
TORSDOF 6
