REMARK  Name = ZINC37907185
REMARK  4 active torsions:
REMARK  status: ('A' for Active; 'I' for Inactive)
REMARK    1  A    between atoms: C_1  and  C_2
REMARK    2  A    between atoms: C_2  and  C_4
REMARK    3  A    between atoms: C_2  and  N_10
REMARK    4  A    between atoms: N_10  and  C_11
REMARK                            x       y       z     vdW  Elec       q    Type
REMARK                         _______ _______ _______ _____ _____    ______ ____
ROOT
ATOM      1  C   UNL     1       2.077  -0.591  -1.215  0.00  0.00    +0.055 A 
ATOM      2  C   UNL     1       2.810  -0.266  -0.095  0.00  0.00    +0.045 A 
ATOM      3  C   UNL     1       4.198  -0.376  -0.094  0.00  0.00    +0.043 A 
ATOM      4  C   UNL     1       4.868  -0.807  -1.200  0.00  0.00    +0.030 A 
ATOM      5  C   UNL     1       4.156  -1.147  -2.361  0.00  0.00    +0.004 A 
ATOM      6  C   UNL     1       2.744  -1.046  -2.375  0.00  0.00    +0.092 A 
ATOM      7  N   UNL     1       2.063  -1.373  -3.476  0.00  0.00    -0.253 NA
ATOM      8  C   UNL     1       2.676  -1.796  -4.556  0.00  0.00    +0.111 A 
ATOM      9  C   UNL     1       4.062  -1.925  -4.608  0.00  0.00    +0.020 A 
ATOM     10  C   UNL     1       4.819  -1.595  -3.520  0.00  0.00    +0.011 A 
ATOM     11 CL   UNL     1       5.089   0.043   1.337  0.00  0.00    -0.083 Cl
ENDROOT
BRANCH   1  12
ATOM     12  N   UNL     1       0.688  -0.476  -1.203  0.00  0.00    -0.334 N 
ATOM     13  H   UNL     1       0.175  -0.710  -1.993  0.00  0.00    +0.147 HD
BRANCH  12  15
ATOM     14  C   UNL     1      -0.019   1.526   0.010  0.00  0.00    +0.034 C 
ATOM     15  C   UNL     1       0.002  -0.004   0.002  0.00  0.00    +0.118 C 
BRANCH  15  16
ATOM     16  C   UNL     1      -1.412  -0.526   0.013  0.00  0.00    +0.083 A 
ATOM     17  C   UNL     1      -2.207  -0.718   1.147  0.00  0.00    +0.046 A 
ATOM     18  C   UNL     1      -3.405  -1.197   0.741  0.00  0.00    +0.105 A 
ATOM     19  N   UNL     1      -3.370  -1.304  -0.604  0.00  0.00    -0.284 N 
ATOM     20  H   UNL     1      -4.091  -1.621  -1.171  0.00  0.00    +0.188 HD
ATOM     21  N   UNL     1      -2.110  -0.872  -1.038  0.00  0.00    -0.177 NA
ENDBRANCH  15  16
ENDBRANCH  12  15
ENDBRANCH   1  12
TORSDOF 3
