REMARK  Name = ZINC20973350
REMARK  9 active torsions:
REMARK  status: ('A' for Active; 'I' for Inactive)
REMARK    1  A    between atoms: C_6  and  C_7
REMARK    2  A    between atoms: C_7  and  C_9
REMARK    3  A    between atoms: C_7  and  N_28
REMARK    4  A    between atoms: C_9  and  C_10
REMARK    5  A    between atoms: C_10  and  O_12
REMARK    6  A    between atoms: O_12  and  C_13
REMARK    7  A    between atoms: C_13  and  C_14
REMARK    8  A    between atoms: N_16  and  C_17
REMARK    9  A    between atoms: C_18  and  C_25
REMARK                            x       y       z     vdW  Elec       q    Type
REMARK                         _______ _______ _______ _____ _____    ______ ____
ROOT
ATOM      1  O   UNL     1      -1.085   2.785   3.519  0.00  0.00    -0.455 OA
ENDROOT
BRANCH   1   2
ATOM      2  C   UNL     1      -1.181   2.031   2.413  0.00  0.00    +0.310 C 
ATOM      3  O   UNL     1      -1.244   0.828   2.505  0.00  0.00    -0.251 OA
BRANCH   2   4
ATOM      4  C   UNL     1      -1.210   2.686   1.056  0.00  0.00    +0.147 C 
BRANCH   4   5
ATOM      5  C   UNL     1      -1.323   1.610  -0.027  0.00  0.00    +0.115 C 
BRANCH   5  11
ATOM      6  C   UNL     1      -0.378   2.833  -1.996  0.00  0.00    +0.007 A 
ATOM      7  C   UNL     1      -0.517   3.432  -3.233  0.00  0.00    +0.020 A 
ATOM      8  C   UNL     1      -1.757   3.476  -3.846  0.00  0.00    +0.041 A 
ATOM      9  C   UNL     1      -2.856   2.914  -3.221  0.00  0.00    +0.020 A 
ATOM     10  C   UNL     1      -2.715   2.311  -1.986  0.00  0.00    +0.007 A 
ATOM     11  C   UNL     1      -1.476   2.268  -1.374  0.00  0.00    -0.027 A 
ATOM     12 CL   UNL     1      -1.933   4.235  -5.397  0.00  0.00    -0.084 Cl
ENDBRANCH   5  11
BRANCH   5  13
ATOM     13  N   UNL     1      -0.114   0.783  -0.022  0.00  0.00    -0.292 N 
ATOM     14  C   UNL     1      -0.165  -0.486  -0.472  0.00  0.00    +0.298 C 
ATOM     15  O   UNL     1      -1.229  -0.973  -0.802  0.00  0.00    -0.253 OA
ATOM     16  N   UNL     1       0.965  -1.217  -0.555  0.00  0.00    -0.313 N 
ATOM     17  H   UNL     1       0.834   1.198   0.350  0.00  0.00    +0.151 HD
ATOM     18  H   UNL     1       0.924  -2.253  -0.922  0.00  0.00    +0.146 HD
ATOM     19  H   UNL     1       1.928  -0.777  -0.256  0.00  0.00    +0.146 HD
ENDBRANCH   5  13
ENDBRANCH   4   5
ENDBRANCH   2   4
ENDBRANCH   1   2
BRANCH   1  20
ATOM     20  C   UNL     1      -1.062   2.087   4.792  0.00  0.00    +0.328 C 
BRANCH  20  21
ATOM     21  C   UNL     1      -0.951   3.089   5.913  0.00  0.00    +0.255 C 
ATOM     22  O   UNL     1      -0.897   4.274   5.663  0.00  0.00    -0.272 OA
ATOM     23  N   UNL     1      -0.912   2.667   7.192  0.00  0.00    -0.277 N 
ATOM     24  H   UNL     1      -0.962   1.592   7.419  0.00  0.00    +0.155 HD
BRANCH  23  25
ATOM     25  C   UNL     1      -0.810   3.589   8.223  0.00  0.00    +0.084 A 
ATOM     26  C   UNL     1      -0.763   3.353   9.586  0.00  0.00    +0.068 A 
ATOM     27  C   UNL     1      -0.649   4.513  10.470  0.00  0.00    -0.023 A 
ATOM     28  C   UNL     1      -0.612   5.705   9.848  0.00  0.00    -0.004 A 
ATOM     29  S   UNL     1      -0.719   5.314   8.118  0.00  0.00    -0.077 S 
ATOM     30  C   UNL     1      -0.498   6.846  10.821  0.00  0.00    +0.043 C 
ATOM     31  C   UNL     1      -0.031   6.189  12.139  0.00  0.00    +0.010 C 
ATOM     32  C   UNL     1      -0.564   4.752  11.979  0.00  0.00    +0.037 C 
BRANCH  26  33
ATOM     33  C   UNL     1      -0.821   1.991  10.124  0.00  0.00    +0.244 C 
ATOM     34  O   UNL     1       0.207   1.362  10.300  0.00  0.00    -0.270 OA
ATOM     35  N   UNL     1      -2.011   1.434  10.424  0.00  0.00    -0.325 N 
ATOM     36  H   UNL     1      -2.054   0.411  10.827  0.00  0.00    +0.145 HD
ATOM     37  H   UNL     1      -2.939   2.002  10.264  0.00  0.00    +0.145 HD
ENDBRANCH  26  33
ENDBRANCH  23  25
ENDBRANCH  20  21
ENDBRANCH   1  20
TORSDOF 9
