REMARK  Name = ZINC09129944
REMARK  7 active torsions:
REMARK  status: ('A' for Active; 'I' for Inactive)
REMARK    1  A    between atoms: C_1  and  C_2
REMARK    2  A    between atoms: C_2  and  O_3
REMARK    3  A    between atoms: O_3  and  C_4
REMARK    4  A    between atoms: C_4  and  C_6
REMARK    5  A    between atoms: C_6  and  N_7
REMARK    6  A    between atoms: C_28  and  N_32
REMARK    7  A    between atoms: C_29  and  C_30
REMARK                            x       y       z     vdW  Elec       q    Type
REMARK                         _______ _______ _______ _____ _____    ______ ____
ROOT
ATOM      1  N   UNL     1       1.645  -2.856   0.733  0.00  0.00    -0.259 N 
ATOM      2  C   UNL     1       1.952  -2.069   1.833  0.00  0.00    +0.042 A 
ATOM      3  C   UNL     1       2.347  -2.449   3.113  0.00  0.00    +0.024 A 
ATOM      4  C   UNL     1       2.609  -1.435   4.022  0.00  0.00    +0.002 A 
ATOM      5  C   UNL     1       2.484  -0.100   3.696  0.00  0.00    +0.000 A 
ATOM      6  C   UNL     1       2.078   0.292   2.421  0.00  0.00    +0.007 A 
ATOM      7  C   UNL     1       1.819  -0.712   1.514  0.00  0.00    -0.002 A 
ATOM      8  C   UNL     1       1.357  -0.670   0.092  0.00  0.00    +0.132 C 
ATOM      9  C   UNL     1       1.278  -2.110  -0.336  0.00  0.00    +0.240 C 
ATOM     10  O   UNL     1       0.951  -2.523  -1.429  0.00  0.00    -0.274 OA
ATOM     11  C   UNL     1       2.356   0.096  -0.748  0.00  0.00    +0.023 C 
ATOM     12  C   UNL     1       2.252   1.426  -0.726  0.00  0.00    +0.040 C 
ATOM     13  C   UNL     1       3.201   2.332  -1.399  0.00  0.00    +0.003 A 
ATOM     14  C   UNL     1       4.154   1.832  -2.291  0.00  0.00    +0.059 A 
ATOM     15  C   UNL     1       5.029   2.704  -2.905  0.00  0.00    +0.163 A 
ATOM     16  C   UNL     1       4.979   4.069  -2.611  0.00  0.00    +0.162 A 
ATOM     17  C   UNL     1       4.022   4.561  -1.740  0.00  0.00    +0.053 A 
ATOM     18  C   UNL     1       3.120   3.701  -1.137  0.00  0.00    -0.033 A 
ATOM     19  C   UNL     1       2.069   4.277  -0.230  0.00  0.00    +0.055 C 
ATOM     20  C   UNL     1       1.481   3.247   0.723  0.00  0.00    +0.117 C 
ATOM     21  N   UNL     1       1.203   2.005   0.001  0.00  0.00    -0.287 N 
ATOM     22  C   UNL     1      -0.017   1.381   0.010  0.00  0.00    +0.103 C 
ATOM     23  C   UNL     1       0.002  -0.004   0.002  0.00  0.00    +0.088 C 
ATOM     24  O   UNL     1       5.873   4.926  -3.179  0.00  0.00    -0.488 OA
ATOM     25  C   UNL     1       5.718   5.159  -4.585  0.00  0.00    +0.232 C 
ATOM     26  C   UNL     1       6.409   4.062  -5.380  0.00  0.00    +0.082 C 
ATOM     27  C   UNL     1       5.777   2.698  -5.154  0.00  0.00    +0.232 C 
ATOM     28  O   UNL     1       5.953   2.261  -3.804  0.00  0.00    -0.488 OA
ENDROOT
BRANCH  22  29
ATOM     29  N   UNL     1      -1.194   2.090   0.019  0.00  0.00    -0.345 N 
ATOM     30  H   UNL     1      -2.043   1.621   0.021  0.00  0.00    +0.144 HD
ATOM     31  H   UNL     1      -1.176   3.060   0.024  0.00  0.00    +0.144 HD
ENDBRANCH  22  29
BRANCH  23  32
ATOM     32  C   UNL     1      -1.205  -0.769  -0.087  0.00  0.00    +0.100 C 
ATOM     33  N   UNL     1      -2.162  -1.377  -0.158  0.00  0.00    -0.191 NA
ENDBRANCH  23  32
BRANCH   1  34
ATOM     34  C   UNL     1       1.708  -4.320   0.728  0.00  0.00    +0.234 C 
BRANCH  34  35
ATOM     35  C   UNL     1       0.375  -4.882   1.148  0.00  0.00    +0.325 C 
ATOM     36  O   UNL     1      -0.535  -4.136   1.423  0.00  0.00    -0.249 OA
BRANCH  35  37
ATOM     37  O   UNL     1       0.198  -6.211   1.216  0.00  0.00    -0.464 OA
BRANCH  37  39
ATOM     38  C   UNL     1      -1.123  -8.211   1.647  0.00  0.00    +0.048 C 
ATOM     39  C   UNL     1      -1.113  -6.681   1.628  0.00  0.00    +0.229 C 
ENDBRANCH  37  39
ENDBRANCH  35  37
ENDBRANCH  34  35
ENDBRANCH   1  34
TORSDOF 6
