REMARK  Name = ZINC31158144
REMARK  13 active torsions:
REMARK  status: ('A' for Active; 'I' for Inactive)
REMARK    1  A    between atoms: C_1  and  C_2
REMARK    2  A    between atoms: C_2  and  C_3
REMARK    3  A    between atoms: C_3  and  C_5
REMARK    4  A    between atoms: C_3  and  C_6
REMARK    5  A    between atoms: C_6  and  C_8
REMARK    6  A    between atoms: C_6  and  O_29
REMARK    7  A    between atoms: C_8  and  C_9
REMARK    8  A    between atoms: C_8  and  C_10
REMARK    9  A    between atoms: C_8  and  O_28
REMARK   10  A    between atoms: C_11  and  C_12
REMARK   11  A    between atoms: C_18  and  C_26
REMARK   12  A    between atoms: C_18  and  O_27
REMARK   13  A    between atoms: C_19  and  O_25
REMARK                            x       y       z     vdW  Elec       q    Type
REMARK                         _______ _______ _______ _____ _____    ______ ____
ROOT
ATOM      1  C   UNL     1      -2.421   1.132  -3.295  0.00  0.00    +0.121 C 
ATOM      2  C   UNL     1      -1.073   0.889  -3.139  0.00  0.00    +0.049 C 
ATOM      3  C   UNL     1      -0.436   1.220  -1.938  0.00  0.00    -0.032 C 
ATOM      4  C   UNL     1       0.902   0.955  -1.765  0.00  0.00    +0.053 C 
ATOM      5  C   UNL     1       1.552   1.246  -0.568  0.00  0.00    +0.190 C 
ATOM      6  O   UNL     1       2.738   1.000  -0.454  0.00  0.00    -0.290 OA
ATOM      7  C   UNL     1       0.806   1.861   0.587  0.00  0.00    +0.151 C 
ATOM      8  C   UNL     1      -0.667   1.448   0.517  0.00  0.00    +0.164 C 
ATOM      9  C   UNL     1      -1.234   1.876  -0.838  0.00  0.00    +0.088 C 
ATOM     10  C   UNL     1      -2.693   1.427  -0.956  0.00  0.00    +0.239 C 
ATOM     11  O   UNL     1      -3.142   1.683  -2.292  0.00  0.00    -0.491 OA
ATOM     12  C   UNL     1       1.412   1.372   1.905  0.00  0.00    +0.052 C 
ENDROOT
BRANCH   1  14
ATOM     13  C   UNL     1      -4.384   1.021  -4.715  0.00  0.00    +0.013 C 
ATOM     14  C   UNL     1      -3.080   0.789  -4.558  0.00  0.00    +0.044 C 
BRANCH  13  15
ATOM     15  C   UNL     1      -5.061   0.669  -6.014  0.00  0.00    +0.108 C 
ATOM     16  C   UNL     1      -6.174  -0.348  -5.750  0.00  0.00    +0.048 C 
BRANCH  15  17
ATOM     17  O   UNL     1      -4.104   0.105  -6.913  0.00  0.00    -0.382 OA
ATOM     18  H   UNL     1      -3.564  -0.813  -6.636  0.00  0.00    +0.211 HD
ENDBRANCH  15  17
BRANCH  15  19
ATOM     19  C   UNL     1      -5.661   1.932  -6.636  0.00  0.00    +0.152 C 
BRANCH  19  20
ATOM     20  C   UNL     1      -6.452   1.556  -7.890  0.00  0.00    +0.017 C 
ATOM     21  C   UNL     1      -5.494   1.026  -8.959  0.00  0.00    +0.010 C 
BRANCH  20  23
ATOM     22  C   UNL     1      -8.068   2.393  -9.604  0.00  0.00    +0.004 C 
ATOM     23  C   UNL     1      -7.178   2.793  -8.425  0.00  0.00    +0.002 C 
ENDBRANCH  20  23
ENDBRANCH  19  20
BRANCH  19  24
ATOM     24  O   UNL     1      -6.533   2.559  -5.693  0.00  0.00    -0.388 OA
ATOM     25  H   UNL     1      -6.140   2.900  -4.724  0.00  0.00    +0.210 HD
ENDBRANCH  19  24
ENDBRANCH  15  19
ENDBRANCH  13  15
ENDBRANCH   1  14
BRANCH   8  26
ATOM     26  O   UNL     1      -1.395   2.088   1.568  0.00  0.00    -0.388 OA
ATOM     27  H   UNL     1      -2.475   1.910   1.677  0.00  0.00    +0.210 HD
ENDBRANCH   8  26
BRANCH   7  28
ATOM     28  O   UNL     1       0.907   3.285   0.516  0.00  0.00    -0.378 OA
ATOM     29  H   UNL     1       0.421   3.909   1.280  0.00  0.00    +0.211 HD
ENDBRANCH   7  28
TORSDOF 9
