REMARK  Name = ZINC03594924
REMARK  3 active torsions:
REMARK  status: ('A' for Active; 'I' for Inactive)
REMARK    1  A    between atoms: N_12  and  C_16
REMARK    2  A    between atoms: C_16  and  C_17
REMARK    3  A    between atoms: N_19  and  C_20
REMARK                            x       y       z     vdW  Elec       q    Type
REMARK                         _______ _______ _______ _____ _____    ______ ____
ROOT
ATOM      1  C   UNL     1       1.202  -0.694   0.009  0.00  0.00    +0.000 A 
ATOM      2  C   UNL     1      -0.002  -0.015   0.016  0.00  0.00    +0.000 A 
ATOM      3  C   UNL     1      -0.014   1.366   0.024  0.00  0.00    +0.006 A 
ATOM      4  C   UNL     1       1.175   2.076   0.024  0.00  0.00    -0.012 A 
ATOM      5  C   UNL     1       2.381   1.395   0.021  0.00  0.00    -0.042 A 
ATOM      6  C   UNL     1       2.390   0.011   0.011  0.00  0.00    +0.004 A 
ATOM      7  C   UNL     1       3.529   2.383   0.033  0.00  0.00    +0.038 C 
ATOM      8  C   UNL     1       2.906   3.732  -0.395  0.00  0.00    +0.045 C 
ATOM      9  C   UNL     1       1.440   3.558   0.022  0.00  0.00    +0.138 C 
ATOM     10  C   UNL     1       1.179   4.171   1.373  0.00  0.00    +0.251 C 
ATOM     11  O   UNL     1       1.707   3.884   2.426  0.00  0.00    -0.272 OA
ATOM     12  N   UNL     1       0.230   5.109   1.160  0.00  0.00    -0.215 N 
ATOM     13  C   UNL     1      -0.131   5.160  -0.129  0.00  0.00    +0.310 C 
ATOM     14  O   UNL     1      -0.969   5.925  -0.566  0.00  0.00    -0.252 OA
ATOM     15  N   UNL     1       0.539   4.269  -0.886  0.00  0.00    -0.281 N 
ATOM     16  H   UNL     1       0.444   4.127  -1.841  0.00  0.00    +0.152 HD
ENDROOT
BRANCH  12  17
ATOM     17  C   UNL     1      -0.334   5.963   2.208  0.00  0.00    +0.214 C 
BRANCH  17  18
ATOM     18  C   UNL     1      -1.538   5.287   2.812  0.00  0.00    +0.235 C 
ATOM     19  O   UNL     1      -1.891   4.200   2.407  0.00  0.00    -0.274 OA
ATOM     20  N   UNL     1      -2.224   5.892   3.803  0.00  0.00    -0.283 N 
ATOM     21  H   UNL     1      -1.905   6.731   4.172  0.00  0.00    +0.155 HD
BRANCH  20  22
ATOM     22  C   UNL     1      -3.396   5.310   4.299  0.00  0.00    +0.053 A 
ATOM     23  C   UNL     1      -3.509   3.928   4.373  0.00  0.00    +0.025 A 
ATOM     24  C   UNL     1      -4.664   3.355   4.869  0.00  0.00    +0.003 A 
ATOM     25  C   UNL     1      -5.713   4.157   5.281  0.00  0.00    +0.021 A 
ATOM     26  C   UNL     1      -5.608   5.534   5.203  0.00  0.00    +0.061 A 
ATOM     27  C   UNL     1      -4.451   6.113   4.714  0.00  0.00    +0.080 A 
ATOM     28 CL   UNL     1      -4.317   7.841   4.618  0.00  0.00    -0.080 Cl
ATOM     29 CL   UNL     1      -6.927   6.536   5.722  0.00  0.00    -0.082 Cl
ENDBRANCH  20  22
ENDBRANCH  17  18
ENDBRANCH  12  17
TORSDOF 3
