REMARK  Name = ZINC39656232
REMARK  7 active torsions:
REMARK  status: ('A' for Active; 'I' for Inactive)
REMARK    1  A    between atoms: C_1  and  C_2
REMARK    2  A    between atoms: C_8  and  C_11
REMARK    3  A    between atoms: C_11  and  C_12
REMARK    4  A    between atoms: C_12  and  N_13
REMARK    5  A    between atoms: C_14  and  C_16
REMARK    6  A    between atoms: C_27  and  C_29
REMARK    7  A    between atoms: N_33  and  C_34
REMARK                            x       y       z     vdW  Elec       q    Type
REMARK                         _______ _______ _______ _____ _____    ______ ____
ROOT
ATOM      1  C   UNL     1       5.455   0.367  -7.649  0.00  0.00    +0.100 C 
ATOM      2  C   UNL     1       6.370   0.514  -6.413  0.00  0.00    +0.121 C 
ATOM      3  N   UNL     1       6.434  -0.847  -5.830  0.00  0.00    -0.295 N 
ATOM      4  C   UNL     1       6.508  -1.748  -7.005  0.00  0.00    +0.115 C 
ATOM      5  C   UNL     1       5.551  -1.119  -8.037  0.00  0.00    -0.004 C 
ATOM      6  C   UNL     1       6.123  -1.262  -9.444  0.00  0.00    -0.010 C 
ATOM      7  C   UNL     1       6.154  -2.743  -9.829  0.00  0.00    -0.082 C 
ATOM      8  N   UNL     1       4.795  -3.294  -9.774  0.00  0.00    +0.379 N 
ATOM      9  C   UNL     1       4.287  -3.237  -8.398  0.00  0.00    -0.082 C 
ATOM     10  C   UNL     1       4.177  -1.776  -7.952  0.00  0.00    -0.010 C 
ATOM     11  C   UNL     1       6.427  -1.188  -4.526  0.00  0.00    +0.265 C 
ATOM     12  O   UNL     1       6.677  -2.332  -4.195  0.00  0.00    -0.268 OA
ATOM     13  H   UNL     1       4.190  -2.755 -10.376  0.00  0.00    -0.086 HD
ATOM     14  H   UNL     1       4.809  -4.253 -10.086  0.00  0.00    -0.086 HD
ENDROOT
BRANCH  11  15
ATOM     15  C   UNL     1       6.117  -0.180  -3.505  0.00  0.00    +0.124 A 
ATOM     16  C   UNL     1       5.510   1.028  -3.705  0.00  0.00    +0.143 A 
ATOM     17  N   UNL     1       5.416   1.636  -2.522  0.00  0.00    -0.243 NA
ATOM     18  C   UNL     1       5.930   0.873  -1.592  0.00  0.00    +0.199 A 
ATOM     19  N   UNL     1       6.374  -0.267  -2.151  0.00  0.00    -0.330 N 
ATOM     20  C   UNL     1       7.011  -1.387  -1.455  0.00  0.00    +0.150 C 
ENDBRANCH  11  15
BRANCH   1  22
ATOM     21  N   UNL     1       3.222   1.255  -8.232  0.00  0.00    -0.315 N 
ATOM     22  C   UNL     1       4.035   0.727  -7.296  0.00  0.00    +0.218 C 
ATOM     23  O   UNL     1       3.624   0.540  -6.171  0.00  0.00    -0.275 OA
ATOM     24  H   UNL     1       3.550   1.404  -9.133  0.00  0.00    +0.149 HD
BRANCH  21  25
ATOM     25  C   UNL     1       1.841   1.605  -7.889  0.00  0.00    +0.109 C 
BRANCH  25  26
ATOM     26  C   UNL     1       1.140   2.181  -9.121  0.00  0.00    +0.056 C 
BRANCH  26  34
ATOM     27  C   UNL     1      -0.130   7.241  -6.754  0.00  0.00    +0.044 C 
ATOM     28  C   UNL     1      -0.825   5.981  -7.203  0.00  0.00    -0.050 A 
ATOM     29  C   UNL     1      -2.201   5.865  -7.062  0.00  0.00    +0.005 A 
ATOM     30  C   UNL     1      -2.855   4.722  -7.466  0.00  0.00    +0.026 A 
ATOM     31  C   UNL     1      -2.132   3.672  -8.022  0.00  0.00    +0.047 A 
ATOM     32  N   UNL     1      -2.482   2.433  -8.509  0.00  0.00    -0.360 N 
ATOM     33  C   UNL     1      -1.367   1.774  -8.950  0.00  0.00    +0.087 A 
ATOM     34  C   UNL     1      -0.280   2.541  -8.769  0.00  0.00    -0.021 A 
ATOM     35  C   UNL     1      -0.737   3.794  -8.163  0.00  0.00    +0.003 A 
ATOM     36  C   UNL     1      -0.095   4.963  -7.752  0.00  0.00    +0.013 A 
ATOM     37  H   UNL     1      -3.385   2.079  -8.536  0.00  0.00    +0.165 HD
ENDBRANCH  26  34
ENDBRANCH  25  26
ENDBRANCH  21  25
ENDBRANCH   1  22
TORSDOF 5
