REMARK  Name = ZINC43569134
REMARK  2 active torsions:
REMARK  status: ('A' for Active; 'I' for Inactive)
REMARK    1  A    between atoms: C_4  and  N_8
REMARK    2  A    between atoms: C_11  and  N_15
REMARK                            x       y       z     vdW  Elec       q    Type
REMARK                         _______ _______ _______ _____ _____    ______ ____
ROOT
ATOM      1  N   UNL     1       3.621  -0.651  -0.037  0.00  0.00    -0.300 N 
ATOM      2  C   UNL     1       3.697  -2.037   0.044  0.00  0.00    +0.102 A 
ATOM      3  C   UNL     1       2.531  -2.791   0.040  0.00  0.00    +0.064 A 
ATOM      4  C   UNL     1       2.624  -4.177   0.122  0.00  0.00    +0.029 A 
ATOM      5  C   UNL     1       3.893  -4.753   0.206  0.00  0.00    +0.040 A 
ATOM      6  C   UNL     1       5.004  -3.938   0.205  0.00  0.00    +0.086 A 
ATOM      7  N   UNL     1       4.883  -2.626   0.120  0.00  0.00    -0.349 N 
ATOM      8  H   UNL     1       4.415  -0.133  -0.244  0.00  0.00    +0.154 HD
ATOM      9  H   UNL     1       5.683  -2.077   0.117  0.00  0.00    +0.167 HD
ENDROOT
BRANCH   1  13
ATOM     10  C   UNL     1      -0.015   1.278   0.606  0.00  0.00    +0.016 A 
ATOM     11  C   UNL     1       0.787   1.655  -0.455  0.00  0.00    +0.018 A 
ATOM     12  C   UNL     1       1.994   1.018  -0.671  0.00  0.00    +0.039 A 
ATOM     13  C   UNL     1       2.401  -0.004   0.179  0.00  0.00    +0.048 A 
ATOM     14  C   UNL     1       1.593  -0.380   1.244  0.00  0.00    +0.039 A 
ATOM     15  C   UNL     1       0.387   0.261   1.454  0.00  0.00    +0.020 A 
ATOM     16 BR   UNL     1      -0.715  -0.251   2.904  0.00  0.00    -0.050 Br
ATOM     17 BR   UNL     1       3.090   1.534  -2.123  0.00  0.00    -0.048 Br
ENDBRANCH   1  13
BRANCH   4  18
ATOM     18  N   UNL     1       1.479  -4.969   0.121  0.00  0.00    -0.358 N 
ATOM     19  H   UNL     1       0.603  -4.556   0.063  0.00  0.00    +0.142 HD
ATOM     20  H   UNL     1       1.557  -5.934   0.179  0.00  0.00    +0.142 HD
ENDBRANCH   4  18
TORSDOF 2
