REMARK  Name = ZINC36369722
REMARK  15 active torsions:
REMARK  status: ('A' for Active; 'I' for Inactive)
REMARK    1  A    between atoms: C_1  and  N_2
REMARK    2  A    between atoms: N_2  and  C_3
REMARK    3  A    between atoms: C_3  and  C_4
REMARK    4  A    between atoms: C_4  and  C_6
REMARK    5  A    between atoms: C_4  and  O_17
REMARK    6  A    between atoms: C_6  and  C_8
REMARK    7  A    between atoms: C_6  and  O_16
REMARK    8  A    between atoms: C_8  and  C_10
REMARK    9  A    between atoms: C_8  and  O_15
REMARK   10  A    between atoms: C_10  and  C_12
REMARK   11  A    between atoms: C_10  and  O_14
REMARK   12  A    between atoms: C_12  and  O_13
REMARK   13  A    between atoms: C_18  and  C_20
REMARK   14  A    between atoms: C_20  and  O_21
REMARK   15  A    between atoms: O_21  and  C_22
REMARK                            x       y       z     vdW  Elec       q    Type
REMARK                         _______ _______ _______ _____ _____    ______ ____
ROOT
ATOM      1  C   UNL     1      -0.018   1.461   0.010  0.00  0.00    +0.132 C 
ATOM      2  N   UNL     1       0.002  -0.004   0.002  0.00  0.00    -0.299 N 
ATOM      3  C   UNL     1       0.000  -0.672  -1.169  0.00  0.00    +0.253 C 
ATOM      4  O   UNL     1       0.017  -1.884  -1.175  0.00  0.00    -0.272 OA
ENDROOT
BRANCH   2   5
ATOM      5  C   UNL     1       0.024  -0.743   1.267  0.00  0.00    +0.141 C 
BRANCH   5   6
ATOM      6  C   UNL     1      -1.411  -1.020   1.720  0.00  0.00    +0.163 C 
BRANCH   6   7
ATOM      7  O   UNL     1      -2.046  -1.892   0.784  0.00  0.00    -0.388 OA
ATOM      8  H   UNL     1      -1.609  -2.749   0.684  0.00  0.00    +0.210 HD
ENDBRANCH   6   7
BRANCH   6   9
ATOM      9  C   UNL     1      -1.390  -1.681   3.100  0.00  0.00    +0.175 C 
BRANCH   9  10
ATOM     10  O   UNL     1      -0.571  -2.851   3.056  0.00  0.00    -0.387 OA
ATOM     11  H   UNL     1      -0.872  -3.518   2.424  0.00  0.00    +0.210 HD
ENDBRANCH   9  10
BRANCH   9  12
ATOM     12  C   UNL     1      -2.815  -2.071   3.500  0.00  0.00    +0.176 C 
BRANCH  12  13
ATOM     13  O   UNL     1      -3.634  -0.901   3.544  0.00  0.00    -0.387 OA
ATOM     14  H   UNL     1      -3.333  -0.234   4.176  0.00  0.00    +0.210 HD
ENDBRANCH  12  13
BRANCH  12  15
ATOM     15  C   UNL     1      -2.795  -2.732   4.880  0.00  0.00    +0.171 C 
BRANCH  15  16
ATOM     16  O   UNL     1      -1.975  -3.902   4.835  0.00  0.00    -0.387 OA
ATOM     17  H   UNL     1      -2.276  -4.569   4.204  0.00  0.00    +0.210 HD
ENDBRANCH  15  16
BRANCH  15  18
ATOM     18  C   UNL     1      -4.219  -3.122   5.279  0.00  0.00    +0.189 C 
BRANCH  18  19
ATOM     19  O   UNL     1      -4.216  -3.633   6.614  0.00  0.00    -0.392 OA
ATOM     20  H   UNL     1      -5.089  -3.900   6.934  0.00  0.00    +0.210 HD
ENDBRANCH  18  19
ENDBRANCH  15  18
ENDBRANCH  12  15
ENDBRANCH   9  12
ENDBRANCH   6   9
ENDBRANCH   5   6
ENDBRANCH   2   5
BRANCH   3  21
ATOM     21  C   UNL     1      -0.023   0.089  -2.470  0.00  0.00    +0.324 C 
BRANCH  21  22
ATOM     22  O   UNL     1      -0.020  -0.834  -3.561  0.00  0.00    -0.483 OA
BRANCH  22  23
ATOM     23  C   UNL     1      -0.039  -0.308  -4.813  0.00  0.00    +0.125 A 
ATOM     24  C   UNL     1      -0.054   1.073  -4.983  0.00  0.00    +0.046 A 
ATOM     25  C   UNL     1      -0.077   1.614  -6.249  0.00  0.00    +0.016 A 
ATOM     26  C   UNL     1      -0.085   0.775  -7.361  0.00  0.00    +0.026 A 
ATOM     27  C   UNL     1      -0.129   1.322  -8.731  0.00  0.00    -0.000 A 
ATOM     28  C   UNL     1       0.088   2.663  -9.013  0.00  0.00    +0.009 A 
ATOM     29  C   UNL     1       0.027   3.100 -10.322  0.00  0.00    +0.001 A 
ATOM     30  C   UNL     1      -0.247   2.213 -11.353  0.00  0.00    +0.001 A 
ATOM     31  C   UNL     1      -0.465   0.876 -11.092  0.00  0.00    +0.015 A 
ATOM     32  C   UNL     1      -0.406   0.418  -9.782  0.00  0.00    +0.067 A 
ATOM     33  C   UNL     1      -0.622  -0.994  -9.420  0.00  0.00    +0.345 A 
ATOM     34  O   UNL     1      -1.282  -1.732 -10.126  0.00  0.00    -0.245 OA
ATOM     35  O   UNL     1      -0.057  -1.440  -8.273  0.00  0.00    -0.422 OA
ATOM     36  C   UNL     1      -0.063  -0.619  -7.193  0.00  0.00    +0.143 A 
ATOM     37  C   UNL     1      -0.038  -1.150  -5.913  0.00  0.00    +0.092 A 
ENDBRANCH  22  23
ENDBRANCH  21  22
ENDBRANCH   3  21
TORSDOF 14
