REMARK  Name = ZINC02422630
REMARK  5 active torsions:
REMARK  status: ('A' for Active; 'I' for Inactive)
REMARK    1  A    between atoms: C_8  and  N_32
REMARK    2  A    between atoms: C_9  and  C_30
REMARK    3  A    between atoms: C_10  and  C_17
REMARK    4  A    between atoms: C_12  and  C_15
REMARK    5  A    between atoms: C_20  and  C_22
REMARK                            x       y       z     vdW  Elec       q    Type
REMARK                         _______ _______ _______ _____ _____    ______ ____
ROOT
ATOM      1  C   UNL     1      -0.017   1.371  -0.023  0.00  0.00    +0.002 A 
ATOM      2  C   UNL     1       1.157   2.105  -0.040  0.00  0.00    +0.001 A 
ATOM      3  C   UNL     1       2.369   1.438  -0.053  0.00  0.00    +0.017 A 
ATOM      4  C   UNL     1       2.385   0.062  -0.050  0.00  0.00    +0.036 A 
ATOM      5  C   UNL     1       1.219  -0.706  -0.034  0.00  0.00    +0.054 A 
ATOM      6  C   UNL     1       0.002  -0.004  -0.020  0.00  0.00    +0.025 A 
ATOM      7  N   UNL     1       1.366  -2.106  -0.032  0.00  0.00    -0.249 N 
ATOM      8  C   UNL     1       0.289  -2.993  -0.016  0.00  0.00    +0.108 C 
ATOM      9  C   UNL     1       0.424  -4.339  -0.013  0.00  0.00    +0.081 C 
ATOM     10  C   UNL     1       1.817  -4.935  -0.029  0.00  0.00    +0.141 C 
ATOM     11  C   UNL     1       2.959  -3.937  -0.047  0.00  0.00    +0.073 C 
ATOM     12  C   UNL     1       2.647  -2.604  -0.047  0.00  0.00    +0.093 C 
ATOM     13  S   UNL     1       3.679  -1.154  -0.064  0.00  0.00    -0.071 S 
ENDROOT
BRANCH  10  14
ATOM     14  C   UNL     1       1.941  -5.811  -1.249  0.00  0.00    +0.119 A 
ATOM     15  C   UNL     1       2.203  -7.132  -1.245  0.00  0.00    +0.046 A 
ATOM     16  C   UNL     1       2.232  -7.552  -2.590  0.00  0.00    +0.050 A 
ATOM     17  C   UNL     1       1.982  -6.452  -3.349  0.00  0.00    +0.137 A 
ATOM     18  O   UNL     1       1.803  -5.404  -2.522  0.00  0.00    -0.459 OA
BRANCH  17  19
ATOM     19  C   UNL     1       1.914  -6.414  -4.824  0.00  0.00    +0.036 A 
ATOM     20  C   UNL     1       2.935  -6.982  -5.588  0.00  0.00    +0.014 A 
ATOM     21  C   UNL     1       2.866  -6.944  -6.965  0.00  0.00    +0.021 A 
ATOM     22  C   UNL     1       1.787  -6.343  -7.591  0.00  0.00    +0.042 A 
ATOM     23  C   UNL     1       0.770  -5.778  -6.840  0.00  0.00    +0.040 A 
ATOM     24  C   UNL     1       0.825  -5.814  -5.461  0.00  0.00    +0.053 A 
ATOM     25 CL   UNL     1      -0.453  -5.111  -4.521  0.00  0.00    -0.083 Cl
ATOM     26 CL   UNL     1       1.708  -6.299  -9.325  0.00  0.00    -0.083 Cl
ENDBRANCH  17  19
ENDBRANCH  10  14
BRANCH   8  27
ATOM     27  N   UNL     1      -0.982  -2.469  -0.001  0.00  0.00    -0.345 N 
ATOM     28  H   UNL     1      -1.253  -1.835  -0.684  0.00  0.00    +0.144 HD
ATOM     29  H   UNL     1      -1.607  -2.733   0.692  0.00  0.00    +0.144 HD
ENDBRANCH   8  27
BRANCH  11  30
ATOM     30  C   UNL     1       4.322  -4.376  -0.062  0.00  0.00    +0.098 C 
ATOM     31  N   UNL     1       5.404  -4.724  -0.075  0.00  0.00    -0.191 NA
ENDBRANCH  11  30
BRANCH   9  32
ATOM     32  C   UNL     1      -0.730  -5.186   0.005  0.00  0.00    +0.099 C 
ATOM     33  N   UNL     1      -1.646  -5.858   0.019  0.00  0.00    -0.191 NA
ENDBRANCH   9  32
TORSDOF 5
