REMARK  Name = ZINC20573582
REMARK  3 active torsions:
REMARK  status: ('A' for Active; 'I' for Inactive)
REMARK    1  A    between atoms: C_3  and  C_6
REMARK    2  A    between atoms: N_8  and  C_9
REMARK    3  A    between atoms: C_9  and  C_10
REMARK                            x       y       z     vdW  Elec       q    Type
REMARK                         _______ _______ _______ _____ _____    ______ ____
ROOT
ATOM      1  C   UNL     1       6.993  -0.059  -0.065  0.00  0.00    +0.233 C 
ATOM      2  O   UNL     1       6.500  -1.167  -0.066  0.00  0.00    -0.274 OA
ATOM      3  N   UNL     1       8.333   0.082  -0.077  0.00  0.00    -0.300 N 
ATOM      4  C   UNL     1       8.946   1.417  -0.070  0.00  0.00    +0.110 C 
ATOM      5  C   UNL     1       9.943   1.496   1.091  0.00  0.00    +0.047 C 
ATOM      6  C   UNL     1      10.942   0.344   0.980  0.00  0.00    +0.064 C 
ATOM      7  C   UNL     1      10.204  -0.993   1.063  0.00  0.00    +0.047 C 
ATOM      8  C   UNL     1       9.210  -1.097  -0.092  0.00  0.00    +0.110 C 
ATOM      9  C   UNL     1      11.949   0.437   2.098  0.00  0.00    +0.057 A 
ATOM     10  C   UNL     1      13.278   0.260   1.915  0.00  0.00    +0.039 A 
ATOM     11  N   UNL     1      13.873   0.418   3.126  0.00  0.00    -0.349 N 
ATOM     12  H   UNL     1      14.822   0.351   3.315  0.00  0.00    +0.166 HD
ATOM     13  C   UNL     1      12.891   0.686   4.018  0.00  0.00    +0.171 A 
ATOM     14  N   UNL     1      11.743   0.695   3.390  0.00  0.00    -0.348 N 
ATOM     15  C   UNL     1      13.898  -0.056   0.579  0.00  0.00    +0.070 C 
ATOM     16  C   UNL     1      12.777  -0.518  -0.363  0.00  0.00    +0.088 C 
ATOM     17  N   UNL     1      11.658   0.434  -0.302  0.00  0.00    -0.305 NA
ATOM     18  H   UNL     1      11.027   0.300  -1.079  0.00  0.00    +0.123 HD
ATOM     19  H   UNL     1      10.880   0.862   3.800  0.00  0.00    +0.166 HD
ENDROOT
BRANCH   1  20
ATOM     20  C   UNL     1       6.107   1.160  -0.050  0.00  0.00    +0.200 C 
BRANCH  20  23
ATOM     21  C   UNL     1       3.725   1.670  -0.025  0.00  0.00    +0.251 C 
ATOM     22  O   UNL     1       4.008   2.853  -0.021  0.00  0.00    -0.270 OA
ATOM     23  N   UNL     1       4.703   0.743  -0.039  0.00  0.00    -0.302 N 
ATOM     24  H   UNL     1       4.477  -0.201  -0.042  0.00  0.00    +0.150 HD
BRANCH  21  27
ATOM     25  C   UNL     1      -0.016   1.352   0.009  0.00  0.00    +0.008 A 
ATOM     26  C   UNL     1       1.175   2.036   0.002  0.00  0.00    +0.021 A 
ATOM     27  C   UNL     1       2.320   1.253  -0.013  0.00  0.00    +0.074 A 
ATOM     28  S   UNL     1       1.636  -0.394  -0.016  0.00  0.00    -0.092 S 
ATOM     29  C   UNL     1       0.002  -0.004   0.002  0.00  0.00    +0.046 A 
ENDBRANCH  21  27
ENDBRANCH  20  23
ENDBRANCH   1  20
TORSDOF 3
