REMARK  Name = ZINC04030489
REMARK  5 active torsions:
REMARK  status: ('A' for Active; 'I' for Inactive)
REMARK    1  A    between atoms: C_3  and  N_23
REMARK    2  A    between atoms: C_4  and  N_20
REMARK    3  A    between atoms: C_6  and  N_7
REMARK    4  A    between atoms: C_26  and  C_29
REMARK    5  A    between atoms: C_26  and  N_66
REMARK                            x       y       z     vdW  Elec       q    Type
REMARK                         _______ _______ _______ _____ _____    ______ ____
ROOT
ATOM      1  C   UNL     1       6.558  -2.229   6.910  0.00  0.00    +0.026 A 
ATOM      2  C   UNL     1       5.759  -1.863   5.845  0.00  0.00    +0.027 A 
ATOM      3  C   UNL     1       5.508  -0.520   5.596  0.00  0.00    +0.060 A 
ATOM      4  C   UNL     1       6.065   0.454   6.415  0.00  0.00    +0.149 A 
ATOM      5  C   UNL     1       6.859   0.087   7.482  0.00  0.00    +0.058 A 
ATOM      6  C   UNL     1       7.110  -1.256   7.731  0.00  0.00    +0.046 A 
ENDROOT
BRANCH   6   7
ATOM      7  N   UNL     1       7.922  -1.629   8.813  0.00  0.00    -0.210 N 
ATOM      8  C   UNL     1       8.501  -0.733   9.654  0.00  0.00    +0.230 C 
ATOM      9  O   UNL     1       8.587   0.466   9.493  0.00  0.00    -0.274 OA
ATOM     10  C   UNL     1       9.008  -1.524  10.823  0.00  0.00    +0.092 C 
ATOM     11  C   UNL     1      10.299  -1.081  11.478  0.00  0.00    +0.040 C 
ATOM     12  C   UNL     1      10.758  -2.222  12.361  0.00  0.00    -0.030 C 
ATOM     13  C   UNL     1      10.341  -3.447  12.253  0.00  0.00    -0.030 C 
ATOM     14  C   UNL     1       9.351  -3.923  11.211  0.00  0.00    +0.040 C 
ATOM     15  C   UNL     1       9.327  -2.877  10.116  0.00  0.00    +0.092 C 
ATOM     16  C   UNL     1       8.211  -2.921   9.117  0.00  0.00    +0.230 C 
ATOM     17  O   UNL     1       7.674  -3.911   8.669  0.00  0.00    -0.274 OA
ENDBRANCH   6   7
BRANCH   3  18
ATOM     18  N   UNL     1       4.699  -0.148   4.517  0.00  0.00    -0.328 N 
ATOM     19  C   UNL     1       5.266  -0.619   3.247  0.00  0.00    +0.104 C 
ATOM     20  C   UNL     1       4.436  -0.073   2.083  0.00  0.00    +0.016 C 
ATOM     21  C   UNL     1       2.988  -0.550   2.225  0.00  0.00    +0.015 C 
ATOM     22  C   UNL     1       2.437  -0.088   3.577  0.00  0.00    +0.016 C 
ATOM     23  C   UNL     1       3.325  -0.633   4.698  0.00  0.00    +0.104 C 
BRANCH  21  29
ATOM     24  C   UNL     1       0.798  -0.490   1.195  0.00  0.00    -0.077 C 
ATOM     25  C   UNL     1       0.022   0.008  -0.026  0.00  0.00    -0.019 C 
ATOM     26  C   UNL     1       0.020   1.539  -0.034  0.00  0.00    -0.004 C 
ATOM     27  C   UNL     1       1.466   2.044  -0.040  0.00  0.00    -0.019 C 
ATOM     28  C   UNL     1       2.200   1.487   1.182  0.00  0.00    -0.077 C 
ATOM     29  N   UNL     1       2.188   0.010   1.117  0.00  0.00    +0.389 N 
ATOM     30  H   UNL     1       2.599  -0.288   0.225  0.00  0.00    -0.080 HD
ENDBRANCH  21  29
BRANCH  21  31
ATOM     31  C   UNL     1       2.944  -2.054   2.151  0.00  0.00    +0.200 C 
ATOM     32  O   UNL     1       2.883  -2.711   3.169  0.00  0.00    -0.278 OA
ATOM     33  N   UNL     1       2.973  -2.671   0.952  0.00  0.00    -0.330 N 
ATOM     34  H   UNL     1       3.097  -2.151   0.143  0.00  0.00    +0.145 HD
ATOM     35  H   UNL     1       2.870  -3.634   0.900  0.00  0.00    +0.145 HD
ENDBRANCH  21  31
ENDBRANCH   3  18
BRANCH   4  36
ATOM     36  N   UNL     1       5.802   1.886   6.146  0.00  0.00    +0.058 N 
ATOM     37  O   UNL     1       6.290   2.740   6.864  0.00  0.00    -0.126 OA
ATOM     38  O   UNL     1       5.097   2.210   5.207  0.00  0.00    -0.126 OA
ENDBRANCH   4  36
TORSDOF 5
