REMARK  Name = ZINC19596852
REMARK  11 active torsions:
REMARK  status: ('A' for Active; 'I' for Inactive)
REMARK    1  A    between atoms: C_1  and  C_2
REMARK    2  A    between atoms: C_4  and  N_10
REMARK    3  A    between atoms: C_7  and  C_8
REMARK    4  A    between atoms: C_14  and  N_15
REMARK    5  A    between atoms: N_15  and  C_16
REMARK    6  A    between atoms: C_16  and  C_17
REMARK    7  A    between atoms: C_16  and  C_19
REMARK    8  A    between atoms: C_16  and  C_21
REMARK    9  A    between atoms: C_17  and  O_18
REMARK   10  A    between atoms: C_19  and  O_20
REMARK   11  A    between atoms: C_21  and  O_22
REMARK                            x       y       z     vdW  Elec       q    Type
REMARK                         _______ _______ _______ _____ _____    ______ ____
ROOT
ATOM      1  N   UNL     1      -0.051  -2.161  -2.811  0.00  0.00    -0.189 N 
ATOM      2  C   UNL     1      -1.206  -2.675  -3.280  0.00  0.00    +0.265 C 
ATOM      3  O   UNL     1      -2.276  -2.341  -2.806  0.00  0.00    -0.269 OA
ATOM      4  C   UNL     1      -1.139  -3.652  -4.380  0.00  0.00    +0.113 C 
ATOM      5  C   UNL     1      -2.281  -4.221  -4.912  0.00  0.00    +0.086 C 
ATOM      6  C   UNL     1       0.201  -3.996  -4.891  0.00  0.00    +0.258 C 
ATOM      7  O   UNL     1       0.337  -4.795  -5.799  0.00  0.00    -0.270 OA
ATOM      8  N   UNL     1       1.271  -3.402  -4.324  0.00  0.00    -0.235 N 
ATOM      9  C   UNL     1       1.134  -2.516  -3.328  0.00  0.00    +0.320 C 
ATOM     10  O   UNL     1       2.138  -2.012  -2.864  0.00  0.00    -0.251 OA
ATOM     11  H   UNL     1       2.159  -3.617  -4.649  0.00  0.00    +0.159 HD
ENDROOT
BRANCH   1  15
ATOM     12  C   UNL     1      -0.336   2.514  -1.311  0.00  0.00    +0.044 C 
ATOM     13  C   UNL     1      -0.229   1.042  -1.009  0.00  0.00    -0.046 A 
ATOM     14  C   UNL     1      -0.190   0.126  -2.043  0.00  0.00    +0.028 A 
ATOM     15  C   UNL     1      -0.090  -1.230  -1.764  0.00  0.00    +0.060 A 
ATOM     16  C   UNL     1      -0.030  -1.662  -0.445  0.00  0.00    +0.040 A 
ATOM     17  C   UNL     1      -0.069  -0.742   0.584  0.00  0.00    +0.020 A 
ATOM     18  C   UNL     1      -0.163   0.609   0.302  0.00  0.00    -0.046 A 
ATOM     19  C   UNL     1      -0.200   1.611   1.427  0.00  0.00    +0.044 C 
ATOM     20 BR   UNL     1       0.105  -3.509  -0.060  0.00  0.00    -0.048 Br
ENDBRANCH   1  15
BRANCH   5  21
ATOM     21  N   UNL     1      -3.475  -4.013  -4.321  0.00  0.00    -0.337 N 
ATOM     22  H   UNL     1      -3.523  -3.533  -3.480  0.00  0.00    +0.146 HD
BRANCH  21  23
ATOM     23  C   UNL     1      -4.700  -4.514  -4.949  0.00  0.00    +0.101 C 
BRANCH  23  24
ATOM     24  C   UNL     1      -4.858  -3.881  -6.333  0.00  0.00    +0.186 C 
BRANCH  24  25
ATOM     25  O   UNL     1      -4.819  -2.458  -6.214  0.00  0.00    -0.393 OA
ATOM     26  H   UNL     1      -4.914  -1.990  -7.055  0.00  0.00    +0.209 HD
ENDBRANCH  24  25
ENDBRANCH  23  24
BRANCH  23  27
ATOM     27  C   UNL     1      -4.617  -6.035  -5.090  0.00  0.00    +0.186 C 
BRANCH  27  28
ATOM     28  O   UNL     1      -4.470  -6.625  -3.797  0.00  0.00    -0.393 OA
ATOM     29  H   UNL     1      -4.410  -7.590  -3.810  0.00  0.00    +0.209 HD
ENDBRANCH  27  28
ENDBRANCH  23  27
BRANCH  23  30
ATOM     30  C   UNL     1      -5.905  -4.147  -4.081  0.00  0.00    +0.186 C 
BRANCH  30  31
ATOM     31  O   UNL     1      -7.100  -4.635  -4.693  0.00  0.00    -0.393 OA
ATOM     32  H   UNL     1      -7.906  -4.438  -4.196  0.00  0.00    +0.209 HD
ENDBRANCH  30  31
ENDBRANCH  23  30
ENDBRANCH  21  23
ENDBRANCH   5  21
TORSDOF 9
