REMARK  Name = ZINC00479445
REMARK  7 active torsions:
REMARK  status: ('A' for Active; 'I' for Inactive)
REMARK    1  A    between atoms: C_1  and  C_2
REMARK    2  A    between atoms: C_2  and  C_3
REMARK    3  A    between atoms: C_3  and  N_4
REMARK    4  A    between atoms: N_9  and  C_10
REMARK    5  A    between atoms: C_10  and  N_12
REMARK    6  A    between atoms: C_13  and  C_15
REMARK    7  A    between atoms: C_18  and  C_22
REMARK                            x       y       z     vdW  Elec       q    Type
REMARK                         _______ _______ _______ _____ _____    ______ ____
ROOT
ATOM      1  C   UNL     1      -1.345  -6.444   0.806  0.00  0.00    +0.143 C 
ATOM      2  S   UNL     1      -1.361  -6.530  -0.903  0.00  0.00    -0.018 S 
ENDROOT
BRANCH   1   8
ATOM      3  N   UNL     1      -1.413  -1.998   0.005  0.00  0.00    -0.162 N 
ATOM      4  N   UNL     1      -1.391  -2.839   1.130  0.00  0.00    -0.114 NA
ATOM      5  C   UNL     1      -1.379  -4.070   0.661  0.00  0.00    +0.261 A 
ATOM      6  N   UNL     1      -1.393  -3.992  -0.670  0.00  0.00    -0.092 NA
ATOM      7  N   UNL     1      -1.419  -2.759  -1.036  0.00  0.00    -0.044 NA
ATOM      8  N   UNL     1      -1.355  -5.244   1.420  0.00  0.00    -0.263 N 
ATOM      9  H   UNL     1      -1.346  -5.195   2.389  0.00  0.00    +0.157 HD
BRANCH   3  10
ATOM     10  C   UNL     1      -1.433  -0.534   0.013  0.00  0.00    +0.168 C 
BRANCH  10  12
ATOM     11  C   UNL     1      -0.019   1.526   0.010  0.00  0.00    +0.006 C 
ATOM     12  C   UNL     1       0.002  -0.004   0.002  0.00  0.00    +0.022 C 
ENDBRANCH  10  12
ENDBRANCH   3  10
ENDBRANCH   1   8
BRANCH   1  13
ATOM     13  N   UNL     1      -1.322  -7.575   1.538  0.00  0.00    -0.263 N 
ATOM     14  C   UNL     1      -1.311  -8.775   0.924  0.00  0.00    +0.251 C 
ATOM     15  O   UNL     1      -1.323  -8.836  -0.290  0.00  0.00    -0.270 OA
ATOM     16  H   UNL     1      -1.313  -7.526   2.507  0.00  0.00    +0.157 HD
BRANCH  14  17
ATOM     17  C   UNL     1      -1.286 -10.015   1.726  0.00  0.00    +0.055 A 
ATOM     18  C   UNL     1      -1.273  -9.948   3.121  0.00  0.00    +0.015 A 
ATOM     19  C   UNL     1      -1.250 -11.109   3.864  0.00  0.00    +0.004 A 
ATOM     20  C   UNL     1      -1.240 -12.340   3.231  0.00  0.00    -0.049 A 
ATOM     21  C   UNL     1      -1.252 -12.415   1.850  0.00  0.00    +0.024 A 
ATOM     22  C   UNL     1      -1.281 -11.260   1.093  0.00  0.00    +0.053 A 
ATOM     23 CL   UNL     1      -1.304 -11.356  -0.640  0.00  0.00    -0.083 Cl
ATOM     24  C   UNL     1      -1.215 -13.605   4.050  0.00  0.00    +0.044 C 
ENDBRANCH  14  17
ENDBRANCH   1  13
TORSDOF 5
