REMARK  Name = ZINC20696811
REMARK  8 active torsions:
REMARK  status: ('A' for Active; 'I' for Inactive)
REMARK    1  A    between atoms: C_1  and  C_2
REMARK    2  A    between atoms: C_2  and  N_3
REMARK    3  A    between atoms: N_3  and  C_4
REMARK    4  A    between atoms: N_3  and  C_6
REMARK    5  A    between atoms: C_4  and  C_5
REMARK    6  A    between atoms: C_9  and  C_12
REMARK    7  A    between atoms: C_22  and  N_29
REMARK    8  A    between atoms: C_25  and  C_28
REMARK                            x       y       z     vdW  Elec       q    Type
REMARK                         _______ _______ _______ _____ _____    ______ ____
ROOT
ATOM      1  C   UNL     1       3.879   0.059   0.430  0.00  0.00    +0.105 C 
ATOM      2  C   UNL     1       2.454   0.481   0.134  0.00  0.00    +0.029 C 
ATOM      3  C   UNL     1       1.781   1.506   1.054  0.00  0.00    +0.033 C 
ATOM      4  C   UNL     1       0.309   1.102   0.933  0.00  0.00    -0.030 C 
ATOM      5  C   UNL     1       0.217  -0.185   0.619  0.00  0.00    -0.023 C 
ATOM      6  C   UNL     1       1.587  -0.751   0.541  0.00  0.00    +0.051 C 
ATOM      7  C   UNL     1       1.946  -1.848  -0.383  0.00  0.00    +0.011 A 
ATOM      8  C   UNL     1       1.000  -2.781  -0.790  0.00  0.00    +0.132 A 
ATOM      9  C   UNL     1       1.353  -3.799  -1.655  0.00  0.00    +0.033 A 
ATOM     10  C   UNL     1       2.650  -3.875  -2.129  0.00  0.00    +0.007 A 
ATOM     11  C   UNL     1       3.583  -2.937  -1.748  0.00  0.00    -0.029 A 
ATOM     12  C   UNL     1       3.241  -1.899  -0.879  0.00  0.00    +0.037 A 
ATOM     13  N   UNL     1       4.235  -0.979  -0.551  0.00  0.00    -0.336 N 
ATOM     14  C   UNL     1       4.992  -3.033  -2.273  0.00  0.00    +0.045 C 
ATOM     15  H   UNL     1       5.245  -1.001  -0.986  0.00  0.00    +0.147 HD
ENDROOT
BRANCH   1  19
ATOM     16  C   UNL     1       6.505   3.407   0.026  0.00  0.00    +0.030 A 
ATOM     17  C   UNL     1       6.080   3.003   1.286  0.00  0.00    +0.023 A 
ATOM     18  C   UNL     1       5.231   1.921   1.413  0.00  0.00    +0.007 A 
ATOM     19  C   UNL     1       4.805   1.239   0.287  0.00  0.00    -0.027 A 
ATOM     20  C   UNL     1       5.230   1.635  -0.967  0.00  0.00    +0.007 A 
ATOM     21  C   UNL     1       6.074   2.720  -1.102  0.00  0.00    +0.023 A 
BRANCH  16  22
ATOM     22  N   UNL     1       7.363   4.500  -0.105  0.00  0.00    -0.330 N 
BRANCH  22  24
ATOM     23  C   UNL     1       6.828   5.953  -1.999  0.00  0.00    +0.024 C 
ATOM     24  C   UNL     1       7.811   4.925  -1.434  0.00  0.00    +0.102 C 
ENDBRANCH  22  24
BRANCH  22  25
ATOM     25  C   UNL     1       7.816   5.224   1.085  0.00  0.00    +0.102 C 
ATOM     26  C   UNL     1       9.112   4.595   1.602  0.00  0.00    +0.024 C 
ENDBRANCH  22  25
ENDBRANCH  16  22
ENDBRANCH   1  19
BRANCH   8  27
ATOM     27  N   UNL     1      -0.388  -2.697  -0.281  0.00  0.00    +0.057 N 
ATOM     28  O   UNL     1      -0.592  -2.587   0.914  0.00  0.00    -0.126 OA
ATOM     29  O   UNL     1      -1.325  -2.739  -1.058  0.00  0.00    -0.126 OA
ENDBRANCH   8  27
TORSDOF 5
