REMARK  Name = ZINC35464468
REMARK  18 active torsions:
REMARK  status: ('A' for Active; 'I' for Inactive)
REMARK    1  A    between atoms: C_1  and  C_2
REMARK    2  A    between atoms: C_2  and  C_4
REMARK    3  A    between atoms: C_2  and  O_38
REMARK    4  A    between atoms: C_4  and  C_5
REMARK    5  A    between atoms: C_5  and  C_7
REMARK    6  A    between atoms: C_5  and  O_37
REMARK    7  A    between atoms: C_7  and  C_9
REMARK    8  A    between atoms: C_7  and  S_29
REMARK    9  A    between atoms: C_9  and  C_11
REMARK   10  A    between atoms: C_9  and  O_28
REMARK   11  A    between atoms: C_12  and  C_13
REMARK   12  A    between atoms: C_13  and  C_14
REMARK   13  A    between atoms: C_18  and  O_24
REMARK   14  A    between atoms: C_20  and  O_23
REMARK   15  A    between atoms: S_29  and  C_30
REMARK   16  A    between atoms: C_30  and  C_31
REMARK   17  A    between atoms: C_31  and  C_33
REMARK   18  A    between atoms: C_31  and  O_36
REMARK                            x       y       z     vdW  Elec       q    Type
REMARK                         _______ _______ _______ _____ _____    ______ ____
ROOT
ATOM      1  C   UNL     1       1.655  -3.997  -3.014  0.00  0.00    +0.152 C 
ENDROOT
BRANCH   1   2
ATOM      2  O   UNL     1       0.457  -4.574  -3.537  0.00  0.00    -0.387 OA
ATOM      3  H   UNL     1      -0.303  -4.510  -2.942  0.00  0.00    +0.210 HD
ENDBRANCH   1   2
BRANCH   1   4
ATOM      4  C   UNL     1       1.924  -4.555  -1.640  0.00  0.00    +0.001 C 
ATOM      5  C   UNL     1       1.159  -5.503  -1.157  0.00  0.00    -0.021 C 
BRANCH   5   6
ATOM      6  C   UNL     1       1.428  -6.061   0.216  0.00  0.00    +0.101 C 
BRANCH   6   7
ATOM      7  C   UNL     1       0.182  -5.951   1.056  0.00  0.00    +0.113 A 
ATOM      8  C   UNL     1      -0.645  -7.006   1.140  0.00  0.00    +0.052 A 
ATOM      9  C   UNL     1      -1.866  -6.886   1.946  0.00  0.00    +0.018 A 
ATOM     10  C   UNL     1      -2.241  -5.585   2.372  0.00  0.00    +0.109 A 
ATOM     11  C   UNL     1      -3.397  -5.405   3.134  0.00  0.00    +0.135 A 
ATOM     12  C   UNL     1      -4.163  -6.508   3.473  0.00  0.00    +0.093 A 
ATOM     13  C   UNL     1      -3.790  -7.783   3.060  0.00  0.00    +0.139 A 
ATOM     14  C   UNL     1      -2.647  -7.979   2.298  0.00  0.00    +0.091 A 
ATOM     15 CL   UNL     1      -2.197  -9.576   1.789  0.00  0.00    -0.079 Cl
ATOM     16  C   UNL     1      -1.363  -4.479   1.975  0.00  0.00    +0.348 A 
ATOM     17  O   UNL     1      -1.772  -3.336   1.893  0.00  0.00    -0.244 OA
ATOM     18  O   UNL     1      -0.071  -4.798   1.708  0.00  0.00    -0.426 OA
BRANCH  11  19
ATOM     19  O   UNL     1      -3.765  -4.163   3.538  0.00  0.00    -0.506 OA
ATOM     20  H   UNL     1      -4.345  -3.703   2.916  0.00  0.00    +0.292 HD
ENDBRANCH  11  19
BRANCH  13  21
ATOM     21  O   UNL     1      -4.555  -8.850   3.406  0.00  0.00    -0.505 OA
ATOM     22  H   UNL     1      -5.252  -9.058   2.768  0.00  0.00    +0.292 HD
ENDBRANCH  13  21
ENDBRANCH   6   7
ENDBRANCH   5   6
ENDBRANCH   1   4
BRANCH   1  23
ATOM     23  C   UNL     1       1.492  -2.478  -2.925  0.00  0.00    +0.107 C 
BRANCH  23  24
ATOM     24  S   UNL     1       1.273  -1.795  -4.591  0.00  0.00    -0.149 S 
BRANCH  24  25
ATOM     25  C   UNL     1       1.815  -0.071  -4.433  0.00  0.00    +0.112 C 
BRANCH  25  26
ATOM     26  C   UNL     1       1.609   0.653  -5.764  0.00  0.00    +0.237 C 
BRANCH  26  27
ATOM     27  C   UNL     1       2.059   2.085  -5.633  0.00  0.00    +0.385 C 
ATOM     28  O   UNL     1       3.012   2.486  -6.280  0.00  0.00    -0.243 OA
ATOM     29  O   UNL     1       1.471   2.843  -4.880  0.00  0.00    -0.243 OA
ENDBRANCH  26  27
BRANCH  26  30
ATOM     30  O   UNL     1       2.373   0.004  -6.783  0.00  0.00    -0.380 OA
ATOM     31  H   UNL     1       3.325  -0.011  -6.611  0.00  0.00    +0.211 HD
ENDBRANCH  26  30
ENDBRANCH  25  26
ENDBRANCH  24  25
ENDBRANCH  23  24
BRANCH  23  32
ATOM     32  C   UNL     1       0.266  -2.146  -2.072  0.00  0.00    +0.133 C 
BRANCH  32  33
ATOM     33  O   UNL     1      -0.912  -2.619  -2.727  0.00  0.00    -0.391 OA
ATOM     34  H   UNL     1      -1.059  -2.231  -3.600  0.00  0.00    +0.210 HD
ENDBRANCH  32  33
BRANCH  32  35
ATOM     35  C   UNL     1       0.172  -0.631  -1.883  0.00  0.00    +0.063 C 
BRANCH  35  37
ATOM     36  C   UNL     1      -1.130   1.208  -0.803  0.00  0.00    +0.037 C 
ATOM     37  C   UNL     1      -0.953  -0.308  -0.897  0.00  0.00    +0.114 C 
BRANCH  37  38
ATOM     38  O   UNL     1      -0.620  -0.830   0.392  0.00  0.00    -0.392 OA
ATOM     39  H   UNL     1      -1.290  -0.662   1.069  0.00  0.00    +0.210 HD
ENDBRANCH  37  38
ENDBRANCH  35  37
ENDBRANCH  32  35
ENDBRANCH  23  32
ENDBRANCH   1  23
TORSDOF 17
