REMARK  Name = ZINC02074451
REMARK  15 active torsions:
REMARK  status: ('A' for Active; 'I' for Inactive)
REMARK    1  A    between atoms: C_1  and  C_2
REMARK    2  A    between atoms: C_2  and  O_3
REMARK    3  A    between atoms: O_3  and  C_4
REMARK    4  A    between atoms: C_4  and  C_5
REMARK    5  A    between atoms: C_5  and  O_6
REMARK    6  A    between atoms: O_6  and  C_7
REMARK    7  A    between atoms: C_7  and  C_9
REMARK    8  A    between atoms: C_10  and  C_39
REMARK    9  A    between atoms: C_14  and  C_16
REMARK   10  A    between atoms: C_20  and  O_22
REMARK   11  A    between atoms: C_26  and  C_29
REMARK   12  A    between atoms: C_32  and  O_37
REMARK   13  A    between atoms: C_33  and  O_35
REMARK   14  A    between atoms: O_35  and  C_36
REMARK   15  A    between atoms: O_37  and  C_38
REMARK                            x       y       z     vdW  Elec       q    Type
REMARK                         _______ _______ _______ _____ _____    ______ ____
ROOT
ATOM      1  C   UNL     1      -4.158   2.974   2.150  0.00  0.00    +0.065 C 
ATOM      2  C   UNL     1      -4.740   2.658   0.981  0.00  0.00    +0.016 C 
ATOM      3  N   UNL     1      -4.114   1.820   0.100  0.00  0.00    -0.321 N 
ATOM      4  C   UNL     1      -2.765   1.601   0.183  0.00  0.00    +0.016 C 
ATOM      5  C   UNL     1      -2.094   1.879   1.320  0.00  0.00    +0.024 C 
ATOM      6  C   UNL     1      -2.817   2.417   2.529  0.00  0.00    +0.092 C 
ATOM      7  C   UNL     1      -0.704   1.674   1.414  0.00  0.00    +0.162 C 
ATOM      8  O   UNL     1      -0.131   1.925   2.456  0.00  0.00    -0.292 OA
ATOM      9  C   UNL     1       0.084   1.150   0.244  0.00  0.00    +0.088 C 
ATOM     10  C   UNL     1      -0.613   1.567  -1.055  0.00  0.00    +0.032 C 
ATOM     11  C   UNL     1      -2.051   1.046  -1.025  0.00  0.00    +0.059 C 
ATOM     12  C   UNL     1      -6.090   3.231   0.637  0.00  0.00    +0.061 C 
ATOM     13  H   UNL     1      -4.695   1.314  -0.685  0.00  0.00    +0.152 HD
ENDROOT
BRANCH   6  14
ATOM     14  C   UNL     1      -3.010   1.304   3.527  0.00  0.00    -0.032 A 
ATOM     15  C   UNL     1      -3.730   0.177   3.174  0.00  0.00    +0.005 A 
ATOM     16  C   UNL     1      -3.908  -0.846   4.086  0.00  0.00    +0.004 A 
ATOM     17  C   UNL     1      -3.366  -0.746   5.353  0.00  0.00    +0.045 A 
ATOM     18  C   UNL     1      -2.643   0.383   5.709  0.00  0.00    +0.117 A 
ATOM     19  C   UNL     1      -2.462   1.407   4.790  0.00  0.00    +0.050 A 
BRANCH  18  20
ATOM     20  O   UNL     1      -2.108   0.484   6.955  0.00  0.00    -0.507 OA
ATOM     21  H   UNL     1      -1.535   1.380   7.236  0.00  0.00    +0.292 HD
ENDBRANCH  18  20
ENDBRANCH   6  14
BRANCH  10  22
ATOM     22  C   UNL     1       0.116   0.973  -2.233  0.00  0.00    -0.040 A 
ATOM     23  C   UNL     1       0.244  -0.399  -2.344  0.00  0.00    +0.008 A 
ATOM     24  C   UNL     1       0.907  -0.949  -3.426  0.00  0.00    +0.049 A 
ATOM     25  C   UNL     1       1.455  -0.124  -4.395  0.00  0.00    +0.161 A 
ATOM     26  C   UNL     1       1.331   1.257  -4.280  0.00  0.00    +0.162 A 
ATOM     27  C   UNL     1       0.660   1.802  -3.197  0.00  0.00    +0.053 A 
BRANCH  26  28
ATOM     28  O   UNL     1       1.866   2.071  -5.229  0.00  0.00    -0.491 OA
ATOM     29  C   UNL     1       1.700   3.478  -5.046  0.00  0.00    +0.277 C 
ENDBRANCH  26  28
BRANCH  25  30
ATOM     30  O   UNL     1       2.112  -0.663  -5.457  0.00  0.00    -0.491 OA
ATOM     31  C   UNL     1       2.201  -2.088  -5.509  0.00  0.00    +0.277 C 
ENDBRANCH  25  30
ENDBRANCH  10  22
BRANCH   1  32
ATOM     32  C   UNL     1      -4.823   3.849   3.041  0.00  0.00    +0.338 C 
ATOM     33  O   UNL     1      -5.859   4.390   2.703  0.00  0.00    -0.245 OA
BRANCH  32  34
ATOM     34  O   UNL     1      -4.308   4.084   4.266  0.00  0.00    -0.459 OA
BRANCH  34  35
ATOM     35  C   UNL     1      -5.031   4.978   5.114  0.00  0.00    +0.260 C 
BRANCH  35  36
ATOM     36  C   UNL     1      -4.300   5.119   6.450  0.00  0.00    +0.201 C 
BRANCH  36  37
ATOM     37  O   UNL     1      -3.032   5.744   6.235  0.00  0.00    -0.377 OA
BRANCH  37  39
ATOM     38  C   UNL     1      -0.935   6.598   7.079  0.00  0.00    +0.034 C 
ATOM     39  C   UNL     1      -2.264   5.924   7.427  0.00  0.00    +0.156 C 
ENDBRANCH  37  39
ENDBRANCH  36  37
ENDBRANCH  35  36
ENDBRANCH  34  35
ENDBRANCH  32  34
ENDBRANCH   1  32
TORSDOF 11
