REMARK  Name = ZINC20599502
REMARK  6 active torsions:
REMARK  status: ('A' for Active; 'I' for Inactive)
REMARK    1  A    between atoms: C_1  and  C_2
REMARK    2  A    between atoms: C_12  and  C_17
REMARK    3  A    between atoms: N_19  and  C_20
REMARK    4  A    between atoms: C_20  and  C_21
REMARK    5  A    between atoms: C_21  and  C_22
REMARK    6  A    between atoms: N_26  and  C_27
REMARK                            x       y       z     vdW  Elec       q    Type
REMARK                         _______ _______ _______ _____ _____    ______ ____
ROOT
ATOM      1  C   UNL     1       4.507  11.415  -9.148  0.00  0.00    +0.044 C 
ATOM      2  C   UNL     1       4.442  10.348  -8.086  0.00  0.00    -0.050 A 
ATOM      3  C   UNL     1       4.726   9.037  -8.434  0.00  0.00    +0.005 A 
ATOM      4  C   UNL     1       4.686   8.004  -7.514  0.00  0.00    +0.026 A 
ATOM      5  C   UNL     1       4.345   8.337  -6.205  0.00  0.00    +0.047 A 
ATOM      6  C   UNL     1       4.054   9.681  -5.854  0.00  0.00    +0.003 A 
ATOM      7  C   UNL     1       4.102  10.705  -6.805  0.00  0.00    +0.013 A 
ATOM      8  C   UNL     1       3.744   9.666  -4.440  0.00  0.00    -0.018 A 
ATOM      9  C   UNL     1       3.856   8.384  -4.023  0.00  0.00    +0.032 A 
ATOM     10  N   UNL     1       4.213   7.585  -5.074  0.00  0.00    -0.357 N 
ATOM     11  H   UNL     1       4.392   6.500  -5.111  0.00  0.00    +0.166 HD
ATOM     12  C   UNL     1       3.604   7.944  -2.599  0.00  0.00    +0.122 C 
ATOM     13  C   UNL     1       2.830   9.049  -1.872  0.00  0.00    +0.019 C 
ATOM     14  C   UNL     1       3.535  10.391  -2.089  0.00  0.00    +0.006 C 
ATOM     15  C   UNL     1       3.365  10.823  -3.550  0.00  0.00    +0.037 C 
ENDROOT
BRANCH  12  16
ATOM     16  C   UNL     1       2.792   6.674  -2.599  0.00  0.00    +0.222 C 
ATOM     17  O   UNL     1       2.456   6.169  -3.648  0.00  0.00    -0.275 OA
ATOM     18  N   UNL     1       2.441   6.100  -1.431  0.00  0.00    -0.314 N 
ATOM     19  H   UNL     1       2.746   6.558  -0.479  0.00  0.00    +0.149 HD
BRANCH  18  20
ATOM     20  C   UNL     1       1.652   4.865  -1.430  0.00  0.00    +0.112 C 
BRANCH  20  21
ATOM     21  C   UNL     1       1.391   4.428   0.013  0.00  0.00    +0.095 C 
BRANCH  21  22
ATOM     22  C   UNL     1       0.580   3.158   0.013  0.00  0.00    +0.134 A 
ATOM     23  N   UNL     1      -0.722   3.072   0.025  0.00  0.00    -0.135 NA
ATOM     24  N   UNL     1      -1.074   1.835   0.017  0.00  0.00    -0.138 NA
ATOM     25  C   UNL     1      -0.013   1.076   0.008  0.00  0.00    +0.224 A 
ATOM     26  N   UNL     1       1.068   1.894   0.002  0.00  0.00    -0.320 N 
ATOM     27  C   UNL     1       2.477   1.492  -0.014  0.00  0.00    +0.151 C 
ENDBRANCH  21  22
ENDBRANCH  20  21
ENDBRANCH  18  20
ENDBRANCH  12  16
TORSDOF 4
