REMARK  Name = ZINC39694602
REMARK  5 active torsions:
REMARK  status: ('A' for Active; 'I' for Inactive)
REMARK    1  A    between atoms: C_9  and  C_12
REMARK    2  A    between atoms: C_16  and  C_25
REMARK    3  A    between atoms: N_27  and  C_28
REMARK    4  A    between atoms: C_28  and  C_29
REMARK    5  A    between atoms: C_29  and  N_30
REMARK                            x       y       z     vdW  Elec       q    Type
REMARK                         _______ _______ _______ _____ _____    ______ ____
ROOT
ATOM      1  C   UNL     1       5.032  -2.688   0.034  0.00  0.00    +0.260 C 
ATOM      2  O   UNL     1       5.912  -2.063   0.587  0.00  0.00    -0.271 OA
ATOM      3  N   UNL     1       5.251  -3.960  -0.353  0.00  0.00    -0.297 N 
ATOM      4  C   UNL     1       4.310  -4.874  -1.043  0.00  0.00    +0.121 C 
ATOM      5  C   UNL     1       5.183  -5.634  -2.066  0.00  0.00    +0.100 C 
ATOM      6  C   UNL     1       6.610  -5.558  -1.498  0.00  0.00    -0.004 C 
ATOM      7  C   UNL     1       6.489  -4.759  -0.192  0.00  0.00    +0.115 C 
ATOM      8  C   UNL     1       7.141  -6.960  -1.213  0.00  0.00    -0.010 C 
ATOM      9  C   UNL     1       8.581  -6.861  -0.704  0.00  0.00    -0.082 C 
ATOM     10  N   UNL     1       9.415  -6.196  -1.712  0.00  0.00    +0.379 N 
ATOM     11  C   UNL     1       8.954  -4.817  -1.912  0.00  0.00    -0.082 C 
ATOM     12  C   UNL     1       7.529  -4.829  -2.473  0.00  0.00    -0.010 C 
ATOM     13  H   UNL     1      10.374  -6.187  -1.400  0.00  0.00    -0.086 HD
ATOM     14  H   UNL     1       9.352  -6.700  -2.584  0.00  0.00    -0.086 HD
ENDROOT
BRANCH   1  23
ATOM     15  C   UNL     1       0.116   1.296   0.544  0.00  0.00    +0.004 A 
ATOM     16  C   UNL     1       1.295   2.013   0.466  0.00  0.00    +0.004 A 
ATOM     17  C   UNL     1       2.503   1.351   0.349  0.00  0.00    +0.049 A 
ATOM     18  C   UNL     1       2.534  -0.035   0.308  0.00  0.00    +0.163 A 
ATOM     19  C   UNL     1       1.349  -0.756   0.383  0.00  0.00    +0.162 A 
ATOM     20  C   UNL     1       0.140  -0.086   0.503  0.00  0.00    +0.049 A 
ATOM     21  O   UNL     1       1.357  -2.116   0.337  0.00  0.00    -0.484 OA
ATOM     22  C   UNL     1       2.609  -2.761   0.591  0.00  0.00    +0.283 C 
ATOM     23  C   UNL     1       3.695  -2.042  -0.221  0.00  0.00    +0.296 C 
ATOM     24  O   UNL     1       3.732  -0.672   0.195  0.00  0.00    -0.473 OA
ENDBRANCH   1  23
BRANCH   5  25
ATOM     25  C   UNL     1       4.735  -7.068  -2.176  0.00  0.00    +0.218 C 
ATOM     26  O   UNL     1       4.249  -7.627  -1.215  0.00  0.00    -0.275 OA
ATOM     27  N   UNL     1       4.874  -7.731  -3.341  0.00  0.00    -0.313 N 
ATOM     28  H   UNL     1       5.262  -7.284  -4.109  0.00  0.00    +0.149 HD
BRANCH  27  29
ATOM     29  C   UNL     1       4.438  -9.126  -3.447  0.00  0.00    +0.127 C 
BRANCH  29  30
ATOM     30  C   UNL     1       4.706  -9.637  -4.864  0.00  0.00    +0.162 C 
BRANCH  30  31
ATOM     31  N   UNL     1       4.270 -11.032  -4.971  0.00  0.00    -0.270 N 
ATOM     32  C   UNL     1       3.407 -11.526  -5.883  0.00  0.00    +0.108 A 
ATOM     33  C   UNL     1       3.269 -12.851  -5.644  0.00  0.00    +0.041 A 
ATOM     34  C   UNL     1       4.075 -13.177  -4.548  0.00  0.00    +0.134 A 
ATOM     35  N   UNL     1       4.680 -12.088  -4.147  0.00  0.00    -0.180 NA
ENDBRANCH  30  31
ENDBRANCH  29  30
ENDBRANCH  27  29
ENDBRANCH   5  25
TORSDOF 5
