REMARK  Name = ZINC62777865
REMARK  5 active torsions:
REMARK  status: ('A' for Active; 'I' for Inactive)
REMARK    1  A    between atoms: C_3  and  O_19
REMARK    2  A    between atoms: C_6  and  C_7
REMARK    3  A    between atoms: C_8  and  C_13
REMARK    4  A    between atoms: C_11  and  N_12
REMARK    5  A    between atoms: O_19  and  C_20
REMARK                            x       y       z     vdW  Elec       q    Type
REMARK                         _______ _______ _______ _____ _____    ______ ____
ROOT
ATOM      1  C   UNL     1      -1.270  -0.764   0.010  0.00  0.00    +0.071 A 
ATOM      2  C   UNL     1      -1.759  -1.640   1.077  0.00  0.00    +0.126 A 
ATOM      3  N   UNL     1      -2.918  -2.115   0.688  0.00  0.00    -0.075 NA
ATOM      4  O   UNL     1      -3.220  -1.593  -0.590  0.00  0.00    -0.339 OA
ATOM      5  C   UNL     1      -2.227  -0.779  -0.984  0.00  0.00    +0.224 A 
ENDROOT
BRANCH   1  11
ATOM      6  C   UNL     1      -0.017   1.390   0.010  0.00  0.00    +0.012 A 
ATOM      7  C   UNL     1       1.169   2.094   0.002  0.00  0.00    +0.046 A 
ATOM      8  C   UNL     1       2.380   1.417  -0.013  0.00  0.00    +0.127 A 
ATOM      9  C   UNL     1       2.403   0.029  -0.021  0.00  0.00    +0.046 A 
ATOM     10  C   UNL     1       1.221  -0.681  -0.014  0.00  0.00    +0.012 A 
ATOM     11  C   UNL     1       0.002  -0.004   0.002  0.00  0.00    -0.011 A 
BRANCH   8  12
ATOM     12  O   UNL     1       3.547   2.114  -0.021  0.00  0.00    -0.434 OA
BRANCH  12  13
ATOM     13  C   UNL     1       4.757   1.354  -0.036  0.00  0.00    +0.541 C 
ATOM     14  F   UNL     1       4.812   0.542   1.101  0.00  0.00    -0.166 F 
ATOM     15  F   UNL     1       4.790   0.553  -1.183  0.00  0.00    -0.166 F 
ENDBRANCH  12  13
ENDBRANCH   8  12
ENDBRANCH   1  11
BRANCH   2  16
ATOM     16  C   UNL     1      -1.072  -1.935   2.359  0.00  0.00    +0.041 A 
ATOM     17  C   UNL     1      -1.672  -2.148   3.566  0.00  0.00    +0.115 A 
ATOM     18  N   UNL     1      -0.700  -2.381   4.469  0.00  0.00    -0.284 N 
ATOM     19  H   UNL     1      -0.833  -2.565   5.412  0.00  0.00    +0.188 HD
ATOM     20  N   UNL     1       0.534  -2.313   3.812  0.00  0.00    -0.182 NA
ATOM     21  C   UNL     1       0.319  -2.053   2.550  0.00  0.00    +0.144 A 
ENDBRANCH   2  16
BRANCH   5  22
ATOM     22  N   UNL     1      -2.172  -0.083  -2.174  0.00  0.00    -0.327 N 
ATOM     23  H   UNL     1      -1.408   0.481  -2.371  0.00  0.00    +0.145 HD
ATOM     24  H   UNL     1      -2.897  -0.158  -2.814  0.00  0.00    +0.145 HD
ENDBRANCH   5  22
TORSDOF 5
