REMARK  Name = ZINC20642186
REMARK  5 active torsions:
REMARK  status: ('A' for Active; 'I' for Inactive)
REMARK    1  A    between atoms: C_1  and  C_2
REMARK    2  A    between atoms: N_17  and  C_18
REMARK    3  A    between atoms: C_21  and  C_24
REMARK    4  A    between atoms: C_24  and  O_26
REMARK    5  A    between atoms: O_26  and  C_27
REMARK                            x       y       z     vdW  Elec       q    Type
REMARK                         _______ _______ _______ _____ _____    ______ ____
ROOT
ATOM      1  C   UNL     1      -0.503  -4.506   0.102  0.00  0.00    +0.079 C 
ATOM      2  C   UNL     1      -0.284  -3.018  -0.179  0.00  0.00    +0.183 C 
ATOM      3  C   UNL     1      -1.420  -2.212   0.468  0.00  0.00    +0.096 C 
ATOM      4  C   UNL     1      -1.223  -0.747   0.047  0.00  0.00    +0.111 C 
ATOM      5  C   UNL     1       0.185  -0.335   0.413  0.00  0.00    +0.016 A 
ATOM      6  C   UNL     1       0.463   1.008   0.599  0.00  0.00    +0.009 A 
ATOM      7  C   UNL     1       1.743   1.414   0.926  0.00  0.00    +0.002 A 
ATOM      8  C   UNL     1       2.750   0.476   1.065  0.00  0.00    +0.024 A 
ATOM      9  C   UNL     1       2.477  -0.865   0.881  0.00  0.00    +0.083 A 
ATOM     10  C   UNL     1       1.187  -1.278   0.556  0.00  0.00    +0.147 A 
ATOM     11  O   UNL     1       0.953  -2.605   0.394  0.00  0.00    -0.466 OA
ATOM     12 CL   UNL     1       3.744  -2.038   1.055  0.00  0.00    -0.080 Cl
ATOM     13  N   UNL     1      -1.329  -0.689  -1.421  0.00  0.00    -0.319 N 
ATOM     14  C   UNL     1      -0.831  -1.690  -2.166  0.00  0.00    +0.141 C 
ATOM     15  S   UNL     1      -0.887  -1.555  -3.871  0.00  0.00    -0.018 S 
ATOM     16  N   UNL     1      -0.292  -2.791  -1.621  0.00  0.00    -0.244 N 
ATOM     17  H   UNL     1      -1.815   0.173  -1.903  0.00  0.00    +0.148 HD
ENDROOT
BRANCH  16  18
ATOM     18  C   UNL     1       0.279  -3.747  -2.458  0.00  0.00    +0.039 A 
ATOM     19  C   UNL     1      -0.521  -4.723  -3.046  0.00  0.00    +0.024 A 
ATOM     20  C   UNL     1       0.039  -5.666  -3.877  0.00  0.00    +0.017 A 
ATOM     21  C   UNL     1       1.416  -5.650  -4.122  0.00  0.00    +0.059 A 
ATOM     22  C   UNL     1       2.217  -4.672  -3.526  0.00  0.00    +0.017 A 
ATOM     23  C   UNL     1       1.650  -3.728  -2.700  0.00  0.00    +0.024 A 
BRANCH  21  24
ATOM     24  C   UNL     1       2.020  -6.662  -5.007  0.00  0.00    +0.339 C 
ATOM     25  O   UNL     1       3.217  -6.647  -5.219  0.00  0.00    -0.245 OA
BRANCH  24  26
ATOM     26  O   UNL     1       1.246  -7.604  -5.581  0.00  0.00    -0.464 OA
ATOM     27  C   UNL     1       1.909  -8.569  -6.440  0.00  0.00    +0.280 C 
ENDBRANCH  24  26
ENDBRANCH  21  24
ENDBRANCH  16  18
TORSDOF 3
