REMARK  Name = ZINC40986870
REMARK  11 active torsions:
REMARK  status: ('A' for Active; 'I' for Inactive)
REMARK    1  A    between atoms: C_1  and  C_2
REMARK    2  A    between atoms: C_2  and  C_3
REMARK    3  A    between atoms: C_3  and  C_4
REMARK    4  A    between atoms: C_4  and  S_5
REMARK    5  A    between atoms: S_5  and  C_6
REMARK    6  A    between atoms: C_11  and  C_20
REMARK    7  A    between atoms: C_13  and  C_17
REMARK    8  A    between atoms: C_14  and  C_16
REMARK    9  A    between atoms: C_23  and  O_26
REMARK   10  A    between atoms: O_26  and  C_27
REMARK   11  A    between atoms: C_27  and  C_28
REMARK                            x       y       z     vdW  Elec       q    Type
REMARK                         _______ _______ _______ _____ _____    ______ ____
ROOT
ATOM      1  C   UNL     1       1.059  -4.384  -2.662  0.00  0.00    +0.210 A 
ATOM      2  N   UNL     1       0.577  -5.134  -1.660  0.00  0.00    -0.187 NA
ATOM      3  C   UNL     1       0.907  -6.383  -1.853  0.00  0.00    +0.219 A 
ATOM      4  N   UNL     1       1.616  -6.457  -3.006  0.00  0.00    -0.220 N 
ATOM      5  N   UNL     1       1.699  -5.160  -3.509  0.00  0.00    -0.141 NA
ATOM      6  C   UNL     1       2.145  -7.705  -3.550  0.00  0.00    +0.177 C 
ATOM      7  C   UNL     1       2.044  -8.788  -2.509  0.00  0.00    +0.060 C 
ATOM      8  C   UNL     1       1.329  -8.656  -1.382  0.00  0.00    +0.018 C 
ATOM      9  N   UNL     1       0.638  -7.507  -1.085  0.00  0.00    -0.287 N 
ATOM     10  C   UNL     1       1.282  -9.806  -0.410  0.00  0.00    +0.061 C 
ATOM     11  H   UNL     1      -0.013  -7.482  -0.366  0.00  0.00    +0.155 HD
ENDROOT
BRANCH   6  12
ATOM     12  C   UNL     1       1.349  -8.102  -4.766  0.00  0.00    -0.018 A 
ATOM     13  C   UNL     1      -0.010  -8.329  -4.658  0.00  0.00    +0.009 A 
ATOM     14  C   UNL     1      -0.742  -8.692  -5.772  0.00  0.00    +0.046 A 
ATOM     15  C   UNL     1      -0.112  -8.829  -7.000  0.00  0.00    +0.121 A 
ATOM     16  C   UNL     1       1.252  -8.600  -7.106  0.00  0.00    +0.046 A 
ATOM     17  C   UNL     1       1.979  -8.232  -5.991  0.00  0.00    +0.009 A 
BRANCH  15  18
ATOM     18  O   UNL     1      -0.829  -9.187  -8.097  0.00  0.00    -0.487 OA
BRANCH  18  19
ATOM     19  C   UNL     1      -0.115  -9.309  -9.329  0.00  0.00    +0.267 C 
BRANCH  19  20
ATOM     20  C   UNL     1      -1.068  -9.710 -10.425  0.00  0.00    +0.025 A 
ATOM     21  C   UNL     1      -2.408  -9.893 -10.143  0.00  0.00    +0.010 A 
ATOM     22  C   UNL     1      -3.283 -10.261 -11.148  0.00  0.00    +0.001 A 
ATOM     23  C   UNL     1      -2.817 -10.447 -12.437  0.00  0.00    +0.003 A 
ATOM     24  C   UNL     1      -1.478 -10.264 -12.721  0.00  0.00    +0.039 A 
ATOM     25  C   UNL     1      -0.602  -9.890 -11.716  0.00  0.00    +0.130 A 
ATOM     26  F   UNL     1       0.708  -9.707 -11.994  0.00  0.00    -0.205 F 
ENDBRANCH  19  20
ENDBRANCH  18  19
ENDBRANCH  15  18
ENDBRANCH   6  12
BRANCH   7  27
ATOM     27  C   UNL     1       2.735 -10.003  -2.730  0.00  0.00    +0.241 C 
ATOM     28  O   UNL     1       3.925 -10.081  -2.485  0.00  0.00    -0.271 OA
ATOM     29  N   UNL     1       2.075 -11.075  -3.213  0.00  0.00    -0.325 N 
ATOM     30  H   UNL     1       1.127 -11.014  -3.409  0.00  0.00    +0.145 HD
ATOM     31  H   UNL     1       2.549 -11.908  -3.365  0.00  0.00    +0.145 HD
ENDBRANCH   7  27
BRANCH   1  32
ATOM     32  S   UNL     1       0.860  -2.640  -2.820  0.00  0.00    -0.084 S 
BRANCH  32  33
ATOM     33  C   UNL     1      -0.100  -2.173  -1.353  0.00  0.00    +0.077 C 
BRANCH  33  34
ATOM     34  C   UNL     1      -0.347  -0.663  -1.366  0.00  0.00    +0.011 C 
BRANCH  34  36
ATOM     35  C   UNL     1      -1.403   1.242  -0.141  0.00  0.00    +0.004 C 
ATOM     36  C   UNL     1      -1.156  -0.268  -0.129  0.00  0.00    -0.003 C 
ENDBRANCH  34  36
ENDBRANCH  33  34
ENDBRANCH  32  33
ENDBRANCH   1  32
TORSDOF 9
