REMARK  Name = ZINC41161010
REMARK  4 active torsions:
REMARK  status: ('A' for Active; 'I' for Inactive)
REMARK    1  A    between atoms: C_1  and  C_2
REMARK    2  A    between atoms: C_2  and  C_3
REMARK    3  A    between atoms: C_3  and  C_4
REMARK    4  A    between atoms: C_6  and  C_10
REMARK                            x       y       z     vdW  Elec       q    Type
REMARK                         _______ _______ _______ _____ _____    ______ ____
ROOT
ATOM      1  C   UNL     1      -1.413  -2.041   0.005  0.00  0.00    +0.151 A 
ATOM      2  N   UNL     1      -1.407  -2.803  -1.085  0.00  0.00    -0.211 NA
ATOM      3  C   UNL     1      -1.388  -4.077  -0.738  0.00  0.00    +0.163 A 
ATOM      4  N   UNL     1      -1.381  -4.133   0.621  0.00  0.00    -0.258 N 
ATOM      5  H   UNL     1      -1.367  -4.932   1.171  0.00  0.00    +0.191 HD
ATOM      6  N   UNL     1      -1.392  -2.802   1.067  0.00  0.00    -0.157 NA
ENDROOT
BRANCH   3   7
ATOM      7  C   UNL     1      -1.377  -5.228  -1.656  0.00  0.00    +0.056 A 
ATOM      8  C   UNL     1      -1.362  -6.565  -1.363  0.00  0.00    +0.023 A 
ATOM      9  C   UNL     1      -1.353  -7.496  -2.393  0.00  0.00    -0.036 A 
ATOM     10  C   UNL     1      -1.358  -7.003  -3.666  0.00  0.00    -0.006 A 
ATOM     11  S   UNL     1      -1.385  -5.244  -3.442  0.00  0.00    -0.090 S 
ATOM     12  C   UNL     1      -1.348  -7.779  -4.942  0.00  0.00    +0.043 C 
ATOM     13  C   UNL     1      -0.960  -9.231  -4.621  0.00  0.00    +0.005 C 
ATOM     14  C   UNL     1      -1.794  -9.710  -3.430  0.00  0.00    +0.005 C 
ATOM     15  C   UNL     1      -1.337  -9.003  -2.153  0.00  0.00    +0.036 C 
ENDBRANCH   3   7
BRANCH   1  16
ATOM     16  C   UNL     1      -1.433  -0.534   0.013  0.00  0.00    +0.078 C 
BRANCH  16  18
ATOM     17  C   UNL     1      -0.019   1.526   0.010  0.00  0.00    +0.004 C 
ATOM     18  C   UNL     1       0.002  -0.004   0.002  0.00  0.00    +0.004 C 
ENDBRANCH  16  18
ENDBRANCH   1  16
TORSDOF 3
