REMARK  Name = ZINC03670382
REMARK  12 active torsions:
REMARK  status: ('A' for Active; 'I' for Inactive)
REMARK    1  A    between atoms: C_1  and  C_2
REMARK    2  A    between atoms: C_2  and  C_3
REMARK    3  A    between atoms: C_3  and  C_4
REMARK    4  A    between atoms: C_4  and  N_60
REMARK    5  A    between atoms: C_5  and  N_60
REMARK    6  A    between atoms: C_6  and  C_7
REMARK    7  A    between atoms: C_6  and  N_60
REMARK    8  A    between atoms: C_7  and  C_8
REMARK    9  A    between atoms: C_8  and  N_9
REMARK   10  A    between atoms: C_10  and  C_12
REMARK   11  A    between atoms: C_12  and  O_29
REMARK   12  A    between atoms: N_22  and  C_23
REMARK                            x       y       z     vdW  Elec       q    Type
REMARK                         _______ _______ _______ _____ _____    ______ ____
ROOT
ATOM      1  C   UNL     1       2.496   3.854   0.424  0.00  0.00    +0.247 C 
ATOM      2  C   UNL     1       1.178   3.115   0.402  0.00  0.00    +0.033 A 
ATOM      3  C   UNL     1       0.009   3.726   0.795  0.00  0.00    +0.010 A 
ATOM      4  C   UNL     1      -1.180   3.018   0.762  0.00  0.00    +0.001 A 
ATOM      5  C   UNL     1      -1.192   1.704   0.328  0.00  0.00    +0.002 A 
ATOM      6  C   UNL     1      -0.019   1.087  -0.061  0.00  0.00    +0.024 A 
ATOM      7  C   UNL     1       1.177   1.793  -0.029  0.00  0.00    +0.043 A 
ATOM      8  N   UNL     1       2.371   1.190  -0.423  0.00  0.00    -0.269 N 
ATOM      9  C   UNL     1       3.549   1.828  -0.411  0.00  0.00    +0.314 C 
ATOM     10  O   UNL     1       4.540   1.223  -0.772  0.00  0.00    -0.252 OA
ATOM     11  N   UNL     1       3.686   3.107  -0.017  0.00  0.00    -0.214 N 
ATOM     12  H   UNL     1       2.348   0.267  -0.720  0.00  0.00    +0.156 HD
ENDROOT
BRANCH  11  13
ATOM     13  C   UNL     1       4.944   3.719  -0.026  0.00  0.00    +0.041 A 
ATOM     14  C   UNL     1       5.339   4.482  -1.117  0.00  0.00    +0.024 A 
ATOM     15  C   UNL     1       6.579   5.090  -1.121  0.00  0.00    +0.002 A 
ATOM     16  C   UNL     1       7.432   4.931  -0.044  0.00  0.00    +0.000 A 
ATOM     17  C   UNL     1       7.044   4.168   1.042  0.00  0.00    +0.002 A 
ATOM     18  C   UNL     1       5.803   3.562   1.054  0.00  0.00    +0.024 A 
ENDBRANCH  11  13
BRANCH   1  20
ATOM     19  N   UNL     1       2.926   3.430   2.823  0.00  0.00    -0.311 N 
ATOM     20  C   UNL     1       2.740   4.327   1.835  0.00  0.00    +0.269 C 
ATOM     21  O   UNL     1       2.769   5.514   2.080  0.00  0.00    -0.270 OA
ATOM     22  H   UNL     1       2.903   2.480   2.627  0.00  0.00    +0.149 HD
BRANCH  19  23
ATOM     23  C   UNL     1       3.163   3.889   4.194  0.00  0.00    +0.102 C 
BRANCH  23  24
ATOM     24  C   UNL     1       3.341   2.680   5.114  0.00  0.00    +0.000 C 
BRANCH  24  25
ATOM     25  C   UNL     1       3.589   3.160   6.545  0.00  0.00    -0.078 C 
BRANCH  25  27
ATOM     26  C   UNL     1       2.514   1.226   7.529  0.00  0.00    -0.096 C 
ATOM     27  N   UNL     1       3.780   1.981   7.417  0.00  0.00    +0.378 N 
ATOM     28  H   UNL     1       4.495   1.373   7.003  0.00  0.00    -0.082 HD
BRANCH  27  29
ATOM     29  C   UNL     1       4.232   2.412   8.757  0.00  0.00    -0.079 C 
BRANCH  29  30
ATOM     30  C   UNL     1       4.634   1.175   9.562  0.00  0.00    -0.019 C 
BRANCH  30  32
ATOM     31  C   UNL     1       5.529   0.369  11.752  0.00  0.00    +0.004 C 
ATOM     32  C   UNL     1       5.126   1.606  10.946  0.00  0.00    -0.005 C 
ENDBRANCH  30  32
ENDBRANCH  29  30
ENDBRANCH  27  29
ENDBRANCH  25  27
ENDBRANCH  24  25
ENDBRANCH  23  24
ENDBRANCH  19  23
ENDBRANCH   1  20
BRANCH   1  33
ATOM     33  O   UNL     1       2.368   5.009  -0.407  0.00  0.00    -0.360 OA
ATOM     34  H   UNL     1       1.677   5.623  -0.123  0.00  0.00    +0.213 HD
ENDBRANCH   1  33
TORSDOF 10
