REMARK  Name = ZINC20228005
REMARK  10 active torsions:
REMARK  status: ('A' for Active; 'I' for Inactive)
REMARK    1  A    between atoms: C_1  and  O_2
REMARK    2  A    between atoms: O_2  and  C_3
REMARK    3  A    between atoms: C_5  and  C_13
REMARK    4  A    between atoms: C_6  and  N_10
REMARK    5  A    between atoms: C_8  and  O_9
REMARK    6  A    between atoms: N_14  and  N_15
REMARK    7  A    between atoms: C_18  and  S_21
REMARK    8  A    between atoms: S_21  and  C_22
REMARK    9  A    between atoms: C_22  and  C_23
REMARK   10  A    between atoms: N_25  and  C_26
REMARK                            x       y       z     vdW  Elec       q    Type
REMARK                         _______ _______ _______ _____ _____    ______ ____
ROOT
ATOM      1  N   UNL     1       4.700   4.118  -0.174  0.00  0.00    -0.205 N 
ATOM      2  C   UNL     1       4.678   5.454  -0.260  0.00  0.00    +0.232 A 
ATOM      3  N   UNL     1       5.770   6.287  -0.268  0.00  0.00    -0.186 NA
ATOM      4  C   UNL     1       5.276   7.557  -0.368  0.00  0.00    +0.211 A 
ATOM      5  N   UNL     1       3.934   7.464  -0.417  0.00  0.00    -0.144 NA
ATOM      6  N   UNL     1       3.584   6.228  -0.359  0.00  0.00    -0.245 N 
ATOM      7  H   UNL     1       5.661   3.587  -0.102  0.00  0.00    +0.177 HD
ATOM      8  H   UNL     1       2.585   5.768  -0.379  0.00  0.00    +0.192 HD
ENDROOT
BRANCH   1  10
ATOM      9  C   UNL     1       3.616   2.138  -0.094  0.00  0.00    +0.140 C 
ATOM     10  N   UNL     1       3.594   3.453  -0.177  0.00  0.00    -0.187 NA
BRANCH   9  13
ATOM     11  C   UNL     1       1.238  -0.698  -0.131  0.00  0.00    +0.162 A 
ATOM     12  C   UNL     1       2.424   0.002  -0.129  0.00  0.00    +0.061 A 
ATOM     13  C   UNL     1       2.402   1.409  -0.097  0.00  0.00    +0.028 A 
ATOM     14  C   UNL     1       1.169   2.088  -0.067  0.00  0.00    +0.138 A 
ATOM     15  C   UNL     1       0.001   1.384  -0.070  0.00  0.00    +0.082 A 
ATOM     16  C   UNL     1       0.019  -0.009  -0.102  0.00  0.00    +0.161 A 
BRANCH  14  17
ATOM     17  N   UNL     1       1.140   3.567  -0.033  0.00  0.00    +0.057 N 
ATOM     18  O   UNL     1       1.792   4.217   0.908  0.00  0.00    -0.126 OA
ATOM     19  O   UNL     1       0.463   4.234  -0.945  0.00  0.00    -0.126 OA
ENDBRANCH  14  17
BRANCH  11  21
ATOM     20  C   UNL     1       2.529  -2.694  -0.191  0.00  0.00    +0.277 C 
ATOM     21  O   UNL     1       1.250  -2.057  -0.163  0.00  0.00    -0.491 OA
ENDBRANCH  11  21
BRANCH  16  22
ATOM     22  O   UNL     1      -1.147  -0.700  -0.104  0.00  0.00    -0.503 OA
ATOM     23  H   UNL     1      -2.106  -0.160  -0.081  0.00  0.00    +0.292 HD
ENDBRANCH  16  22
ENDBRANCH   9  13
ENDBRANCH   1  10
BRANCH   4  24
ATOM     24  S   UNL     1       6.195   9.000  -0.422  0.00  0.00    -0.075 S 
BRANCH  24  25
ATOM     25  C   UNL     1       4.861  10.217  -0.553  0.00  0.00    +0.173 C 
BRANCH  25  26
ATOM     26  C   UNL     1       5.450  11.603  -0.616  0.00  0.00    +0.228 C 
ATOM     27  O   UNL     1       6.653  11.753  -0.577  0.00  0.00    -0.275 OA
ATOM     28  N   UNL     1       4.640  12.675  -0.717  0.00  0.00    -0.284 N 
ATOM     29  H   UNL     1       3.549  12.547  -0.662  0.00  0.00    +0.155 HD
BRANCH  28  30
ATOM     30  C   UNL     1       5.187  13.952  -0.892  0.00  0.00    +0.052 A 
ATOM     31  C   UNL     1       6.444  14.098  -1.464  0.00  0.00    +0.025 A 
ATOM     32  C   UNL     1       6.979  15.359  -1.641  0.00  0.00    +0.002 A 
ATOM     33  C   UNL     1       6.269  16.476  -1.238  0.00  0.00    +0.002 A 
ATOM     34  C   UNL     1       5.020  16.334  -0.663  0.00  0.00    +0.022 A 
ATOM     35  C   UNL     1       4.476  15.075  -0.488  0.00  0.00    +0.062 A 
ATOM     36 CL   UNL     1       2.908  14.898   0.234  0.00  0.00    -0.082 Cl
ENDBRANCH  28  30
ENDBRANCH  25  26
ENDBRANCH  24  25
ENDBRANCH   4  24
TORSDOF 9
