REMARK  Name = ZINC40569152
REMARK  10 active torsions:
REMARK  status: ('A' for Active; 'I' for Inactive)
REMARK    1  A    between atoms: C_1  and  C_2
REMARK    2  A    between atoms: C_2  and  C_3
REMARK    3  A    between atoms: C_3  and  C_4
REMARK    4  A    between atoms: N_10  and  C_11
REMARK    5  A    between atoms: C_12  and  C_20
REMARK    6  A    between atoms: C_14  and  C_18
REMARK    7  A    between atoms: C_15  and  N_17
REMARK    8  A    between atoms: C_23  and  C_26
REMARK    9  A    between atoms: C_26  and  C_27
REMARK   10  A    between atoms: C_26  and  C_28
REMARK                            x       y       z     vdW  Elec       q    Type
REMARK                         _______ _______ _______ _____ _____    ______ ____
ROOT
ATOM      1  C   UNL     1      -1.202  -2.054  -0.007  0.00  0.00    +0.025 A 
ATOM      2  C   UNL     1      -1.181  -2.726   1.164  0.00  0.00    +0.068 A 
ATOM      3  C   UNL     1      -1.377  -4.122   1.174  0.00  0.00    +0.141 A 
ATOM      4  C   UNL     1      -1.588  -4.776  -0.022  0.00  0.00    +0.072 A 
ATOM      5  C   UNL     1      -1.601  -4.037  -1.212  0.00  0.00    +0.259 A 
ATOM      6  O   UNL     1      -1.786  -4.602  -2.279  0.00  0.00    -0.267 OA
ATOM      7  N   UNL     1      -1.415  -2.704  -1.181  0.00  0.00    -0.315 N 
ATOM      8  C   UNL     1      -1.437  -1.944  -2.433  0.00  0.00    +0.152 C 
ATOM      9  C   UNL     1      -1.803  -6.264  -0.058  0.00  0.00    +0.103 C 
ATOM     10  C   UNL     1      -1.360  -6.882   1.239  0.00  0.00    +0.098 C 
ATOM     11  C   UNL     1      -1.166  -6.127   2.347  0.00  0.00    +0.199 C 
ATOM     12  O   UNL     1      -1.358  -4.796   2.343  0.00  0.00    -0.441 OA
ENDROOT
BRANCH   9  13
ATOM     13  C   UNL     1      -3.266  -6.552  -0.271  0.00  0.00    -0.034 A 
ATOM     14  C   UNL     1      -4.201  -6.095   0.639  0.00  0.00    +0.005 A 
ATOM     15  C   UNL     1      -5.543  -6.359   0.443  0.00  0.00    +0.004 A 
ATOM     16  C   UNL     1      -5.952  -7.080  -0.663  0.00  0.00    -0.045 A 
ATOM     17  C   UNL     1      -5.017  -7.537  -1.574  0.00  0.00    +0.004 A 
ATOM     18  C   UNL     1      -3.675  -7.269  -1.380  0.00  0.00    +0.005 A 
BRANCH  16  19
ATOM     19  C   UNL     1      -7.415  -7.370  -0.876  0.00  0.00    +0.013 C 
ATOM     20  C   UNL     1      -7.867  -6.761  -2.205  0.00  0.00    +0.012 C 
ATOM     21  C   UNL     1      -7.637  -8.883  -0.907  0.00  0.00    +0.012 C 
ENDBRANCH  16  19
ENDBRANCH   9  13
BRANCH  11  22
ATOM     22  N   UNL     1      -0.761  -6.739   3.507  0.00  0.00    -0.328 N 
ATOM     23  H   UNL     1      -0.619  -7.698   3.525  0.00  0.00    +0.145 HD
ATOM     24  H   UNL     1      -0.618  -6.212   4.309  0.00  0.00    +0.145 HD
ENDBRANCH  11  22
BRANCH  10  25
ATOM     25  C   UNL     1      -1.140  -8.295   1.305  0.00  0.00    +0.101 C 
ATOM     26  N   UNL     1      -0.965  -9.417   1.357  0.00  0.00    -0.191 NA
ENDBRANCH  10  25
BRANCH   1  27
ATOM     27  C   UNL     1      -0.993  -0.561  -0.012  0.00  0.00    +0.053 C 
BRANCH  27  29
ATOM     28  C   UNL     1      -2.131   1.659   0.111  0.00  0.00    +0.004 C 
ATOM     29  C   UNL     1      -2.344   0.144   0.116  0.00  0.00    +0.003 C 
ENDBRANCH  27  29
ENDBRANCH   1  27
TORSDOF 6
