REMARK  Name = ZINC65315474
REMARK  8 active torsions:
REMARK  status: ('A' for Active; 'I' for Inactive)
REMARK    1  A    between atoms: C_1  and  C_2
REMARK    2  A    between atoms: C_5  and  N_8
REMARK    3  A    between atoms: N_11  and  C_12
REMARK    4  A    between atoms: C_15  and  N_18
REMARK    5  A    between atoms: C_25  and  C_28
REMARK    6  A    between atoms: N_30  and  C_31
REMARK    7  A    between atoms: C_31  and  C_32
REMARK    8  A    between atoms: C_31  and  C_33
REMARK                            x       y       z     vdW  Elec       q    Type
REMARK                         _______ _______ _______ _____ _____    ______ ____
ROOT
ATOM      1  C   UNL     1       0.160  -7.000   2.277  0.00  0.00    +0.035 A 
ATOM      2  C   UNL     1       0.769  -6.436   3.390  0.00  0.00    +0.025 A 
ATOM      3  C   UNL     1       0.821  -7.136   4.579  0.00  0.00    +0.025 A 
ATOM      4  C   UNL     1       0.265  -8.406   4.661  0.00  0.00    +0.035 A 
ATOM      5  C   UNL     1      -0.343  -8.971   3.548  0.00  0.00    +0.025 A 
ATOM      6  C   UNL     1      -0.401  -8.268   2.361  0.00  0.00    +0.025 A 
ENDROOT
BRANCH   4   7
ATOM      7  N   UNL     1       0.319  -9.118   5.867  0.00  0.00    -0.269 N 
ATOM      8  C   UNL     1       0.431 -10.461   5.853  0.00  0.00    +0.306 C 
ATOM      9  O   UNL     1       0.614 -11.044   4.802  0.00  0.00    -0.252 OA
ATOM     10  N   UNL     1       0.340 -11.157   7.003  0.00  0.00    -0.285 N 
ATOM     11  C   UNL     1      -0.006 -10.481   8.261  0.00  0.00    +0.109 C 
ATOM     12  C   UNL     1      -1.202 -11.200   8.894  0.00  0.00    +0.020 C 
ATOM     13  C   UNL     1      -0.876 -12.687   9.048  0.00  0.00    +0.016 C 
ATOM     14  C   UNL     1      -0.618 -13.300   7.670  0.00  0.00    +0.092 C 
ATOM     15  C   UNL     1       0.579 -12.606   7.022  0.00  0.00    +0.122 C 
ATOM     16  H   UNL     1       0.275  -8.644   6.712  0.00  0.00    +0.156 HD
BRANCH  14  17
ATOM     17  C   UNL     1      -0.329 -14.771   7.819  0.00  0.00    +0.218 C 
ATOM     18  O   UNL     1      -0.329 -15.280   8.920  0.00  0.00    -0.275 OA
ATOM     19  N   UNL     1      -0.070 -15.522   6.730  0.00  0.00    -0.313 N 
ATOM     20  H   UNL     1      -0.070 -15.115   5.850  0.00  0.00    +0.149 HD
BRANCH  19  21
ATOM     21  C   UNL     1       0.211 -16.952   6.876  0.00  0.00    +0.067 C 
ATOM     22  C   UNL     1      -1.107 -17.729   6.917  0.00  0.00    +0.027 C 
ATOM     23  C   UNL     1       1.048 -17.431   5.688  0.00  0.00    +0.027 C 
ENDBRANCH  19  21
ENDBRANCH  14  17
ENDBRANCH   4   7
BRANCH   1  27
ATOM     24  N   UNL     1       1.018  -4.697  -0.373  0.00  0.00    -0.269 N 
ATOM     25  C   UNL     1       1.121  -5.472   0.725  0.00  0.00    +0.308 C 
ATOM     26  O   UNL     1       2.129  -5.434   1.403  0.00  0.00    -0.252 OA
ATOM     27  N   UNL     1       0.106  -6.289   1.071  0.00  0.00    -0.269 N 
ATOM     28  H   UNL     1       0.182  -4.662  -0.865  0.00  0.00    +0.156 HD
ATOM     29  H   UNL     1      -0.661  -6.384   0.486  0.00  0.00    +0.156 HD
BRANCH  24  34
ATOM     30  C   UNL     1       5.468  -1.642  -2.118  0.00  0.00    +0.044 C 
ATOM     31  C   UNL     1       4.286  -2.454  -1.654  0.00  0.00    -0.050 A 
ATOM     32  C   UNL     1       4.485  -3.689  -1.066  0.00  0.00    +0.005 A 
ATOM     33  C   UNL     1       3.404  -4.435  -0.640  0.00  0.00    +0.023 A 
ATOM     34  C   UNL     1       2.115  -3.943  -0.803  0.00  0.00    +0.035 A 
ATOM     35  C   UNL     1       1.919  -2.703  -1.394  0.00  0.00    +0.023 A 
ATOM     36  C   UNL     1       3.004  -1.959  -1.813  0.00  0.00    +0.005 A 
ENDBRANCH  24  34
ENDBRANCH   1  27
TORSDOF 5
