REMARK  Name = ZINC53851987
REMARK  8 active torsions:
REMARK  status: ('A' for Active; 'I' for Inactive)
REMARK    1  A    between atoms: C_1  and  C_2
REMARK    2  A    between atoms: C_5  and  C_8
REMARK    3  A    between atoms: C_17  and  C_19
REMARK    4  A    between atoms: C_19  and  C_20
REMARK    5  A    between atoms: C_20  and  O_22
REMARK    6  A    between atoms: O_22  and  C_23
REMARK    7  A    between atoms: C_23  and  C_24
REMARK    8  A    between atoms: C_23  and  C_25
REMARK                            x       y       z     vdW  Elec       q    Type
REMARK                         _______ _______ _______ _____ _____    ______ ____
ROOT
ATOM      1  C   UNL     1       0.058  -4.252  -0.021  0.00  0.00    +0.022 A 
ATOM      2  C   UNL     1       0.069  -5.109   1.039  0.00  0.00    +0.044 A 
ATOM      3  C   UNL     1       0.086  -6.490   0.819  0.00  0.00    +0.086 A 
ATOM      4  C   UNL     1       0.091  -6.892  -0.529  0.00  0.00    +0.102 A 
ATOM      5  S   UNL     1       0.065  -5.359  -1.421  0.00  0.00    -0.081 S 
ATOM      6  C   UNL     1       0.108  -8.241  -0.885  0.00  0.00    +0.266 A 
ATOM      7  O   UNL     1       0.113  -8.581  -2.056  0.00  0.00    -0.267 OA
ATOM      8  N   UNL     1       0.119  -9.163   0.107  0.00  0.00    -0.309 N 
ATOM      9  H   UNL     1       0.131 -10.110  -0.104  0.00  0.00    +0.170 HD
ATOM     10  C   UNL     1       0.114  -8.749   1.402  0.00  0.00    +0.121 A 
ATOM     11  N   UNL     1       0.099  -7.502   1.748  0.00  0.00    -0.233 NA
ENDROOT
BRANCH   1  16
ATOM     12  C   UNL     1      -0.018   1.503   0.010  0.00  0.00    +0.044 C 
ATOM     13  C   UNL     1       0.002  -0.004   0.002  0.00  0.00    -0.050 A 
ATOM     14  C   UNL     1       0.006  -0.686  -1.202  0.00  0.00    +0.004 A 
ATOM     15  C   UNL     1       0.024  -2.066  -1.216  0.00  0.00    +0.009 A 
ATOM     16  C   UNL     1       0.039  -2.773  -0.013  0.00  0.00    -0.011 A 
ATOM     17  C   UNL     1       0.036  -2.079   1.197  0.00  0.00    +0.009 A 
ATOM     18  C   UNL     1       0.023  -0.699   1.198  0.00  0.00    +0.004 A 
ENDBRANCH   1  16
BRANCH  10  19
ATOM     19  C   UNL     1       0.127  -9.794   2.488  0.00  0.00    +0.194 C 
BRANCH  19  20
ATOM     20  C   UNL     1       0.119  -9.119   3.835  0.00  0.00    +0.315 C 
ATOM     21  O   UNL     1       0.104  -7.913   3.906  0.00  0.00    -0.250 OA
BRANCH  20  22
ATOM     22  O   UNL     1       0.128  -9.857   4.956  0.00  0.00    -0.462 OA
BRANCH  22  23
ATOM     23  C   UNL     1       0.119  -9.150   6.198  0.00  0.00    +0.170 C 
ATOM     24  C   UNL     1      -0.592  -9.993   7.259  0.00  0.00    +0.052 C 
ATOM     25  C   UNL     1       1.559  -8.881   6.641  0.00  0.00    +0.052 C 
ENDBRANCH  22  23
ENDBRANCH  20  22
ENDBRANCH  19  20
ENDBRANCH  10  19
TORSDOF 5
