REMARK  Name = ZINC39954931
REMARK  4 active torsions:
REMARK  status: ('A' for Active; 'I' for Inactive)
REMARK    1  A    between atoms: C_6  and  N_7
REMARK    2  A    between atoms: C_8  and  N_19
REMARK    3  A    between atoms: C_9  and  C_17
REMARK    4  A    between atoms: C_10  and  C_12
REMARK                            x       y       z     vdW  Elec       q    Type
REMARK                         _______ _______ _______ _____ _____    ______ ____
ROOT
ATOM      1  N   UNL     1      -1.188  -0.738   0.010  0.00  0.00    -0.217 N 
ATOM      2  C   UNL     1      -1.397  -1.922  -0.622  0.00  0.00    +0.138 A 
ATOM      3  C   UNL     1      -2.710  -2.300  -0.354  0.00  0.00    +0.114 A 
ATOM      4  C   UNL     1      -3.274  -1.291   0.462  0.00  0.00    +0.086 A 
ATOM      5  N   UNL     1      -2.367  -0.380   0.674  0.00  0.00    -0.168 NA
ENDROOT
BRANCH   1  11
ATOM      6  C   UNL     1      -0.017   1.389   0.010  0.00  0.00    +0.047 A 
ATOM      7  C   UNL     1       1.180   2.076   0.002  0.00  0.00    +0.113 A 
ATOM      8  N   UNL     1       2.330   1.430  -0.013  0.00  0.00    -0.263 NA
ATOM      9  C   UNL     1       2.390   0.112  -0.020  0.00  0.00    +0.113 A 
ATOM     10  C   UNL     1       1.238  -0.648  -0.013  0.00  0.00    +0.047 A 
ATOM     11  C   UNL     1       0.002  -0.004   0.002  0.00  0.00    +0.070 A 
ENDBRANCH   1  11
BRANCH   4  12
ATOM     12  C   UNL     1      -4.682  -1.277   0.999  0.00  0.00    +0.041 C 
ATOM     13  C   UNL     1      -4.672  -1.122   2.540  0.00  0.00    +0.010 C 
ATOM     14  C   UNL     1      -6.072  -0.529   2.833  0.00  0.00    +0.001 C 
ATOM     15  C   UNL     1      -6.322   0.447   1.664  0.00  0.00    +0.001 C 
ATOM     16  C   UNL     1      -5.438  -0.029   0.498  0.00  0.00    +0.010 C 
ENDBRANCH   4  12
BRANCH   2  17
ATOM     17  N   UNL     1      -0.481  -2.619  -1.384  0.00  0.00    -0.342 N 
ATOM     18  H   UNL     1       0.414  -2.266  -1.510  0.00  0.00    +0.144 HD
ATOM     19  H   UNL     1      -0.732  -3.461  -1.795  0.00  0.00    +0.144 HD
ENDBRANCH   2  17
BRANCH   3  20
ATOM     20  C   UNL     1      -3.366  -3.485  -0.819  0.00  0.00    +0.104 C 
ATOM     21  N   UNL     1      -3.887  -4.425  -1.187  0.00  0.00    -0.191 NA
ENDBRANCH   3  20
TORSDOF 4
