REMARK  Name = ZINC48983091
REMARK  5 active torsions:
REMARK  status: ('A' for Active; 'I' for Inactive)
REMARK    1  A    between atoms: C_6  and  C_7
REMARK    2  A    between atoms: C_7  and  C_8
REMARK    3  A    between atoms: C_8  and  C_9
REMARK    4  A    between atoms: C_9  and  N_10
REMARK    5  A    between atoms: N_10  and  C_11
REMARK                            x       y       z     vdW  Elec       q    Type
REMARK                         _______ _______ _______ _____ _____    ______ ____
ROOT
ATOM      1  C   UNL     1      -3.060  -1.810  -1.420  0.00  0.00    +0.102 C 
ENDROOT
BRANCH   1   2
ATOM      2  N   UNL     1      -3.493  -2.053  -2.798  0.00  0.00    -0.341 N 
ATOM      3  H   UNL     1      -2.959  -1.726  -3.539  0.00  0.00    +0.146 HD
BRANCH   2   4
ATOM      4  C   UNL     1      -4.666  -2.748  -3.043  0.00  0.00    +0.071 A 
ATOM      5  C   UNL     1      -5.451  -3.220  -1.970  0.00  0.00    +0.157 A 
ATOM      6  N   UNL     1      -6.555  -3.875  -2.199  0.00  0.00    -0.177 NA
ATOM      7  N   UNL     1      -6.988  -4.125  -3.505  0.00  0.00    -0.242 N 
ATOM      8  H   UNL     1      -7.813  -4.613  -3.653  0.00  0.00    +0.192 HD
ATOM      9  C   UNL     1      -6.270  -3.692  -4.560  0.00  0.00    +0.285 A 
ATOM     10  O   UNL     1      -6.654  -3.913  -5.698  0.00  0.00    -0.265 OA
ATOM     11  C   UNL     1      -5.081  -2.980  -4.342  0.00  0.00    +0.129 A 
ATOM     12 CL   UNL     1      -4.140  -2.405  -5.684  0.00  0.00    -0.076 Cl
ENDBRANCH   2   4
ENDBRANCH   1   2
BRANCH   1  13
ATOM     13  C   UNL     1      -1.745  -1.028  -1.429  0.00  0.00    +0.023 C 
BRANCH  13  14
ATOM     14  C   UNL     1      -1.293  -0.775   0.011  0.00  0.00    +0.037 C 
BRANCH  14  20
ATOM     15  C   UNL     1      -0.017   1.378   0.010  0.00  0.00    +0.005 A 
ATOM     16  C   UNL     1       1.171   2.086   0.002  0.00  0.00    +0.022 A 
ATOM     17  C   UNL     1       2.378   1.412  -0.013  0.00  0.00    +0.059 A 
ATOM     18  C   UNL     1       2.397   0.027  -0.021  0.00  0.00    +0.060 A 
ATOM     19  C   UNL     1       1.208  -0.680  -0.013  0.00  0.00    +0.025 A 
ATOM     20  C   UNL     1       0.002  -0.004   0.002  0.00  0.00    -0.046 A 
ATOM     21 CL   UNL     1       3.912  -0.821  -0.040  0.00  0.00    -0.082 Cl
ATOM     22 CL   UNL     1       3.869   2.301  -0.023  0.00  0.00    -0.082 Cl
ENDBRANCH  14  20
ENDBRANCH  13  14
ENDBRANCH   1  13
TORSDOF 5
