REMARK  Name = ZINC63339561
REMARK  7 active torsions:
REMARK  status: ('A' for Active; 'I' for Inactive)
REMARK    1  A    between atoms: C_1  and  C_2
REMARK    2  A    between atoms: N_8  and  C_9
REMARK    3  A    between atoms: C_9  and  C_10
REMARK    4  A    between atoms: C_10  and  C_11
REMARK    5  A    between atoms: C_14  and  O_20
REMARK    6  A    between atoms: O_20  and  C_21
REMARK    7  A    between atoms: N_24  and  C_27
REMARK                            x       y       z     vdW  Elec       q    Type
REMARK                         _______ _______ _______ _____ _____    ______ ____
ROOT
ATOM      1  C   UNL     1      -0.018   1.503   0.010  0.00  0.00    +0.064 C 
ATOM      2  C   UNL     1       0.002  -0.004   0.002  0.00  0.00    +0.033 A 
ATOM      3  C   UNL     1       0.006  -0.682  -1.190  0.00  0.00    +0.085 A 
ATOM      4  C   UNL     1       0.026  -2.152  -1.178  0.00  0.00    +0.075 A 
ATOM      5  C   UNL     1       0.040  -2.795   0.041  0.00  0.00    +0.098 A 
ATOM      6  C   UNL     1       0.035  -2.026   1.211  0.00  0.00    +0.254 A 
ATOM      7  O   UNL     1       0.047  -2.587   2.295  0.00  0.00    -0.268 OA
ATOM      8  N   UNL     1       0.022  -0.684   1.167  0.00  0.00    -0.311 N 
ATOM      9  N   UNL     1       0.026  -2.555  -2.491  0.00  0.00    -0.289 N 
ATOM     10  H   UNL     1       0.036  -3.478  -2.790  0.00  0.00    +0.187 HD
ATOM     11  N   UNL     1       0.007  -1.438  -3.331  0.00  0.00    -0.219 N 
ATOM     12  C   UNL     1      -0.005  -0.299  -2.609  0.00  0.00    +0.281 A 
ATOM     13  O   UNL     1      -0.023   0.834  -3.050  0.00  0.00    -0.265 OA
ENDROOT
BRANCH  11  14
ATOM     14  C   UNL     1       0.002  -1.494  -4.729  0.00  0.00    +0.067 A 
ATOM     15  C   UNL     1      -0.011  -0.320  -5.471  0.00  0.00    +0.029 A 
ATOM     16  C   UNL     1      -0.015  -0.378  -6.851  0.00  0.00    +0.022 A 
ATOM     17  C   UNL     1      -0.007  -1.604  -7.494  0.00  0.00    +0.041 A 
ATOM     18  C   UNL     1       0.005  -2.775  -6.756  0.00  0.00    +0.022 A 
ATOM     19  C   UNL     1       0.015  -2.722  -5.376  0.00  0.00    +0.029 A 
ATOM     20 CL   UNL     1      -0.014  -1.673  -9.228  0.00  0.00    -0.084 Cl
ENDBRANCH  11  14
BRANCH   8  21
ATOM     21  C   UNL     1       0.025   0.067   2.425  0.00  0.00    +0.129 C 
BRANCH  21  22
ATOM     22  C   UNL     1      -1.417   0.309   2.877  0.00  0.00    +0.055 C 
BRANCH  22  23
ATOM     23  C   UNL     1      -1.415   1.081   4.171  0.00  0.00    -0.040 C 
ATOM     24  C   UNL     1      -1.531   2.420   4.320  0.00  0.00    +0.002 A 
ATOM     25  C   UNL     1      -1.687   3.518   3.359  0.00  0.00    +0.055 A 
ATOM     26  C   UNL     1      -1.779   4.791   3.811  0.00  0.00    +0.121 A 
ATOM     27  C   UNL     1      -1.730   5.107   5.180  0.00  0.00    +0.047 A 
ATOM     28  C   UNL     1      -1.588   4.167   6.139  0.00  0.00    +0.029 A 
ATOM     29  C   UNL     1      -1.479   2.754   5.762  0.00  0.00    +0.043 A 
ATOM     30  N   UNL     1      -1.337   1.665   6.476  0.00  0.00    -0.380 N 
ATOM     31  C   UNL     1      -1.289   0.514   5.568  0.00  0.00    +0.144 C 
ATOM     32  H   UNL     1      -1.278   1.627   7.443  0.00  0.00    +0.160 HD
BRANCH  26  33
ATOM     33  O   UNL     1      -1.923   5.798   2.910  0.00  0.00    -0.495 OA
ATOM     34  C   UNL     1      -2.016   7.126   3.430  0.00  0.00    +0.277 C 
ENDBRANCH  26  33
ENDBRANCH  22  23
ENDBRANCH  21  22
ENDBRANCH   8  21
TORSDOF 5
