REMARK  Name = ZINC05760717
REMARK  9 active torsions:
REMARK  status: ('A' for Active; 'I' for Inactive)
REMARK    1  A    between atoms: C_1  and  C_2
REMARK    2  A    between atoms: C_2  and  O_4
REMARK    3  A    between atoms: O_4  and  C_5
REMARK    4  A    between atoms: C_5  and  C_6
REMARK    5  A    between atoms: C_8  and  O_38
REMARK    6  A    between atoms: C_10  and  O_37
REMARK    7  A    between atoms: C_12  and  C_15
REMARK    8  A    between atoms: N_27  and  S_28
REMARK    9  A    between atoms: S_28  and  C_31
REMARK                            x       y       z     vdW  Elec       q    Type
REMARK                         _______ _______ _______ _____ _____    ______ ____
ROOT
ATOM      1  C   UNL     1      -0.531   6.436   0.039  0.00  0.00    -0.007 A 
ATOM      2  C   UNL     1       0.074   7.674   0.040  0.00  0.00    +0.007 A 
ATOM      3  C   UNL     1       1.457   7.776   0.027  0.00  0.00    +0.002 A 
ATOM      4  C   UNL     1       2.243   6.644   0.014  0.00  0.00    +0.028 A 
ATOM      5  C   UNL     1       1.651   5.384   0.014  0.00  0.00    +0.074 A 
ATOM      6  C   UNL     1       0.251   5.284   0.027  0.00  0.00    +0.015 A 
ATOM      7  C   UNL     1      -0.064   3.844   0.022  0.00  0.00    +0.010 A 
ATOM      8  C   UNL     1      -1.257   3.124   0.029  0.00  0.00    +0.010 A 
ATOM      9  C   UNL     1      -1.226   1.747   0.017  0.00  0.00    +0.001 A 
ATOM     10  C   UNL     1      -0.013   1.076   0.008  0.00  0.00    +0.002 A 
ATOM     11  C   UNL     1       1.175   1.775   0.000  0.00  0.00    +0.028 A 
ATOM     12  C   UNL     1       1.164   3.167   0.007  0.00  0.00    +0.073 A 
ATOM     13  N   UNL     1       2.180   4.106   0.003  0.00  0.00    -0.210 N 
ENDROOT
BRANCH   1  17
ATOM     14  C   UNL     1      -3.982   7.581   0.077  0.00  0.00    +0.188 C 
ATOM     15  C   UNL     1      -4.006   6.747   1.373  0.00  0.00    +0.178 C 
ATOM     16  C   UNL     1      -2.559   6.212   1.507  0.00  0.00    +0.179 C 
ATOM     17  C   UNL     1      -2.034   6.329   0.053  0.00  0.00    +0.181 C 
ATOM     18  O   UNL     1      -2.635   7.550  -0.429  0.00  0.00    -0.360 OA
BRANCH  16  19
ATOM     19  O   UNL     1      -1.793   7.031   2.393  0.00  0.00    -0.386 OA
ATOM     20  H   UNL     1      -2.084   6.992   3.315  0.00  0.00    +0.210 HD
ENDBRANCH  16  19
BRANCH  15  21
ATOM     21  O   UNL     1      -4.931   5.664   1.256  0.00  0.00    -0.386 OA
ATOM     22  H   UNL     1      -4.944   5.074   2.022  0.00  0.00    +0.210 HD
ENDBRANCH  15  21
BRANCH  14  23
ATOM     23  C   UNL     1      -4.938   6.973  -0.951  0.00  0.00    +0.266 C 
BRANCH  23  24
ATOM     24  O   UNL     1      -4.998   7.830  -2.122  0.00  0.00    -0.462 OA
BRANCH  24  26
ATOM     25  C   UNL     1      -5.911   8.274  -4.372  0.00  0.00    +0.136 C 
ATOM     26  C   UNL     1      -5.798   7.436  -3.125  0.00  0.00    +0.304 C 
ATOM     27  O   UNL     1      -6.428   6.410  -3.027  0.00  0.00    -0.251 OA
ENDBRANCH  24  26
ENDBRANCH  23  24
ENDBRANCH  14  23
ENDBRANCH   1  17
BRANCH  13  28
ATOM     28  S   UNL     1       3.797   3.751  -0.014  0.00  0.00    +0.085 S 
ATOM     29  O   UNL     1       4.466   4.878   0.537  0.00  0.00    -0.148 OA
ATOM     30  O   UNL     1       3.932   2.445   0.529  0.00  0.00    -0.148 OA
BRANCH  28  31
ATOM     31  C   UNL     1       4.291   3.648  -1.702  0.00  0.00    +0.111 A 
ATOM     32  C   UNL     1       4.233   2.438  -2.366  0.00  0.00    +0.029 A 
ATOM     33  C   UNL     1       4.617   2.358  -3.692  0.00  0.00    +0.002 A 
ATOM     34  C   UNL     1       5.066   3.487  -4.351  0.00  0.00    +0.000 A 
ATOM     35  C   UNL     1       5.128   4.697  -3.685  0.00  0.00    +0.002 A 
ATOM     36  C   UNL     1       4.741   4.777  -2.361  0.00  0.00    +0.029 A 
ENDBRANCH  28  31
ENDBRANCH  13  28
TORSDOF 8
