REMARK  Name = ZINC38056471
REMARK  4 active torsions:
REMARK  status: ('A' for Active; 'I' for Inactive)
REMARK    1  A    between atoms: C_3  and  N_18
REMARK    2  A    between atoms: C_5  and  O_7
REMARK    3  A    between atoms: O_7  and  C_8
REMARK    4  A    between atoms: C_11  and  N_15
REMARK                            x       y       z     vdW  Elec       q    Type
REMARK                         _______ _______ _______ _____ _____    ______ ____
ROOT
ATOM      1  O   UNL     1       1.229  -2.042  -0.021  0.00  0.00    -0.453 OA
ENDROOT
BRANCH   1   2
ATOM      2  C   UNL     1       0.043  -2.696   0.092  0.00  0.00    +0.164 A 
ATOM      3  C   UNL     1      -1.145  -1.981   0.106  0.00  0.00    +0.051 A 
ATOM      4  C   UNL     1      -2.350  -2.647   0.221  0.00  0.00    +0.036 A 
ATOM      5  C   UNL     1      -2.373  -4.026   0.322  0.00  0.00    +0.129 A 
ATOM      6  C   UNL     1      -1.191  -4.743   0.309  0.00  0.00    +0.074 A 
ATOM      7  C   UNL     1       0.018  -4.082   0.188  0.00  0.00    +0.168 A 
ATOM      8  F   UNL     1       1.173  -4.782   0.169  0.00  0.00    -0.202 F 
BRANCH   5   9
ATOM      9  N   UNL     1      -3.666  -4.736   0.446  0.00  0.00    +0.057 N 
ATOM     10  O   UNL     1      -4.701  -4.111   0.458  0.00  0.00    -0.126 OA
ATOM     11  O   UNL     1      -3.688  -5.942   0.534  0.00  0.00    -0.126 OA
ENDBRANCH   5   9
ENDBRANCH   1   2
BRANCH   1  16
ATOM     12  C   UNL     1       1.531   1.423  -1.092  0.00  0.00    +0.005 A 
ATOM     13  C   UNL     1       1.190   2.087   0.071  0.00  0.00    +0.023 A 
ATOM     14  C   UNL     1       0.860   1.365   1.212  0.00  0.00    +0.028 A 
ATOM     15  C   UNL     1       0.874  -0.023   1.181  0.00  0.00    +0.069 A 
ATOM     16  C   UNL     1       1.215  -0.684   0.012  0.00  0.00    +0.130 A 
ATOM     17  C   UNL     1       1.544   0.042  -1.125  0.00  0.00    +0.046 A 
BRANCH  14  18
ATOM     18  N   UNL     1       0.517   2.036   2.388  0.00  0.00    -0.358 N 
ATOM     19  H   UNL     1       0.508   3.005   2.409  0.00  0.00    +0.142 HD
ATOM     20  H   UNL     1       0.287   1.532   3.184  0.00  0.00    +0.142 HD
ENDBRANCH  14  18
ENDBRANCH   1  16
TORSDOF 4
