REMARK  Name = ZINC00309223
REMARK  4 active torsions:
REMARK  status: ('A' for Active; 'I' for Inactive)
REMARK    1  A    between atoms: C_1  and  C_2
REMARK    2  A    between atoms: C_6  and  N_8
REMARK    3  A    between atoms: C_12  and  S_16
REMARK    4  A    between atoms: S_16  and  C_17
REMARK                            x       y       z     vdW  Elec       q    Type
REMARK                         _______ _______ _______ _____ _____    ______ ____
ROOT
ATOM      1  N   UNL     1       0.050  -2.798   2.395  0.00  0.00    -0.209 N 
ATOM      2  C   UNL     1       0.141  -2.196   3.587  0.00  0.00    +0.228 C 
ATOM      3  O   UNL     1       0.218  -1.000   3.766  0.00  0.00    -0.275 OA
ATOM      4  C   UNL     1       0.130  -3.246   4.677  0.00  0.00    +0.120 C 
ATOM      5  C   UNL     1       0.017  -4.573   3.900  0.00  0.00    +0.149 C 
ATOM      6  C   UNL     1      -0.030  -4.133   2.453  0.00  0.00    +0.240 C 
ATOM      7  O   UNL     1      -0.124  -4.873   1.497  0.00  0.00    -0.274 OA
ENDROOT
BRANCH   1  13
ATOM      8  C   UNL     1      -2.370  -1.345  -1.632  0.00  0.00    +0.044 C 
ATOM      9  C   UNL     1      -1.124  -1.368  -0.785  0.00  0.00    -0.049 A 
ATOM     10  C   UNL     1       0.006  -0.689  -1.200  0.00  0.00    +0.003 A 
ATOM     11  C   UNL     1       1.151  -0.708  -0.425  0.00  0.00    +0.002 A 
ATOM     12  C   UNL     1       1.169  -1.406   0.766  0.00  0.00    +0.024 A 
ATOM     13  C   UNL     1       0.035  -2.089   1.186  0.00  0.00    +0.044 A 
ATOM     14  C   UNL     1      -1.115  -2.063   0.409  0.00  0.00    +0.027 A 
ENDBRANCH   1  13
BRANCH   5  15
ATOM     15  S   UNL     1       1.464  -5.621   4.212  0.00  0.00    -0.084 S 
BRANCH  15  16
ATOM     16  C   UNL     1       1.090  -7.125   3.373  0.00  0.00    +0.161 A 
ATOM     17  N   UNL     1       0.022  -7.446   2.669  0.00  0.00    -0.133 NA
ATOM     18  N   UNL     1      -0.068  -8.692   2.092  0.00  0.00    -0.125 NA
ATOM     19  C   UNL     1       0.914  -9.559   2.245  0.00  0.00    +0.180 A 
ATOM     20  S   UNL     1       2.059  -8.620   3.244  0.00  0.00    -0.025 S 
ATOM     21  N   UNL     1       1.029 -10.854   1.755  0.00  0.00    -0.336 N 
ATOM     22  H   UNL     1       0.318 -11.234   1.215  0.00  0.00    +0.144 HD
ATOM     23  H   UNL     1       1.821 -11.379   1.953  0.00  0.00    +0.144 HD
ENDBRANCH  15  16
ENDBRANCH   5  15
TORSDOF 3
