REMARK  Name = ZINC43987186
REMARK  11 active torsions:
REMARK  status: ('A' for Active; 'I' for Inactive)
REMARK    1  A    between atoms: C_1  and  C_2
REMARK    2  A    between atoms: C_2  and  N_3
REMARK    3  A    between atoms: N_3  and  C_4
REMARK    4  A    between atoms: N_3  and  S_6
REMARK    5  A    between atoms: C_4  and  C_5
REMARK    6  A    between atoms: S_6  and  C_9
REMARK    7  A    between atoms: C_12  and  C_15
REMARK    8  A    between atoms: N_17  and  C_18
REMARK    9  A    between atoms: C_18  and  C_19
REMARK   10  A    between atoms: C_25  and  C_27
REMARK   11  A    between atoms: C_28  and  C_32
REMARK                            x       y       z     vdW  Elec       q    Type
REMARK                         _______ _______ _______ _____ _____    ______ ____
ROOT
ATOM      1  C   UNL     1      -3.520   6.751   1.279  0.00  0.00    +0.244 C 
ATOM      2  O   UNL     1      -3.038   7.863   1.376  0.00  0.00    -0.270 OA
ATOM      3  N   UNL     1      -4.830   6.561   1.528  0.00  0.00    -0.311 N 
ATOM      4  H   UNL     1      -5.215   5.674   1.450  0.00  0.00    +0.149 HD
ENDROOT
BRANCH   1   8
ATOM      5  C   UNL     1      -1.072   3.466   0.155  0.00  0.00    +0.106 A 
ATOM      6  C   UNL     1      -0.521   4.731   0.265  0.00  0.00    +0.029 A 
ATOM      7  C   UNL     1      -1.310   5.802   0.629  0.00  0.00    +0.015 A 
ATOM      8  C   UNL     1      -2.668   5.608   0.888  0.00  0.00    +0.037 A 
ATOM      9  C   UNL     1      -3.218   4.330   0.775  0.00  0.00    +0.015 A 
ATOM     10  C   UNL     1      -2.419   3.269   0.405  0.00  0.00    +0.029 A 
BRANCH   5  11
ATOM     11  S   UNL     1      -0.057   2.104  -0.310  0.00  0.00    +0.061 S 
ATOM     12  O   UNL     1      -0.696   0.934   0.182  0.00  0.00    -0.153 OA
ATOM     13  O   UNL     1       1.275   2.450   0.043  0.00  0.00    -0.153 OA
BRANCH  11  14
ATOM     14  N   UNL     1      -0.098   2.005  -1.963  0.00  0.00    -0.177 NA
BRANCH  14  16
ATOM     15  C   UNL     1       0.301   4.080  -3.195  0.00  0.00    +0.022 C 
ATOM     16  C   UNL     1       0.888   2.734  -2.765  0.00  0.00    +0.106 C 
ENDBRANCH  14  16
BRANCH  14  17
ATOM     17  C   UNL     1      -1.120   1.189  -2.623  0.00  0.00    +0.106 C 
ATOM     18  C   UNL     1      -0.551  -0.200  -2.919  0.00  0.00    +0.022 C 
ENDBRANCH  14  17
ENDBRANCH  11  14
ENDBRANCH   5  11
ENDBRANCH   1   8
BRANCH   3  19
ATOM     19  C   UNL     1      -5.675   7.694   1.915  0.00  0.00    +0.108 C 
BRANCH  19  20
ATOM     20  C   UNL     1      -7.109   7.209   2.137  0.00  0.00    +0.009 C 
ATOM     21  C   UNL     1      -7.687   6.706   0.813  0.00  0.00    +0.024 C 
ATOM     22  C   UNL     1      -9.111   6.189   1.045  0.00  0.00    +0.108 C 
ATOM     23  N   UNL     1      -9.900   7.251   1.684  0.00  0.00    -0.297 N 
ATOM     24  C   UNL     1      -9.389   7.868   2.916  0.00  0.00    +0.108 C 
ATOM     25  C   UNL     1      -7.962   8.366   2.662  0.00  0.00    +0.024 C 
ATOM     26  C   UNL     1     -11.071   7.651   1.151  0.00  0.00    +0.257 C 
ATOM     27  O   UNL     1     -11.433   7.210   0.077  0.00  0.00    -0.269 OA
BRANCH  26  28
ATOM     28  C   UNL     1     -11.913   8.623   1.868  0.00  0.00    +0.117 A 
ATOM     29  C   UNL     1     -12.760   9.607   1.372  0.00  0.00    +0.081 A 
ATOM     30  N   UNL     1     -13.371  10.310   2.294  0.00  0.00    -0.146 NA
ATOM     31  N   UNL     1     -13.194  10.099   3.549  0.00  0.00    -0.110 NA
ATOM     32  S   UNL     1     -12.142   8.867   3.621  0.00  0.00    +0.041 S 
ATOM     33  C   UNL     1     -12.960   9.846  -0.102  0.00  0.00    +0.069 C 
ENDBRANCH  26  28
ENDBRANCH  19  20
ENDBRANCH   3  19
TORSDOF 8
