REMARK  Name = ZINC10761449
REMARK  8 active torsions:
REMARK  status: ('A' for Active; 'I' for Inactive)
REMARK    1  A    between atoms: C_1  and  C_2
REMARK    2  A    between atoms: C_9  and  N_18
REMARK    3  A    between atoms: C_10  and  C_11
REMARK    4  A    between atoms: C_14  and  O_16
REMARK    5  A    between atoms: O_16  and  C_17
REMARK    6  A    between atoms: C_19  and  C_21
REMARK    7  A    between atoms: N_26  and  S_28
REMARK    8  A    between atoms: S_28  and  C_31
REMARK                            x       y       z     vdW  Elec       q    Type
REMARK                         _______ _______ _______ _____ _____    ______ ____
ROOT
ATOM      1  C   UNL     1     -11.454  -0.218   8.862  0.00  0.00    +0.008 C 
ATOM      2  C   UNL     1     -10.645   0.990   8.386  0.00  0.00    -0.009 C 
ATOM      3  C   UNL     1     -11.593   2.057   7.831  0.00  0.00    +0.008 C 
ATOM      4  C   UNL     1     -10.826   3.358   7.587  0.00  0.00    +0.037 C 
ATOM      5  C   UNL     1      -9.601   3.052   6.734  0.00  0.00    -0.023 A 
ATOM      6  C   UNL     1      -9.127   1.792   6.625  0.00  0.00    -0.004 A 
ATOM      7  S   UNL     1      -7.728   1.927   5.547  0.00  0.00    -0.077 S 
ATOM      8  C   UNL     1      -7.764   3.634   5.254  0.00  0.00    +0.084 A 
ATOM      9  C   UNL     1      -8.862   4.058   5.990  0.00  0.00    +0.069 A 
ATOM     10  C   UNL     1      -9.678   0.560   7.273  0.00  0.00    +0.046 C 
ENDROOT
BRANCH   9  11
ATOM     11  C   UNL     1      -9.261   5.468   6.016  0.00  0.00    +0.255 C 
ATOM     12  O   UNL     1     -10.049   5.892   5.191  0.00  0.00    -0.270 OA
ATOM     13  N   UNL     1      -8.756   6.294   6.953  0.00  0.00    -0.217 N 
ATOM     14  C   UNL     1      -9.124   7.591   6.976  0.00  0.00    +0.407 C 
ATOM     15  O   UNL     1      -9.910   8.014   6.153  0.00  0.00    -0.226 OA
ATOM     16  H   UNL     1      -8.129   5.956   7.611  0.00  0.00    +0.161 HD
BRANCH  14  17
ATOM     17  O   UNL     1      -8.620   8.417   7.912  0.00  0.00    -0.453 OA
ATOM     18  C   UNL     1      -9.060   9.800   7.877  0.00  0.00    +0.282 C 
ENDBRANCH  14  17
ENDBRANCH   9  11
BRANCH   8  19
ATOM     19  N   UNL     1      -6.907   4.392   4.471  0.00  0.00    -0.279 N 
ATOM     20  C   UNL     1      -5.885   3.799   3.823  0.00  0.00    +0.222 C 
ATOM     21  O   UNL     1      -5.714   2.603   3.926  0.00  0.00    -0.275 OA
ATOM     22  H   UNL     1      -7.044   5.348   4.388  0.00  0.00    +0.155 HD
BRANCH  20  23
ATOM     23  C   UNL     1      -4.954   4.622   2.971  0.00  0.00    +0.091 C 
ATOM     24  C   UNL     1      -4.275   5.686   3.837  0.00  0.00    +0.015 C 
ATOM     25  C   UNL     1      -3.355   6.545   2.966  0.00  0.00    +0.018 C 
ATOM     26  C   UNL     1      -2.268   5.658   2.350  0.00  0.00    +0.109 C 
ATOM     27  N   UNL     1      -2.913   4.548   1.635  0.00  0.00    -0.175 NA
ATOM     28  C   UNL     1      -3.889   3.717   2.353  0.00  0.00    +0.122 C 
BRANCH  27  29
ATOM     29  S   UNL     1      -2.551   4.243   0.049  0.00  0.00    +0.067 S 
ATOM     30  O   UNL     1      -2.072   5.463  -0.500  0.00  0.00    -0.152 OA
ATOM     31  O   UNL     1      -3.664   3.547  -0.496  0.00  0.00    -0.152 OA
BRANCH  29  32
ATOM     32  C   UNL     1      -1.196   3.116   0.030  0.00  0.00    +0.143 A 
ATOM     33  C   UNL     1      -1.213   1.761   0.017  0.00  0.00    +0.036 A 
ATOM     34  C   UNL     1      -0.013   1.076   0.008  0.00  0.00    +0.010 A 
ATOM     35  C   UNL     1       1.146   1.780   0.001  0.00  0.00    +0.047 A 
ATOM     36  S   UNL     1       0.555   3.464   0.015  0.00  0.00    -0.077 S 
ENDBRANCH  29  32
ENDBRANCH  27  29
ENDBRANCH  20  23
ENDBRANCH   8  19
TORSDOF 6
