REMARK  Name = ZINC48258741
REMARK  11 active torsions:
REMARK  status: ('A' for Active; 'I' for Inactive)
REMARK    1  A    between atoms: C_1  and  C_2
REMARK    2  A    between atoms: C_2  and  C_3
REMARK    3  A    between atoms: N_5  and  C_6
REMARK    4  A    between atoms: C_9  and  C_28
REMARK    5  A    between atoms: C_10  and  N_12
REMARK    6  A    between atoms: N_15  and  C_16
REMARK    7  A    between atoms: C_16  and  C_17
REMARK    8  A    between atoms: C_17  and  C_19
REMARK    9  A    between atoms: C_17  and  N_22
REMARK   10  A    between atoms: C_19  and  C_20
REMARK   11  A    between atoms: C_19  and  C_21
REMARK                            x       y       z     vdW  Elec       q    Type
REMARK                         _______ _______ _______ _____ _____    ______ ____
ROOT
ATOM      1  N   UNL     1       3.580  -5.175   1.252  0.00  0.00    -0.269 N 
ATOM      2  C   UNL     1       2.978  -6.224   0.657  0.00  0.00    +0.304 C 
ATOM      3  O   UNL     1       2.432  -6.082  -0.420  0.00  0.00    -0.253 OA
ATOM      4  N   UNL     1       2.982  -7.431   1.256  0.00  0.00    -0.298 N 
ATOM      5  H   UNL     1       3.956  -5.272   2.140  0.00  0.00    +0.156 HD
ATOM      6  H   UNL     1       3.417  -7.545   2.115  0.00  0.00    +0.150 HD
ENDROOT
BRANCH   1  11
ATOM      7  C   UNL     1       2.741  -2.344  -0.947  0.00  0.00    +0.035 A 
ATOM      8  C   UNL     1       3.832  -1.511  -0.726  0.00  0.00    +0.024 A 
ATOM      9  C   UNL     1       4.831  -1.896   0.147  0.00  0.00    +0.007 A 
ATOM     10  C   UNL     1       4.749  -3.110   0.803  0.00  0.00    -0.029 A 
ATOM     11  C   UNL     1       3.661  -3.946   0.587  0.00  0.00    +0.039 A 
ATOM     12  C   UNL     1       2.654  -3.560  -0.285  0.00  0.00    +0.047 A 
ATOM     13  C   UNL     1       5.841  -3.526   1.754  0.00  0.00    +0.045 C 
BRANCH   7  16
ATOM     14  C   UNL     1       2.039  -1.258  -2.944  0.00  0.00    +0.217 C 
ATOM     15  O   UNL     1       3.181  -0.897  -3.136  0.00  0.00    -0.275 OA
ATOM     16  N   UNL     1       1.730  -1.953  -1.831  0.00  0.00    -0.285 N 
ATOM     17  H   UNL     1       0.806  -2.182  -1.643  0.00  0.00    +0.155 HD
BRANCH  14  19
ATOM     18  C   UNL     1       1.578  -0.143  -5.110  0.00  0.00    +0.013 C 
ATOM     19  C   UNL     1       0.966  -0.931  -3.950  0.00  0.00    +0.093 C 
ENDBRANCH  14  19
ENDBRANCH   7  16
ENDBRANCH   1  11
BRANCH   4  20
ATOM     20  C   UNL     1       2.328  -8.572   0.609  0.00  0.00    +0.124 C 
BRANCH  20  21
ATOM     21  C   UNL     1       2.372  -9.782   1.544  0.00  0.00    +0.076 C 
BRANCH  21  22
ATOM     22  N   UNL     1       1.734  -9.438   2.821  0.00  0.00    -0.293 NA
ATOM     23  C   UNL     1       1.339 -10.649   3.556  0.00  0.00    +0.113 C 
ATOM     24  C   UNL     1       0.733 -10.246   4.904  0.00  0.00    +0.175 C 
ATOM     25  O   UNL     1      -0.370  -9.364   4.681  0.00  0.00    -0.377 OA
ATOM     26  C   UNL     1      -0.021  -8.174   3.968  0.00  0.00    +0.175 C 
ATOM     27  C   UNL     1       0.577  -8.555   2.611  0.00  0.00    +0.113 C 
ENDBRANCH  21  22
BRANCH  21  28
ATOM     28  C   UNL     1       1.625 -10.952   0.899  0.00  0.00    +0.001 C 
ATOM     29  C   UNL     1       0.203 -10.515   0.544  0.00  0.00    +0.009 C 
ATOM     30  C   UNL     1       2.358 -11.387  -0.371  0.00  0.00    +0.009 C 
ENDBRANCH  21  28
ENDBRANCH  20  21
ENDBRANCH   4  20
TORSDOF 7
