REMARK  Name = ZINC06345575
REMARK  7 active torsions:
REMARK  status: ('A' for Active; 'I' for Inactive)
REMARK    1  A    between atoms: C_3  and  N_16
REMARK    2  A    between atoms: C_5  and  S_7
REMARK    3  A    between atoms: S_7  and  N_10
REMARK    4  A    between atoms: C_17  and  C_19
REMARK    5  A    between atoms: C_19  and  O_20
REMARK    6  A    between atoms: O_20  and  C_21
REMARK    7  A    between atoms: C_21  and  C_23
REMARK                            x       y       z     vdW  Elec       q    Type
REMARK                         _______ _______ _______ _____ _____    ______ ____
ROOT
ATOM      1  C   UNL     1      -0.013   1.375  -0.179  0.00  0.00    +0.004 A 
ATOM      2  C   UNL     1       1.175   2.081  -0.182  0.00  0.00    +0.023 A 
ATOM      3  C   UNL     1       2.380   1.411  -0.018  0.00  0.00    +0.035 A 
ATOM      4  C   UNL     1       2.387   0.032   0.148  0.00  0.00    +0.052 A 
ATOM      5  C   UNL     1       1.197  -0.668   0.150  0.00  0.00    +0.114 A 
ATOM      6  C   UNL     1      -0.002   0.002  -0.014  0.00  0.00    +0.029 A 
ENDROOT
BRANCH   3   7
ATOM      7  N   UNL     1       3.584   2.123  -0.021  0.00  0.00    -0.283 N 
ATOM      8  C   UNL     1       3.628   3.375   0.478  0.00  0.00    +0.255 C 
ATOM      9  O   UNL     1       2.649   3.848   1.016  0.00  0.00    -0.272 OA
ATOM     10  H   UNL     1       4.387   1.717  -0.382  0.00  0.00    +0.155 HD
BRANCH   8  11
ATOM     11  C   UNL     1       4.893   4.186   0.368  0.00  0.00    +0.328 C 
BRANCH  11  12
ATOM     12  O   UNL     1       4.691   5.468   0.966  0.00  0.00    -0.455 OA
BRANCH  12  13
ATOM     13  C   UNL     1       5.729   6.318   0.951  0.00  0.00    +0.311 C 
ATOM     14  O   UNL     1       6.776   5.985   0.447  0.00  0.00    -0.251 OA
BRANCH  13  15
ATOM     15  C   UNL     1       5.591   7.688   1.563  0.00  0.00    +0.102 C 
ATOM     16  C   UNL     1       6.914   8.451   1.425  0.00  0.00    +0.019 C 
ATOM     17  C   UNL     1       6.693   9.892   1.891  0.00  0.00    +0.028 C 
ATOM     18  C   UNL     1       6.007   9.904   3.225  0.00  0.00    -0.031 C 
ATOM     19  C   UNL     1       5.381   8.889   3.729  0.00  0.00    -0.030 C 
ATOM     20  C   UNL     1       5.256   7.555   3.051  0.00  0.00    +0.041 C 
ENDBRANCH  13  15
ENDBRANCH  12  13
ENDBRANCH  11  12
ENDBRANCH   8  11
ENDBRANCH   3   7
BRANCH   5  21
ATOM     21  S   UNL     1       1.206  -2.417   0.360  0.00  0.00    +0.100 S 
ATOM     22  O   UNL     1       0.003  -2.902  -0.221  0.00  0.00    -0.146 OA
ATOM     23  O   UNL     1       2.487  -2.870  -0.054  0.00  0.00    -0.146 OA
BRANCH  21  24
ATOM     24  N   UNL     1       1.100  -2.716   1.985  0.00  0.00    -0.118 NA
ATOM     25  C   UNL     1       1.087  -3.934   2.420  0.00  0.00    +0.117 C 
ATOM     26  N   UNL     1       1.160  -5.054   1.635  0.00  0.00    -0.331 N 
ATOM     27  C   UNL     1       1.603  -6.193   2.455  0.00  0.00    +0.103 C 
ATOM     28  C   UNL     1       1.062  -5.883   3.869  0.00  0.00    +0.026 C 
ATOM     29  C   UNL     1       0.994  -4.341   3.874  0.00  0.00    +0.074 C 
ATOM     30  H   UNL     1       0.953  -5.090   0.688  0.00  0.00    +0.147 HD
ENDBRANCH  21  24
ENDBRANCH   5  21
TORSDOF 7
