REMARK  Name = ZINC47998079
REMARK  6 active torsions:
REMARK  status: ('A' for Active; 'I' for Inactive)
REMARK    1  A    between atoms: C_3  and  N_22
REMARK    2  A    between atoms: C_6  and  C_7
REMARK    3  A    between atoms: C_7  and  N_8
REMARK    4  A    between atoms: C_9  and  C_11
REMARK    5  A    between atoms: N_13  and  C_14
REMARK    6  A    between atoms: C_15  and  C_19
REMARK                            x       y       z     vdW  Elec       q    Type
REMARK                         _______ _______ _______ _____ _____    ______ ____
ROOT
ATOM      1  N   UNL     1      -1.734  -1.001  -1.370  0.00  0.00    -0.303 N 
ATOM      2  C   UNL     1      -2.874  -1.680  -1.609  0.00  0.00    +0.300 C 
ATOM      3  O   UNL     1      -3.530  -2.110  -0.684  0.00  0.00    -0.265 OA
ATOM      4  H   UNL     1      -1.210  -0.657  -2.110  0.00  0.00    +0.149 HD
ENDROOT
BRANCH   2   5
ATOM      5  C   UNL     1      -3.329  -1.902  -3.014  0.00  0.00    +0.304 C 
ATOM      6  O   UNL     1      -2.672  -1.472  -3.940  0.00  0.00    -0.265 OA
ATOM      7  N   UNL     1      -4.468  -2.581  -3.254  0.00  0.00    -0.272 N 
ATOM      8  H   UNL     1      -4.993  -2.925  -2.514  0.00  0.00    +0.156 HD
BRANCH   7   9
ATOM      9  C   UNL     1      -4.890  -2.788  -4.556  0.00  0.00    +0.084 A 
ATOM     10  C   UNL     1      -6.029  -3.452  -4.989  0.00  0.00    +0.065 A 
ATOM     11  C   UNL     1      -6.231  -3.523  -6.417  0.00  0.00    +0.022 A 
ATOM     12  C   UNL     1      -5.287  -2.933  -7.174  0.00  0.00    +0.048 A 
ATOM     13  S   UNL     1      -4.145  -2.285  -5.973  0.00  0.00    -0.081 S 
BRANCH  10  14
ATOM     14  C   UNL     1      -6.977  -4.052  -4.044  0.00  0.00    +0.244 C 
ATOM     15  O   UNL     1      -6.776  -3.973  -2.847  0.00  0.00    -0.270 OA
ATOM     16  N   UNL     1      -8.073  -4.689  -4.503  0.00  0.00    -0.325 N 
ATOM     17  H   UNL     1      -8.233  -4.752  -5.457  0.00  0.00    +0.145 HD
ATOM     18  H   UNL     1      -8.700  -5.086  -3.878  0.00  0.00    +0.145 HD
ENDBRANCH  10  14
ENDBRANCH   7   9
ENDBRANCH   2   5
BRANCH   1  19
ATOM     19  C   UNL     1      -1.288  -0.783   0.009  0.00  0.00    +0.141 C 
BRANCH  19  25
ATOM     20  C   UNL     1      -0.016   1.384   0.036  0.00  0.00    +0.010 A 
ATOM     21  C   UNL     1       1.190   2.061   0.028  0.00  0.00    +0.042 A 
ATOM     22  C   UNL     1       2.374   1.332  -0.013  0.00  0.00    +0.099 A 
ATOM     23  N   UNL     1       2.350   0.008  -0.045  0.00  0.00    -0.349 N 
ATOM     24  C   UNL     1       1.214  -0.663  -0.040  0.00  0.00    +0.089 A 
ATOM     25  C   UNL     1       0.002  -0.004   0.001  0.00  0.00    -0.014 A 
ATOM     26  H   UNL     1       3.188  -0.480  -0.074  0.00  0.00    +0.167 HD
BRANCH  22  27
ATOM     27  N   UNL     1       3.594   1.999  -0.022  0.00  0.00    -0.317 N 
ATOM     28  C   UNL     1       4.856   1.252   0.066  0.00  0.00    +0.106 C 
ATOM     29  C   UNL     1       5.754   1.662  -1.105  0.00  0.00    +0.019 C 
ATOM     30  C   UNL     1       5.922   3.183  -1.106  0.00  0.00    +0.003 C 
ATOM     31  C   UNL     1       4.556   3.849  -1.289  0.00  0.00    +0.019 C 
ATOM     32  C   UNL     1       3.645   3.464  -0.125  0.00  0.00    +0.106 C 
ENDBRANCH  22  27
ENDBRANCH  19  25
ENDBRANCH   1  19
TORSDOF 6
