REMARK  Name = ZINC21526830
REMARK  6 active torsions:
REMARK  status: ('A' for Active; 'I' for Inactive)
REMARK    1  A    between atoms: C_1  and  C_2
REMARK    2  A    between atoms: C_5  and  N_8
REMARK    3  A    between atoms: C_17  and  C_18
REMARK    4  A    between atoms: C_17  and  C_19
REMARK    5  A    between atoms: N_21  and  C_22
REMARK    6  A    between atoms: C_30  and  C_32
REMARK                            x       y       z     vdW  Elec       q    Type
REMARK                         _______ _______ _______ _____ _____    ______ ____
ROOT
ATOM      1  N   UNL     1      -3.808  -0.995  -0.797  0.00  0.00    -0.250 N 
ATOM      2  C   UNL     1      -4.294  -0.693  -2.024  0.00  0.00    +0.268 C 
ATOM      3  O   UNL     1      -5.054   0.241  -2.200  0.00  0.00    -0.268 OA
ATOM      4  C   UNL     1      -3.855  -1.552  -3.130  0.00  0.00    +0.109 A 
ATOM      5  C   UNL     1      -4.014  -1.414  -4.478  0.00  0.00    +0.079 A 
ATOM      6  C   UNL     1      -3.389  -2.510  -5.090  0.00  0.00    +0.154 A 
ATOM      7  C   UNL     1      -2.854  -3.309  -4.080  0.00  0.00    +0.088 A 
ATOM      8  N   UNL     1      -3.150  -2.728  -2.884  0.00  0.00    -0.331 N 
ATOM      9  C   UNL     1      -2.845  -3.170  -1.519  0.00  0.00    +0.158 C 
ATOM     10  C   UNL     1      -2.718  -1.946  -0.612  0.00  0.00    +0.133 C 
ATOM     11  C   UNL     1      -2.711  -2.413   0.845  0.00  0.00    +0.044 C 
ATOM     12  C   UNL     1      -2.225  -4.398  -4.731  0.00  0.00    +0.071 A 
ATOM     13  C   UNL     1      -2.398  -4.225  -6.053  0.00  0.00    +0.105 A 
ATOM     14  O   UNL     1      -3.095  -3.097  -6.270  0.00  0.00    -0.458 OA
ATOM     15  C   UNL     1      -1.890  -5.153  -7.126  0.00  0.00    +0.086 C 
ENDROOT
BRANCH   1  20
ATOM     16  C   UNL     1      -6.076   1.514   3.756  0.00  0.00    +0.044 C 
ATOM     17  C   UNL     1      -5.473   0.848   2.547  0.00  0.00    -0.050 A 
ATOM     18  C   UNL     1      -4.631   1.561   1.713  0.00  0.00    +0.005 A 
ATOM     19  C   UNL     1      -4.077   0.953   0.604  0.00  0.00    +0.024 A 
ATOM     20  C   UNL     1      -4.366  -0.377   0.326  0.00  0.00    +0.038 A 
ATOM     21  C   UNL     1      -5.216  -1.089   1.162  0.00  0.00    +0.024 A 
ATOM     22  C   UNL     1      -5.762  -0.477   2.273  0.00  0.00    +0.005 A 
ENDBRANCH   1  20
BRANCH  10  23
ATOM     23  C   UNL     1      -1.412  -1.255  -0.908  0.00  0.00    +0.239 C 
ATOM     24  O   UNL     1      -0.506  -1.868  -1.432  0.00  0.00    -0.273 OA
ATOM     25  N   UNL     1      -1.251   0.045  -0.590  0.00  0.00    -0.311 N 
ATOM     26  H   UNL     1      -2.072   0.601  -0.115  0.00  0.00    +0.149 HD
BRANCH  25  27
ATOM     27  C   UNL     1       0.019   0.717  -0.878  0.00  0.00    +0.073 C 
ATOM     28  C   UNL     1      -0.225   2.146  -1.014  0.00  0.00    +0.022 C 
ATOM     29  C   UNL     1       1.052   2.927  -1.384  0.00  0.00    +0.002 C 
ATOM     30  C   UNL     1       1.865   3.136  -0.135  0.00  0.00    +0.000 C 
ATOM     31  C   UNL     1       2.934   2.045   0.063  0.00  0.00    +0.000 C 
ATOM     32  C   UNL     1       2.414   0.632  -0.267  0.00  0.00    +0.002 C 
ATOM     33  C   UNL     1       1.021   0.396   0.250  0.00  0.00    +0.022 C 
ENDBRANCH  25  27
ENDBRANCH  10  23
TORSDOF 3
