REMARK  Name = ZINC39690759
REMARK  9 active torsions:
REMARK  status: ('A' for Active; 'I' for Inactive)
REMARK    1  A    between atoms: C_1  and  C_2
REMARK    2  A    between atoms: C_2  and  C_3
REMARK    3  A    between atoms: C_2  and  C_4
REMARK    4  A    between atoms: C_4  and  C_6
REMARK    5  A    between atoms: C_4  and  O_30
REMARK    6  A    between atoms: C_10  and  C_19
REMARK    7  A    between atoms: N_21  and  C_22
REMARK    8  A    between atoms: C_22  and  C_23
REMARK    9  A    between atoms: O_30  and  C_31
REMARK                            x       y       z     vdW  Elec       q    Type
REMARK                         _______ _______ _______ _____ _____    ______ ____
ROOT
ATOM      1  C   UNL     1      -2.224  -0.029  -1.060  0.00  0.00    +0.257 C 
ATOM      2  O   UNL     1      -2.840  -0.689  -1.870  0.00  0.00    -0.272 OA
ATOM      3  N   UNL     1      -2.386   1.308  -1.017  0.00  0.00    -0.297 N 
ATOM      4  C   UNL     1      -1.665   2.284  -0.165  0.00  0.00    +0.121 C 
ATOM      5  C   UNL     1      -1.429   3.504  -1.083  0.00  0.00    +0.100 C 
ATOM      6  C   UNL     1      -2.523   3.402  -2.160  0.00  0.00    -0.004 C 
ATOM      7  C   UNL     1      -3.321   2.136  -1.816  0.00  0.00    +0.115 C 
ATOM      8  C   UNL     1      -1.892   3.261  -3.542  0.00  0.00    -0.010 C 
ATOM      9  C   UNL     1      -2.998   3.219  -4.601  0.00  0.00    -0.082 C 
ATOM     10  N   UNL     1      -3.794   4.450  -4.528  0.00  0.00    +0.379 N 
ATOM     11  C   UNL     1      -4.472   4.531  -3.228  0.00  0.00    -0.082 C 
ATOM     12  C   UNL     1      -3.429   4.628  -2.112  0.00  0.00    -0.010 C 
ATOM     13  H   UNL     1      -3.188   5.248  -4.640  0.00  0.00    -0.086 HD
ATOM     14  H   UNL     1      -4.483   4.447  -5.265  0.00  0.00    -0.086 HD
ENDROOT
BRANCH   5  15
ATOM     15  C   UNL     1      -1.577   4.784  -0.302  0.00  0.00    +0.218 C 
ATOM     16  O   UNL     1      -2.272   4.812   0.691  0.00  0.00    -0.275 OA
ATOM     17  N   UNL     1      -0.935   5.898  -0.708  0.00  0.00    -0.311 N 
ATOM     18  H   UNL     1      -0.378   5.876  -1.502  0.00  0.00    +0.149 HD
BRANCH  17  19
ATOM     19  C   UNL     1      -1.078   7.143   0.052  0.00  0.00    +0.140 C 
BRANCH  19  20
ATOM     20  C   UNL     1      -0.266   8.229  -0.606  0.00  0.00    -0.016 A 
ATOM     21  C   UNL     1       0.979   8.561  -0.105  0.00  0.00    +0.006 A 
ATOM     22  C   UNL     1       1.724   9.557  -0.708  0.00  0.00    +0.000 A 
ATOM     23  C   UNL     1       1.225  10.220  -1.814  0.00  0.00    +0.001 A 
ATOM     24  C   UNL     1      -0.019   9.888  -2.316  0.00  0.00    +0.015 A 
ATOM     25  C   UNL     1      -0.763   8.889  -1.715  0.00  0.00    +0.023 A 
ATOM     26 BR   UNL     1      -2.462   8.429  -2.406  0.00  0.00    -0.050 Br
ENDBRANCH  19  20
ENDBRANCH  17  19
ENDBRANCH   5  15
BRANCH   1  27
ATOM     27  C   UNL     1      -1.278  -0.705  -0.101  0.00  0.00    +0.261 C 
BRANCH  27  29
ATOM     28  C   UNL     1       0.673   0.555  -1.023  0.00  0.00    +0.011 C 
ATOM     29  C   UNL     1       0.100  -0.838  -0.753  0.00  0.00    +0.033 C 
ATOM     30  C   UNL     1       1.036  -1.602   0.185  0.00  0.00    +0.011 C 
ENDBRANCH  27  29
BRANCH  27  31
ATOM     31  O   UNL     1      -1.777  -2.003   0.227  0.00  0.00    -0.479 OA
BRANCH  31  32
ATOM     32  C   UNL     1      -1.525  -2.463   1.480  0.00  0.00    +0.122 A 
ATOM     33  C   UNL     1      -0.888  -1.647   2.405  0.00  0.00    +0.045 A 
ATOM     34  C   UNL     1      -0.633  -2.117   3.678  0.00  0.00    +0.004 A 
ATOM     35  C   UNL     1      -1.011  -3.400   4.032  0.00  0.00    +0.000 A 
ATOM     36  C   UNL     1      -1.645  -4.214   3.112  0.00  0.00    +0.004 A 
ATOM     37  C   UNL     1      -1.908  -3.747   1.839  0.00  0.00    +0.045 A 
ENDBRANCH  31  32
ENDBRANCH  27  31
ENDBRANCH   1  27
TORSDOF 7
