REMARK  Name = ZINC06787517
REMARK  10 active torsions:
REMARK  status: ('A' for Active; 'I' for Inactive)
REMARK    1  A    between atoms: C_1  and  C_2
REMARK    2  A    between atoms: C_5  and  C_17
REMARK    3  A    between atoms: C_7  and  S_8
REMARK    4  A    between atoms: S_8  and  N_11
REMARK    5  A    between atoms: N_19  and  C_20
REMARK    6  A    between atoms: C_20  and  C_21
REMARK    7  A    between atoms: C_21  and  C_23
REMARK    8  A    between atoms: C_21  and  N_58
REMARK    9  A    between atoms: C_28  and  N_58
REMARK   10  A    between atoms: C_29  and  N_58
REMARK                            x       y       z     vdW  Elec       q    Type
REMARK                         _______ _______ _______ _____ _____    ______ ____
ROOT
ATOM      1  C   UNL     1      -6.897  -7.782   2.075  0.00  0.00    +0.046 C 
ATOM      2  C   UNL     1      -6.044  -6.558   2.287  0.00  0.00    -0.024 A 
ATOM      3  C   UNL     1      -5.719  -5.751   1.210  0.00  0.00    +0.006 A 
ATOM      4  C   UNL     1      -4.942  -4.627   1.398  0.00  0.00    +0.013 A 
ATOM      5  C   UNL     1      -4.475  -4.310   2.674  0.00  0.00    +0.039 A 
ATOM      6  C   UNL     1      -4.807  -5.128   3.755  0.00  0.00    +0.041 A 
ATOM      7  C   UNL     1      -5.589  -6.247   3.555  0.00  0.00    +0.109 A 
ENDROOT
BRANCH   5   8
ATOM      8  C   UNL     1      -3.637  -3.109   2.881  0.00  0.00    +0.244 C 
ATOM      9  O   UNL     1      -3.236  -2.833   3.995  0.00  0.00    -0.270 OA
ATOM     10  N   UNL     1      -3.319  -2.321   1.835  0.00  0.00    -0.312 N 
ATOM     11  H   UNL     1      -3.639  -2.542   0.947  0.00  0.00    +0.149 HD
BRANCH  10  12
ATOM     12  C   UNL     1      -2.489  -1.132   2.040  0.00  0.00    +0.097 C 
BRANCH  12  13
ATOM     13  C   UNL     1      -2.379  -0.354   0.728  0.00  0.00    +0.016 C 
BRANCH  13  14
ATOM     14  C   UNL     1      -1.450   0.818   0.914  0.00  0.00    +0.093 A 
ATOM     15  C   UNL     1      -1.817   2.110   0.986  0.00  0.00    +0.043 A 
ATOM     16  C   UNL     1      -0.634   2.863   1.161  0.00  0.00    +0.041 A 
ATOM     17  C   UNL     1       0.386   1.987   1.186  0.00  0.00    +0.195 A 
ATOM     18  O   UNL     1      -0.114   0.749   1.036  0.00  0.00    -0.469 OA
ENDBRANCH  13  14
BRANCH  13  21
ATOM     19  C   UNL     1      -1.691  -0.510  -1.589  0.00  0.00    -0.096 C 
ATOM     20  C   UNL     1      -0.583  -1.850   0.097  0.00  0.00    -0.096 C 
ATOM     21  N   UNL     1      -1.869  -1.257  -0.326  0.00  0.00    +0.384 N 
ATOM     22  H   UNL     1      -2.550  -2.011  -0.477  0.00  0.00    -0.082 HD
ENDBRANCH  13  21
ENDBRANCH  12  13
ENDBRANCH  10  12
ENDBRANCH   5   8
BRANCH   7  23
ATOM     23  S   UNL     1      -6.009  -7.281   4.919  0.00  0.00    +0.061 S 
ATOM     24  O   UNL     1      -5.813  -8.620   4.488  0.00  0.00    -0.153 OA
ATOM     25  O   UNL     1      -5.349  -6.742   6.056  0.00  0.00    -0.153 OA
BRANCH  23  26
ATOM     26  N   UNL     1      -7.634  -7.102   5.186  0.00  0.00    -0.177 NA
ATOM     27  C   UNL     1      -8.140  -5.991   6.003  0.00  0.00    +0.109 C 
ATOM     28  C   UNL     1      -9.202  -5.233   5.192  0.00  0.00    +0.017 C 
ATOM     29  C   UNL     1     -10.280  -6.215   4.730  0.00  0.00    +0.003 C 
ATOM     30  C   UNL     1      -9.651  -7.277   3.825  0.00  0.00    +0.017 C 
ATOM     31  C   UNL     1      -8.595  -8.056   4.616  0.00  0.00    +0.109 C 
ENDBRANCH  23  26
ENDBRANCH   7  23
TORSDOF 7
