REMARK  Name = ZINC48998886
REMARK  3 active torsions:
REMARK  status: ('A' for Active; 'I' for Inactive)
REMARK    1  A    between atoms: C_5  and  C_6
REMARK    2  A    between atoms: C_6  and  N_7
REMARK    3  A    between atoms: C_8  and  C_10
REMARK                            x       y       z     vdW  Elec       q    Type
REMARK                         _______ _______ _______ _____ _____    ______ ____
ROOT
ATOM      1  N   UNL     1      -1.597  -1.207  -1.371  0.00  0.00    -0.311 N 
ATOM      2  C   UNL     1      -2.653  -2.010  -1.611  0.00  0.00    +0.217 C 
ATOM      3  O   UNL     1      -3.270  -2.493  -0.686  0.00  0.00    -0.275 OA
ATOM      4  H   UNL     1      -1.103  -0.821  -2.110  0.00  0.00    +0.149 HD
ENDROOT
BRANCH   2   5
ATOM      5  C   UNL     1      -3.066  -2.307  -3.030  0.00  0.00    +0.081 C 
ATOM      6  C   UNL     1      -3.425  -1.001  -3.740  0.00  0.00    +0.002 C 
ATOM      7  C   UNL     1      -3.844  -1.303  -5.181  0.00  0.00    +0.008 C 
ATOM      8  C   UNL     1      -5.060  -2.231  -5.174  0.00  0.00    -0.010 C 
ATOM      9  C   UNL     1      -6.217  -1.552  -4.438  0.00  0.00    +0.007 C 
ATOM     10  C   UNL     1      -5.798  -1.250  -2.998  0.00  0.00    -0.010 C 
ATOM     11  C   UNL     1      -4.581  -0.322  -3.004  0.00  0.00    +0.008 C 
ATOM     12  C   UNL     1      -5.438  -2.556  -2.287  0.00  0.00    +0.008 C 
ATOM     13  C   UNL     1      -4.282  -3.236  -3.023  0.00  0.00    +0.002 C 
ATOM     14  C   UNL     1      -4.701  -3.538  -4.463  0.00  0.00    +0.008 C 
ENDBRANCH   2   5
BRANCH   1  15
ATOM     15  C   UNL     1      -1.196  -0.918   0.009  0.00  0.00    +0.142 C 
BRANCH  15  20
ATOM     16  C   UNL     1      -0.017   1.410   0.010  0.00  0.00    +0.046 A 
ATOM     17  C   UNL     1       1.265   1.817  -0.000  0.00  0.00    +0.195 A 
ATOM     18  O   UNL     1       2.055   0.731  -0.014  0.00  0.00    -0.471 OA
ATOM     19  C   UNL     1       1.295  -0.376  -0.012  0.00  0.00    +0.200 A 
ATOM     20  C   UNL     1       0.002  -0.004   0.002  0.00  0.00    +0.007 A 
ENDBRANCH  15  20
ENDBRANCH   1  15
TORSDOF 3
