REMARK  Name = ZINC27832867
REMARK  5 active torsions:
REMARK  status: ('A' for Active; 'I' for Inactive)
REMARK    1  A    between atoms: C_3  and  N_16
REMARK    2  A    between atoms: C_6  and  C_7
REMARK    3  A    between atoms: C_10  and  N_13
REMARK    4  A    between atoms: C_17  and  C_19
REMARK    5  A    between atoms: C_19  and  C_20
REMARK                            x       y       z     vdW  Elec       q    Type
REMARK                         _______ _______ _______ _____ _____    ______ ____
ROOT
ATOM      1  C   UNL     1      -2.128  -6.312   2.777  0.00  0.00    +0.010 A 
ATOM      2  C   UNL     1      -2.003  -4.950   2.954  0.00  0.00    +0.024 A 
ATOM      3  C   UNL     1      -1.372  -4.178   1.986  0.00  0.00    +0.033 A 
ATOM      4  C   UNL     1      -0.871  -4.774   0.835  0.00  0.00    +0.024 A 
ATOM      5  C   UNL     1      -0.989  -6.136   0.656  0.00  0.00    +0.010 A 
ATOM      6  C   UNL     1      -1.621  -6.913   1.626  0.00  0.00    -0.018 A 
ENDROOT
BRANCH   6   7
ATOM      7  C   UNL     1      -1.754  -8.378   1.433  0.00  0.00    -0.018 A 
ATOM      8  C   UNL     1      -2.380  -9.158   2.405  0.00  0.00    +0.011 A 
ATOM      9  C   UNL     1      -2.505 -10.519   2.218  0.00  0.00    +0.033 A 
ATOM     10  C   UNL     1      -2.000 -11.113   1.075  0.00  0.00    +0.126 A 
ATOM     11  C   UNL     1      -1.373 -10.345   0.110  0.00  0.00    +0.033 A 
ATOM     12  C   UNL     1      -1.248  -8.981   0.283  0.00  0.00    +0.011 A 
BRANCH  10  13
ATOM     13  N   UNL     1      -2.132 -12.574   0.883  0.00  0.00    +0.056 N 
ATOM     14  O   UNL     1      -1.689 -13.099  -0.123  0.00  0.00    -0.126 OA
ATOM     15  O   UNL     1      -2.684 -13.252   1.731  0.00  0.00    -0.126 OA
ENDBRANCH  10  13
ENDBRANCH   6   7
BRANCH   3  16
ATOM     16  N   UNL     1      -1.246  -2.797   2.168  0.00  0.00    -0.285 N 
ATOM     17  C   UNL     1      -0.163  -2.151   1.693  0.00  0.00    +0.219 C 
ATOM     18  O   UNL     1       0.747  -2.778   1.194  0.00  0.00    -0.275 OA
ATOM     19  H   UNL     1      -2.032  -2.238   2.698  0.00  0.00    +0.155 HD
BRANCH  17  20
ATOM     20  C   UNL     1      -0.083  -0.649   1.784  0.00  0.00    +0.120 C 
BRANCH  20  21
ATOM     21  C   UNL     1       1.239  -0.172   1.178  0.00  0.00    +0.149 C 
ATOM     22  C   UNL     1       1.310   1.346   1.136  0.00  0.00    +0.232 C 
ATOM     23  O   UNL     1       0.530   2.010   0.486  0.00  0.00    -0.274 OA
ATOM     24  N   UNL     1       2.277   1.898   1.848  0.00  0.00    -0.264 N 
ATOM     25  C   UNL     1       3.171   1.146   2.586  0.00  0.00    +0.153 C 
ATOM     26  N   UNL     1       4.160   1.566   3.323  0.00  0.00    -0.280 NA
ATOM     27  S   UNL     1       2.652  -0.538   2.292  0.00  0.00    -0.078 S 
ATOM     28  H   UNL     1       2.391   2.992   1.867  0.00  0.00    +0.157 HD
ATOM     29  H   UNL     1       4.793   0.843   3.857  0.00  0.00    +0.189 HD
ENDBRANCH  20  21
ENDBRANCH  17  20
ENDBRANCH   3  16
TORSDOF 5
