REMARK  Name = ZINC36500632
REMARK  16 active torsions:
REMARK  status: ('A' for Active; 'I' for Inactive)
REMARK    1  A    between atoms: C_1  and  C_2
REMARK    2  A    between atoms: C_2  and  C_3
REMARK    3  A    between atoms: C_3  and  C_4
REMARK    4  A    between atoms: C_4  and  C_5
REMARK    5  A    between atoms: C_5  and  C_6
REMARK    6  A    between atoms: C_6  and  C_8
REMARK    7  A    between atoms: C_6  and  N_22
REMARK    8  A    between atoms: N_10  and  C_11
REMARK    9  A    between atoms: C_11  and  S_12
REMARK   10  A    between atoms: S_12  and  C_15
REMARK   11  A    between atoms: C_18  and  C_21
REMARK   12  A    between atoms: N_22  and  C_23
REMARK   13  A    between atoms: C_23  and  C_24
REMARK   14  A    between atoms: C_29  and  C_31
REMARK   15  A    between atoms: C_32  and  O_38
REMARK   16  A    between atoms: C_36  and  O_37
REMARK                            x       y       z     vdW  Elec       q    Type
REMARK                         _______ _______ _______ _____ _____    ______ ____
ROOT
ATOM      1  C   UNL     1      -2.827  -4.123   0.007  0.00  0.00    +0.163 C 
ENDROOT
BRANCH   1   2
ATOM      2  C   UNL     1      -4.234  -4.645   0.141  0.00  0.00    +0.235 C 
ATOM      3  O   UNL     1      -4.708  -5.344  -0.730  0.00  0.00    -0.274 OA
ATOM      4  N   UNL     1      -4.967  -4.335   1.229  0.00  0.00    -0.295 N 
ATOM      5  H   UNL     1      -4.588  -3.776   1.926  0.00  0.00    +0.150 HD
BRANCH   4   6
ATOM      6  C   UNL     1      -6.335  -4.843   1.360  0.00  0.00    +0.278 C 
BRANCH   6   7
ATOM      7  S   UNL     1      -6.322  -6.371   2.338  0.00  0.00    +0.013 S 
ATOM      8  O   UNL     1      -7.649  -6.842   2.527  0.00  0.00    -0.168 OA
ATOM      9  O   UNL     1      -5.304  -7.244   1.869  0.00  0.00    -0.168 OA
BRANCH   7  10
ATOM     10  C   UNL     1      -5.787  -5.877   3.943  0.00  0.00    +0.090 A 
ATOM     11  C   UNL     1      -4.440  -5.872   4.251  0.00  0.00    +0.027 A 
ATOM     12  C   UNL     1      -4.020  -5.485   5.510  0.00  0.00    +0.005 A 
ATOM     13  C   UNL     1      -4.948  -5.101   6.460  0.00  0.00    -0.050 A 
ATOM     14  C   UNL     1      -6.295  -5.105   6.151  0.00  0.00    +0.005 A 
ATOM     15  C   UNL     1      -6.715  -5.488   4.891  0.00  0.00    +0.027 A 
ATOM     16  C   UNL     1      -4.490  -4.680   7.833  0.00  0.00    +0.044 C 
ENDBRANCH   7  10
ENDBRANCH   6   7
ENDBRANCH   4   6
ENDBRANCH   1   2
BRANCH   1  17
ATOM     17  N   UNL     1      -2.249  -4.596  -1.253  0.00  0.00    -0.278 N 
ATOM     18  C   UNL     1      -1.136  -5.356  -1.240  0.00  0.00    +0.255 C 
ATOM     19  O   UNL     1      -0.612  -5.649  -0.182  0.00  0.00    -0.270 OA
BRANCH  18  20
ATOM     20  C   UNL     1      -0.555  -5.832  -2.506  0.00  0.00    +0.119 A 
ATOM     21  C   UNL     1       0.411  -5.064  -3.173  0.00  0.00    +0.133 A 
ATOM     22  C   UNL     1       0.952  -5.522  -4.364  0.00  0.00    +0.046 A 
ATOM     23  C   UNL     1       0.543  -6.731  -4.895  0.00  0.00    +0.007 A 
ATOM     24  C   UNL     1      -0.409  -7.496  -4.246  0.00  0.00    +0.046 A 
ATOM     25  C   UNL     1      -0.959  -7.060  -3.052  0.00  0.00    +0.133 A 
BRANCH  25  26
ATOM     26  O   UNL     1      -1.888  -7.815  -2.414  0.00  0.00    -0.506 OA
ATOM     27  H   UNL     1      -2.798  -7.624  -2.678  0.00  0.00    +0.292 HD
ENDBRANCH  25  26
BRANCH  21  28
ATOM     28  O   UNL     1       0.814  -3.878  -2.654  0.00  0.00    -0.506 OA
ATOM     29  H   UNL     1       1.570  -3.947  -2.054  0.00  0.00    +0.292 HD
ENDBRANCH  21  28
ENDBRANCH  18  20
BRANCH  17  30
ATOM     30  C   UNL     1      -2.880  -4.244  -2.527  0.00  0.00    +0.183 C 
BRANCH  30  31
ATOM     31  C   UNL     1      -2.296  -2.952  -3.037  0.00  0.00    +0.122 A 
ATOM     32  C   UNL     1      -1.226  -2.836  -3.843  0.00  0.00    +0.046 A 
ATOM     33  C   UNL     1      -1.030  -1.454  -4.068  0.00  0.00    +0.041 A 
ATOM     34  C   UNL     1      -1.992  -0.808  -3.386  0.00  0.00    +0.195 A 
ATOM     35  O   UNL     1      -2.760  -1.720  -2.768  0.00  0.00    -0.466 OA
ENDBRANCH  30  31
ENDBRANCH  17  30
ENDBRANCH   1  17
BRANCH   1  36
ATOM     36  C   UNL     1      -2.848  -2.593   0.015  0.00  0.00    +0.032 C 
BRANCH  36  37
ATOM     37  C   UNL     1      -1.413  -2.063   0.004  0.00  0.00    +0.002 C 
BRANCH  37  38
ATOM     38  C   UNL     1      -1.433  -0.534   0.013  0.00  0.00    -0.000 C 
BRANCH  38  40
ATOM     39  C   UNL     1      -0.019   1.526   0.010  0.00  0.00    +0.004 C 
ATOM     40  C   UNL     1       0.002  -0.004   0.002  0.00  0.00    -0.003 C 
ENDBRANCH  38  40
ENDBRANCH  37  38
ENDBRANCH  36  37
ENDBRANCH   1  36
TORSDOF 14
