REMARK  Name = ZINC53126274
REMARK  4 active torsions:
REMARK  status: ('A' for Active; 'I' for Inactive)
REMARK    1  A    between atoms: C_8  and  C_11
REMARK    2  A    between atoms: C_11  and  N_12
REMARK    3  A    between atoms: C_13  and  C_15
REMARK    4  A    between atoms: C_15  and  N_16
REMARK                            x       y       z     vdW  Elec       q    Type
REMARK                         _______ _______ _______ _____ _____    ______ ____
ROOT
ATOM      1  C   UNL     1       7.484  -4.203   0.089  0.00  0.00    +0.213 C 
ENDROOT
BRANCH   1   2
ATOM      2  N   UNL     1       8.215  -5.258  -0.617  0.00  0.00    -0.215 N 
ATOM      3  C   UNL     1       8.300  -6.536  -0.193  0.00  0.00    +0.247 C 
ATOM      4  O   UNL     1       7.807  -7.013   0.806  0.00  0.00    -0.273 OA
ATOM      5  C   UNL     1       9.141  -7.247  -1.227  0.00  0.00    +0.113 C 
ATOM      6  C   UNL     1      10.376  -7.854  -0.622  0.00  0.00    +0.035 C 
ATOM      7  C   UNL     1      11.590  -7.785  -1.573  0.00  0.00    +0.003 C 
ATOM      8  C   UNL     1      11.223  -8.114  -3.033  0.00  0.00    +0.000 C 
ATOM      9  C   UNL     1      10.268  -9.270  -3.139  0.00  0.00    +0.000 C 
ATOM     10  C   UNL     1       8.833  -8.712  -3.211  0.00  0.00    +0.003 C 
ATOM     11  C   UNL     1       8.307  -8.355  -1.901  0.00  0.00    +0.035 C 
ATOM     12  N   UNL     1       9.465  -6.204  -2.206  0.00  0.00    -0.285 N 
ATOM     13  C   UNL     1       8.876  -5.075  -1.767  0.00  0.00    +0.310 C 
ATOM     14  O   UNL     1       8.941  -4.008  -2.346  0.00  0.00    -0.252 OA
ATOM     15  H   UNL     1       9.994  -6.307  -3.013  0.00  0.00    +0.151 HD
ENDBRANCH   1   2
BRANCH   1  17
ATOM     16  N   UNL     1       5.193  -3.271   0.115  0.00  0.00    -0.310 N 
ATOM     17  C   UNL     1       6.058  -4.168  -0.397  0.00  0.00    +0.231 C 
ATOM     18  O   UNL     1       5.689  -4.947  -1.250  0.00  0.00    -0.274 OA
ATOM     19  H   UNL     1       5.488  -2.647   0.798  0.00  0.00    +0.149 HD
BRANCH  16  20
ATOM     20  C   UNL     1       3.807  -3.236  -0.358  0.00  0.00    +0.149 C 
BRANCH  20  28
ATOM     21  C   UNL     1      -0.017   1.379   0.010  0.00  0.00    +0.000 A 
ATOM     22  C   UNL     1       1.174   2.082   0.002  0.00  0.00    +0.004 A 
ATOM     23  C   UNL     1       2.379   1.411  -0.017  0.00  0.00    +0.046 A 
ATOM     24  C   UNL     1       2.407   0.019  -0.028  0.00  0.00    +0.124 A 
ATOM     25  C   UNL     1       1.204  -0.676  -0.013  0.00  0.00    -0.002 A 
ATOM     26  C   UNL     1       0.002  -0.004   0.002  0.00  0.00    +0.007 A 
ATOM     27  C   UNL     1       1.545  -2.154  -0.005  0.00  0.00    +0.085 C 
ATOM     28  C   UNL     1       3.043  -2.135   0.380  0.00  0.00    +0.195 C 
ATOM     29  O   UNL     1       3.468  -0.833  -0.059  0.00  0.00    -0.487 OA
ENDBRANCH  20  28
ENDBRANCH  16  20
ENDBRANCH   1  17
TORSDOF 4
