REMARK  Name = ZINC08738709
REMARK  9 active torsions:
REMARK  status: ('A' for Active; 'I' for Inactive)
REMARK    1  A    between atoms: C_1  and  C_2
REMARK    2  A    between atoms: C_2  and  C_3
REMARK    3  A    between atoms: C_6  and  N_9
REMARK    4  A    between atoms: C_10  and  C_12
REMARK    5  A    between atoms: C_12  and  C_14
REMARK    6  A    between atoms: C_12  and  N_17
REMARK    7  A    between atoms: C_14  and  C_15
REMARK    8  A    between atoms: C_14  and  C_16
REMARK    9  A    between atoms: C_18  and  C_20
REMARK                            x       y       z     vdW  Elec       q    Type
REMARK                         _______ _______ _______ _____ _____    ______ ____
ROOT
ATOM      1  C   UNL     1      -4.666   4.250   5.839  0.00  0.00    +0.162 C 
ENDROOT
BRANCH   1   3
ATOM      2  N   UNL     1      -2.674   3.355   4.678  0.00  0.00    -0.284 N 
ATOM      3  C   UNL     1      -3.986   3.659   4.631  0.00  0.00    +0.238 C 
ATOM      4  O   UNL     1      -4.620   3.456   3.618  0.00  0.00    -0.273 OA
ATOM      5  H   UNL     1      -2.182   3.454   5.508  0.00  0.00    +0.155 HD
BRANCH   2   9
ATOM      6  C   UNL     1      -0.730   1.992   1.255  0.00  0.00    -0.048 A 
ATOM      7  C   UNL     1      -0.056   2.793   2.158  0.00  0.00    +0.005 A 
ATOM      8  C   UNL     1      -0.699   3.251   3.292  0.00  0.00    +0.023 A 
ATOM      9  C   UNL     1      -2.021   2.897   3.529  0.00  0.00    +0.033 A 
ATOM     10  C   UNL     1      -2.693   2.088   2.622  0.00  0.00    +0.023 A 
ATOM     11  C   UNL     1      -2.046   1.638   1.488  0.00  0.00    +0.005 A 
BRANCH   6  13
ATOM     12  C   UNL     1      -0.230   2.503  -1.120  0.00  0.00    +0.009 C 
ATOM     13  C   UNL     1      -0.026   1.500   0.017  0.00  0.00    +0.032 C 
ENDBRANCH   6  13
ENDBRANCH   2   9
ENDBRANCH   1   3
BRANCH   1  14
ATOM     14  N   UNL     1      -6.080   4.488   5.537  0.00  0.00    -0.305 N 
ATOM     15  C   UNL     1      -6.986   4.524   6.534  0.00  0.00    +0.200 C 
ATOM     16  O   UNL     1      -6.631   4.359   7.682  0.00  0.00    -0.278 OA
ATOM     17  H   UNL     1      -6.364   4.620   4.619  0.00  0.00    +0.149 HD
BRANCH  15  18
ATOM     18  C   UNL     1      -8.440   4.769   6.223  0.00  0.00    +0.021 C 
ATOM     19  C   UNL     1      -9.092   3.466   5.760  0.00  0.00    +0.028 C 
ATOM     20  C   UNL     1     -10.587   3.639   5.679  0.00  0.00    -0.047 A 
ATOM     21  C   UNL     1     -11.323   2.712   4.957  0.00  0.00    +0.004 A 
ATOM     22  C   UNL     1     -12.695   2.829   4.865  0.00  0.00    +0.000 A 
ATOM     23  C   UNL     1     -13.339   3.877   5.495  0.00  0.00    +0.000 A 
ATOM     24  C   UNL     1     -12.608   4.802   6.212  0.00  0.00    +0.002 A 
ATOM     25  C   UNL     1     -11.229   4.686   6.305  0.00  0.00    -0.061 A 
ATOM     26  C   UNL     1     -10.474   5.722   7.096  0.00  0.00    -0.045 C 
ATOM     27  N   UNL     1      -9.131   5.234   7.439  0.00  0.00    +0.389 N 
ATOM     28  H   UNL     1      -8.591   5.994   7.868  0.00  0.00    -0.084 HD
ATOM     29  H   UNL     1      -9.212   4.455   8.104  0.00  0.00    -0.084 HD
ENDBRANCH  15  18
ENDBRANCH   1  14
BRANCH   1  30
ATOM     30  C   UNL     1      -3.993   5.575   6.206  0.00  0.00    +0.012 C 
ATOM     31  C   UNL     1      -4.214   6.588   5.080  0.00  0.00    +0.009 C 
ATOM     32  C   UNL     1      -4.600   6.114   7.503  0.00  0.00    +0.009 C 
ENDBRANCH   1  30
TORSDOF 6
