REMARK  Name = ZINC36220902
REMARK  6 active torsions:
REMARK  status: ('A' for Active; 'I' for Inactive)
REMARK    1  A    between atoms: C_1  and  C_2
REMARK    2  A    between atoms: C_3  and  C_31
REMARK    3  A    between atoms: C_11  and  C_13
REMARK    4  A    between atoms: C_13  and  S_14
REMARK    5  A    between atoms: S_14  and  C_15
REMARK    6  A    between atoms: C_25  and  C_29
REMARK                            x       y       z     vdW  Elec       q    Type
REMARK                         _______ _______ _______ _____ _____    ______ ____
ROOT
ATOM      1  C   UNL     1       0.513  -6.167   5.428  0.00  0.00    +0.191 A 
ATOM      2  N   UNL     1       0.497  -5.564   6.611  0.00  0.00    -0.207 NA
ATOM      3  C   UNL     1       0.149  -6.198   7.718  0.00  0.00    +0.129 A 
ATOM      4  C   UNL     1      -0.223  -7.570   7.645  0.00  0.00    +0.051 A 
ATOM      5  C   UNL     1      -0.642  -8.463   8.728  0.00  0.00    -0.025 A 
ATOM      6  C   UNL     1      -0.943  -9.733   8.392  0.00  0.00    -0.004 A 
ATOM      7  S   UNL     1      -0.691  -9.820   6.639  0.00  0.00    -0.073 S 
ATOM      8  C   UNL     1      -0.182  -8.144   6.359  0.00  0.00    +0.115 A 
ATOM      9  N   UNL     1       0.173  -7.442   5.300  0.00  0.00    -0.215 NA
ATOM     10  C   UNL     1      -1.394 -10.832   9.306  0.00  0.00    +0.046 C 
ATOM     11  C   UNL     1      -1.826 -10.206  10.640  0.00  0.00    -0.009 C 
ATOM     12  C   UNL     1      -0.743  -9.222  11.093  0.00  0.00    +0.008 C 
ATOM     13  C   UNL     1      -0.741  -7.996  10.178  0.00  0.00    +0.037 C 
ATOM     14  C   UNL     1      -1.997 -11.305  11.691  0.00  0.00    +0.008 C 
ATOM     15  N   UNL     1       0.145  -5.536   8.932  0.00  0.00    -0.343 N 
ATOM     16  H   UNL     1      -0.326  -5.915   9.690  0.00  0.00    +0.144 HD
ATOM     17  H   UNL     1       0.614  -4.692   9.025  0.00  0.00    +0.144 HD
ENDROOT
BRANCH   1  18
ATOM     18  S   UNL     1       0.989  -5.252   3.998  0.00  0.00    -0.078 S 
BRANCH  18  19
ATOM     19  C   UNL     1       1.358  -3.596   4.640  0.00  0.00    +0.151 C 
BRANCH  19  30
ATOM     20  C   UNL     1       3.341   1.072   0.255  0.00  0.00    +0.045 C 
ATOM     21  C   UNL     1       2.938  -0.380   0.215  0.00  0.00    -0.026 A 
ATOM     22  C   UNL     1       2.931  -1.051  -0.947  0.00  0.00    -0.008 A 
ATOM     23  S   UNL     1       2.396  -2.686  -0.477  0.00  0.00    -0.073 S 
ATOM     24  C   UNL     1       2.199  -2.419   1.266  0.00  0.00    +0.116 A 
ATOM     25  C   UNL     1       2.558  -1.070   1.434  0.00  0.00    +0.075 A 
ATOM     26  C   UNL     1       2.494  -0.574   2.777  0.00  0.00    +0.260 A 
ATOM     27  O   UNL     1       2.782   0.584   3.024  0.00  0.00    -0.267 OA
ATOM     28  N   UNL     1       2.109  -1.408   3.761  0.00  0.00    -0.310 N 
ATOM     29  H   UNL     1       2.063  -1.078   4.673  0.00  0.00    +0.170 HD
ATOM     30  C   UNL     1       1.784  -2.701   3.505  0.00  0.00    +0.121 A 
ATOM     31  N   UNL     1       1.824  -3.180   2.291  0.00  0.00    -0.226 NA
ATOM     32  C   UNL     1       3.288  -0.544  -2.321  0.00  0.00    +0.052 C 
ENDBRANCH  19  30
ENDBRANCH  18  19
ENDBRANCH   1  18
TORSDOF 3
