REMARK  Name = ZINC27101389
REMARK  5 active torsions:
REMARK  status: ('A' for Active; 'I' for Inactive)
REMARK    1  A    between atoms: C_3  and  C_9
REMARK    2  A    between atoms: C_5  and  C_7
REMARK    3  A    between atoms: C_16  and  O_20
REMARK    4  A    between atoms: O_20  and  C_21
REMARK    5  A    between atoms: C_21  and  C_22
REMARK                            x       y       z     vdW  Elec       q    Type
REMARK                         _______ _______ _______ _____ _____    ______ ____
ROOT
ATOM      1  C   UNL     1       0.103   1.020   8.306  0.00  0.00    +0.058 C 
ATOM      2  C   UNL     1       0.236   0.952   6.958  0.00  0.00    +0.176 C 
ATOM      3  C   UNL     1       1.291   0.237   6.223  0.00  0.00    +0.231 C 
ATOM      4  O   UNL     1       2.215  -0.410   6.685  0.00  0.00    -0.283 OA
ATOM      5  C   UNL     1       0.980   0.478   4.802  0.00  0.00    +0.068 A 
ATOM      6  C   UNL     1       1.589   0.080   3.611  0.00  0.00    +0.019 A 
ATOM      7  C   UNL     1       1.059   0.468   2.413  0.00  0.00    +0.046 A 
ATOM      8  C   UNL     1      -0.086   1.260   2.378  0.00  0.00    +0.125 A 
ATOM      9  C   UNL     1      -0.697   1.667   3.553  0.00  0.00    +0.092 A 
ATOM     10  C   UNL     1      -0.175   1.276   4.780  0.00  0.00    +0.143 A 
ATOM     11  O   UNL     1      -0.578   1.531   6.044  0.00  0.00    -0.451 OA
ENDROOT
BRANCH   1  14
ATOM     12  C   UNL     1      -2.853   3.309   8.636  0.00  0.00    +0.002 A 
ATOM     13  C   UNL     1      -1.872   2.515   8.079  0.00  0.00    +0.008 A 
ATOM     14  C   UNL     1      -0.939   1.870   8.900  0.00  0.00    -0.020 A 
ATOM     15  C   UNL     1      -0.998   2.042  10.285  0.00  0.00    +0.027 A 
ATOM     16  C   UNL     1      -1.989   2.849  10.838  0.00  0.00    +0.052 A 
ATOM     17  C   UNL     1      -2.916   3.483  10.005  0.00  0.00    +0.019 A 
BRANCH  16  18
ATOM     18  C   UNL     1      -2.057   3.031  12.257  0.00  0.00    +0.099 C 
ATOM     19  N   UNL     1      -2.111   3.176  13.382  0.00  0.00    -0.191 NA
ENDBRANCH  16  18
ENDBRANCH   1  14
BRANCH   8  20
ATOM     20  O   UNL     1      -0.604   1.641   1.183  0.00  0.00    -0.483 OA
BRANCH  20  21
ATOM     21  C   UNL     1       0.076   1.193   0.009  0.00  0.00    +0.324 C 
BRANCH  21  22
ATOM     22  C   UNL     1      -0.638   1.710  -1.213  0.00  0.00    +0.248 C 
ATOM     23  O   UNL     1      -1.632   2.395  -1.091  0.00  0.00    -0.272 OA
ATOM     24  N   UNL     1      -0.173   1.412  -2.442  0.00  0.00    -0.327 N 
ATOM     25  H   UNL     1      -0.695   1.790  -3.334  0.00  0.00    +0.145 HD
ATOM     26  H   UNL     1       0.728   0.791  -2.554  0.00  0.00    +0.145 HD
ENDBRANCH  21  22
ENDBRANCH  20  21
ENDBRANCH   8  20
TORSDOF 5
