REMARK  Name = ZINC39559514
REMARK  5 active torsions:
REMARK  status: ('A' for Active; 'I' for Inactive)
REMARK    1  A    between atoms: C_3  and  C_9
REMARK    2  A    between atoms: C_10  and  C_11
REMARK    3  A    between atoms: N_13  and  C_14
REMARK    4  A    between atoms: C_14  and  C_15
REMARK    5  A    between atoms: N_17  and  C_18
REMARK                            x       y       z     vdW  Elec       q    Type
REMARK                         _______ _______ _______ _____ _____    ______ ____
ROOT
ATOM      1  C   UNL     1       5.845   7.829  -0.017  0.00  0.00    +0.234 C 
ATOM      2  O   UNL     1       4.697   8.219  -0.013  0.00  0.00    -0.274 OA
ATOM      3  N   UNL     1       6.859   8.717  -0.020  0.00  0.00    -0.284 N 
ATOM      4  H   UNL     1       7.776   8.407   0.044  0.00  0.00    +0.155 HD
ENDROOT
BRANCH   3   5
ATOM      5  C   UNL     1       6.588  10.088  -0.116  0.00  0.00    +0.036 A 
ATOM      6  C   UNL     1       7.452  10.918  -0.823  0.00  0.00    +0.025 A 
ATOM      7  C   UNL     1       7.191  12.270  -0.921  0.00  0.00    +0.029 A 
ATOM      8  C   UNL     1       6.064  12.803  -0.314  0.00  0.00    +0.067 A 
ATOM      9  C   UNL     1       5.195  11.973   0.397  0.00  0.00    +0.069 A 
ATOM     10  C   UNL     1       5.457  10.615   0.489  0.00  0.00    +0.051 A 
ATOM     11  N   UNL     1       4.173  12.783   0.885  0.00  0.00    -0.306 N 
ATOM     12  H   UNL     1       3.419  12.486   1.419  0.00  0.00    +0.170 HD
ATOM     13  C   UNL     1       4.408  14.048   0.489  0.00  0.00    +0.325 A 
ATOM     14  O   UNL     1       3.703  15.005   0.748  0.00  0.00    -0.247 OA
ATOM     15  N   UNL     1       5.542  14.094  -0.235  0.00  0.00    -0.306 N 
ATOM     16  H   UNL     1       5.929  14.888  -0.634  0.00  0.00    +0.170 HD
ENDBRANCH   3   5
BRANCH   1  17
ATOM     17  C   UNL     1       6.139   6.351  -0.018  0.00  0.00    +0.200 C 
BRANCH  17  20
ATOM     18  C   UNL     1       4.895   4.255  -0.014  0.00  0.00    +0.237 C 
ATOM     19  O   UNL     1       5.957   3.660  -0.018  0.00  0.00    -0.271 OA
ATOM     20  N   UNL     1       4.879   5.603  -0.014  0.00  0.00    -0.303 N 
ATOM     21  H   UNL     1       4.033   6.078  -0.011  0.00  0.00    +0.149 HD
BRANCH  18  23
ATOM     22  C   UNL     1       3.653   2.160  -0.011  0.00  0.00    +0.014 C 
ATOM     23  C   UNL     1       3.636   3.508  -0.010  0.00  0.00    +0.068 C 
BRANCH  22  26
ATOM     24  C   UNL     1      -0.016   1.379   0.001  0.00  0.00    +0.002 A 
ATOM     25  C   UNL     1       1.166   2.089  -0.002  0.00  0.00    +0.009 A 
ATOM     26  C   UNL     1       2.388   1.408  -0.006  0.00  0.00    -0.005 A 
ATOM     27  C   UNL     1       2.400   0.009  -0.007  0.00  0.00    +0.066 A 
ATOM     28  C   UNL     1       1.208  -0.688  -0.004  0.00  0.00    +0.060 A 
ATOM     29  C   UNL     1       0.003  -0.005   0.001  0.00  0.00    +0.021 A 
ATOM     30 CL   UNL     1       1.219  -2.424  -0.005  0.00  0.00    -0.082 Cl
ATOM     31 CL   UNL     1       3.910  -0.848  -0.014  0.00  0.00    -0.081 Cl
ENDBRANCH  22  26
ENDBRANCH  18  23
ENDBRANCH  17  20
ENDBRANCH   1  17
TORSDOF 5
