REMARK  Name = ZINC66952489
REMARK  6 active torsions:
REMARK  status: ('A' for Active; 'I' for Inactive)
REMARK    1  A    between atoms: C_1  and  O_2
REMARK    2  A    between atoms: O_2  and  C_3
REMARK    3  A    between atoms: C_6  and  N_10
REMARK    4  A    between atoms: N_13  and  C_14
REMARK    5  A    between atoms: C_14  and  C_15
REMARK    6  A    between atoms: C_15  and  O_25
REMARK                            x       y       z     vdW  Elec       q    Type
REMARK                         _______ _______ _______ _____ _____    ______ ____
ROOT
ATOM      1  N   UNL     1      -4.835  -2.743   0.033  0.00  0.00    -0.269 N 
ATOM      2  C   UNL     1      -5.505  -2.915  -1.124  0.00  0.00    +0.304 C 
ATOM      3  O   UNL     1      -4.974  -2.633  -2.182  0.00  0.00    -0.253 OA
ATOM      4  N   UNL     1      -6.763  -3.399  -1.110  0.00  0.00    -0.296 N 
ATOM      5  H   UNL     1      -5.229  -3.037   0.869  0.00  0.00    +0.156 HD
ATOM      6  H   UNL     1      -7.186  -3.623  -0.266  0.00  0.00    +0.150 HD
ENDROOT
BRANCH   1  10
ATOM      7  C   UNL     1      -1.070  -0.944   0.017  0.00  0.00    +0.190 A 
ATOM      8  C   UNL     1      -2.030  -0.554  -0.907  0.00  0.00    +0.169 A 
ATOM      9  C   UNL     1      -3.278  -1.150  -0.902  0.00  0.00    +0.065 A 
ATOM     10  C   UNL     1      -3.571  -2.139   0.027  0.00  0.00    +0.040 A 
ATOM     11  C   UNL     1      -2.611  -2.529   0.952  0.00  0.00    +0.065 A 
ATOM     12  C   UNL     1      -1.361  -1.937   0.943  0.00  0.00    +0.169 A 
ATOM     13  F   UNL     1      -0.426  -2.321   1.838  0.00  0.00    -0.201 F 
ATOM     14  F   UNL     1      -1.744   0.409  -1.811  0.00  0.00    -0.201 F 
BRANCH   7  16
ATOM     15  C   UNL     1       1.162  -0.961  -0.806  0.00  0.00    +0.277 C 
ATOM     16  O   UNL     1       0.158  -0.357   0.012  0.00  0.00    -0.490 OA
ENDBRANCH   7  16
ENDBRANCH   1  10
BRANCH   4  17
ATOM     17  C   UNL     1      -7.490  -3.586  -2.367  0.00  0.00    +0.145 C 
BRANCH  17  18
ATOM     18  C   UNL     1      -8.908  -4.079  -2.068  0.00  0.00    +0.107 C 
ATOM     19  C   UNL     1      -8.831  -5.362  -1.243  0.00  0.00    +0.041 C 
ATOM     20  C   UNL     1     -10.241  -5.955  -1.139  0.00  0.00    +0.008 C 
ATOM     21  C   UNL     1     -10.642  -6.483  -2.515  0.00  0.00    +0.035 C 
ATOM     22  C   UNL     1     -10.431  -5.428  -3.569  0.00  0.00    -0.041 A 
ATOM     23  C   UNL     1      -9.632  -4.326  -3.365  0.00  0.00    -0.011 A 
ATOM     24  C   UNL     1      -9.474  -3.393  -4.382  0.00  0.00    +0.007 A 
ATOM     25  C   UNL     1     -10.115  -3.560  -5.592  0.00  0.00    +0.000 A 
ATOM     26  C   UNL     1     -10.921  -4.665  -5.796  0.00  0.00    +0.000 A 
ATOM     27  C   UNL     1     -11.077  -5.594  -4.788  0.00  0.00    +0.004 A 
BRANCH  18  28
ATOM     28  O   UNL     1      -9.606  -3.080  -1.321  0.00  0.00    -0.382 OA
ATOM     29  H   UNL     1      -9.688  -2.232  -1.779  0.00  0.00    +0.211 HD
ENDBRANCH  18  28
ENDBRANCH  17  18
ENDBRANCH   4  17
TORSDOF 5
