REMARK  Name = ZINC02020074
REMARK  6 active torsions:
REMARK  status: ('A' for Active; 'I' for Inactive)
REMARK    1  A    between atoms: C_1  and  C_2
REMARK    2  A    between atoms: CA_3  and  C_24
REMARK    3  A    between atoms: CA_7  and  N_11
REMARK    4  A    between atoms: C_12  and  CA_14
REMARK    5  A    between atoms: CA_14  and  C_16
REMARK    6  A    between atoms: CA_14  and  N_41
REMARK                            x       y       z     vdW  Elec       q    Type
REMARK                         _______ _______ _______ _____ _____    ______ ____
ROOT
ATOM      1  N   UNL     1      -3.201   1.662  -1.679  0.00  0.00    -0.303 N 
ATOM      2  C   UNL     1      -2.213   1.024  -1.022  0.00  0.00    +0.203 C 
ATOM      3  O   UNL     1      -2.464   0.045  -0.352  0.00  0.00    -0.277 OA
ATOM      4  H   UNL     1      -3.000   2.445  -2.215  0.00  0.00    +0.149 HD
ENDROOT
BRANCH   1  10
ATOM      5  C   UNL     1      -7.499   5.504  -3.488  0.00  0.00    +0.042 C 
ATOM      6  C   UNL     1      -6.703   4.239  -3.293  0.00  0.00    -0.034 C 
ATOM      7  CA  UNL     1      -6.765   3.702  -2.086  0.00  0.00    +0.126 C 
ATOM      8  N   UNL     1      -6.017   2.546  -1.779  0.00  0.00    -0.249 N 
ATOM      9  C   UNL     1      -5.444   1.582  -2.765  0.00  0.00    +0.169 C 
ATOM     10  CA  UNL     1      -4.579   1.173  -1.584  0.00  0.00    +0.191 C 
ATOM     11  C   UNL     1      -5.451   2.018  -0.682  0.00  0.00    +0.244 C 
ATOM     12  O   UNL     1      -5.583   2.157   0.515  0.00  0.00    -0.273 OA
ATOM     13  S   UNL     1      -4.615   2.605  -4.028  0.00  0.00    -0.131 S 
ATOM     14  C   UNL     1      -5.946   3.758  -4.488  0.00  0.00    +0.103 C 
BRANCH   7  15
ATOM     15  C   UNL     1      -7.623   4.314  -1.055  0.00  0.00    +0.401 C 
ATOM     16  O   UNL     1      -7.683   3.823   0.055  0.00  0.00    -0.239 OA
ATOM     17  OXT UNL     1      -8.340   5.418  -1.344  0.00  0.00    -0.239 OA
ENDBRANCH   7  15
ENDBRANCH   1  10
BRANCH   2  18
ATOM     18  CA  UNL     1      -0.795   1.527  -1.120  0.00  0.00    +0.039 C 
BRANCH  18  19
ATOM     19  C   UNL     1      -0.185   1.059  -2.416  0.00  0.00    -0.075 C 
ATOM     20  C   UNL     1       0.137   1.947  -3.307  0.00  0.00    -0.024 C 
ATOM     21  C   UNL     1       0.754   1.589  -4.625  0.00  0.00    +0.054 C 
ATOM     22  C   UNL     1       0.504   0.150  -4.966  0.00  0.00    -0.027 C 
ATOM     23  C   UNL     1       0.177  -0.738  -4.077  0.00  0.00    -0.026 C 
ATOM     24  C   UNL     1       0.019  -0.412  -2.623  0.00  0.00    +0.056 C 
ENDBRANCH  18  19
BRANCH  18  27
ATOM     25  H1  UNL     1       0.002  -0.004   0.002  0.00  0.00    -0.088 HD
ATOM     26  H2  UNL     1       0.925   1.379   0.001  0.00  0.00    -0.088 HD
ATOM     27  N   UNL     1      -0.025   1.014   0.027  0.00  0.00    +0.388 N 
ATOM     28  H3  UNL     1      -0.476   1.316   0.899  0.00  0.00    -0.088 HD
ENDBRANCH  18  27
ENDBRANCH   2  18
TORSDOF 5
