REMARK  Name = ZINC12745521
REMARK  10 active torsions:
REMARK  status: ('A' for Active; 'I' for Inactive)
REMARK    1  A    between atoms: C_1  and  C_2
REMARK    2  A    between atoms: C_7  and  N_8
REMARK    3  A    between atoms: C_13  and  N_57
REMARK    4  A    between atoms: C_16  and  C_18
REMARK    5  A    between atoms: C_16  and  C_19
REMARK    6  A    between atoms: C_20  and  C_21
REMARK    7  A    between atoms: C_20  and  N_57
REMARK    8  A    between atoms: C_23  and  O_29
REMARK    9  A    between atoms: C_24  and  O_28
REMARK   10  A    between atoms: O_29  and  C_30
REMARK                            x       y       z     vdW  Elec       q    Type
REMARK                         _______ _______ _______ _____ _____    ______ ____
ROOT
ATOM      1  N   UNL     1      -4.129   0.734   0.243  0.00  0.00    -0.236 N 
ATOM      2  C   UNL     1      -2.833   0.994  -0.010  0.00  0.00    +0.047 A 
ATOM      3  C   UNL     1      -2.236   1.311   1.167  0.00  0.00    -0.020 A 
ATOM      4  C   UNL     1      -3.200   1.245   2.171  0.00  0.00    +0.137 A 
ATOM      5  N   UNL     1      -4.338   0.899   1.621  0.00  0.00    -0.174 NA
ATOM      6  C   UNL     1      -0.776   1.665   1.306  0.00  0.00    -0.037 C 
ATOM      7  C   UNL     1      -0.044   1.206   0.039  0.00  0.00    -0.005 C 
ATOM      8  C   UNL     1      -0.793   1.712  -1.196  0.00  0.00    -0.031 C 
ATOM      9  C   UNL     1      -2.119   0.955  -1.338  0.00  0.00    +0.062 C 
ATOM     10  C   UNL     1      -1.074   3.208  -1.044  0.00  0.00    +0.011 C 
ATOM     11  C   UNL     1       0.063   1.479  -2.443  0.00  0.00    +0.011 C 
ENDROOT
BRANCH   1  18
ATOM     12  C   UNL     1      -5.765  -1.527   0.804  0.00  0.00    +0.046 C 
ATOM     13  C   UNL     1      -5.916  -0.731  -0.466  0.00  0.00    -0.025 A 
ATOM     14  C   UNL     1      -6.874  -1.087  -1.396  0.00  0.00    +0.005 A 
ATOM     15  C   UNL     1      -7.009  -0.361  -2.565  0.00  0.00    +0.000 A 
ATOM     16  C   UNL     1      -6.191   0.728  -2.804  0.00  0.00    +0.002 A 
ATOM     17  C   UNL     1      -5.236   1.094  -1.875  0.00  0.00    +0.028 A 
ATOM     18  C   UNL     1      -5.098   0.366  -0.701  0.00  0.00    +0.069 A 
ENDBRANCH   1  18
BRANCH   6  19
ATOM     19  N   UNL     1      -0.206   0.974   2.478  0.00  0.00    +0.386 N 
ATOM     20  H   UNL     1       0.802   0.843   2.337  0.00  0.00    -0.085 HD
ATOM     21  H   UNL     1      -0.659   0.059   2.585  0.00  0.00    -0.085 HD
BRANCH  19  22
ATOM     22  C   UNL     1      -0.427   1.772   3.700  0.00  0.00    -0.046 C 
BRANCH  22  23
ATOM     23  C   UNL     1       0.165   1.042   4.879  0.00  0.00    -0.059 A 
ATOM     24  C   UNL     1       1.480   1.270   5.241  0.00  0.00    +0.051 A 
ATOM     25  C   UNL     1       2.025   0.600   6.325  0.00  0.00    +0.163 A 
ATOM     26  C   UNL     1       1.248  -0.300   7.047  0.00  0.00    +0.177 A 
ATOM     27  C   UNL     1      -0.070  -0.523   6.679  0.00  0.00    +0.086 A 
ATOM     28  C   UNL     1      -0.610   0.153   5.599  0.00  0.00    +0.025 A 
ATOM     29 CL   UNL     1      -1.044  -1.645   7.576  0.00  0.00    -0.080 Cl
BRANCH  26  30
ATOM     30  O   UNL     1       1.779  -0.959   8.111  0.00  0.00    -0.502 OA
ATOM     31  H   UNL     1       1.673  -0.496   8.953  0.00  0.00    +0.292 HD
ENDBRANCH  26  30
BRANCH  25  32
ATOM     32  O   UNL     1       3.319   0.823   6.682  0.00  0.00    -0.491 OA
ATOM     33  C   UNL     1       4.057   1.759   5.895  0.00  0.00    +0.277 C 
ENDBRANCH  25  32
ENDBRANCH  22  23
ENDBRANCH  19  22
ENDBRANCH   6  19
TORSDOF 6
