REMARK  Name = ZINC26492810
REMARK  8 active torsions:
REMARK  status: ('A' for Active; 'I' for Inactive)
REMARK    1  A    between atoms: C_1  and  C_2
REMARK    2  A    between atoms: C_5  and  N_9
REMARK    3  A    between atoms: C_10  and  C_12
REMARK    4  A    between atoms: C_12  and  C_14
REMARK    5  A    between atoms: C_12  and  S_15
REMARK    6  A    between atoms: S_15  and  C_16
REMARK    7  A    between atoms: C_19  and  C_23
REMARK    8  A    between atoms: C_20  and  N_22
REMARK                            x       y       z     vdW  Elec       q    Type
REMARK                         _______ _______ _______ _____ _____    ______ ____
ROOT
ATOM      1  C   UNL     1       1.278   2.115  -0.015  0.00  0.00    +0.137 C 
ATOM      2  C   UNL     1       1.867   2.159   1.397  0.00  0.00    +0.029 C 
ENDROOT
BRANCH   1   4
ATOM      3  N   UNL     1       0.002  -0.004   0.002  0.00  0.00    -0.282 N 
ATOM      4  C   UNL     1      -0.017   1.344   0.005  0.00  0.00    +0.230 C 
ATOM      5  O   UNL     1      -1.075   1.935   0.018  0.00  0.00    -0.274 OA
ATOM      6  H   UNL     1       0.958  -0.541  -0.089  0.00  0.00    +0.155 HD
BRANCH   3  11
ATOM      7  C   UNL     1      -4.852  -2.910   0.458  0.00  0.00    +0.044 C 
ATOM      8  C   UNL     1      -3.563  -2.139   0.338  0.00  0.00    -0.048 A 
ATOM      9  C   UNL     1      -3.538  -0.939  -0.349  0.00  0.00    +0.005 A 
ATOM     10  C   UNL     1      -2.358  -0.230  -0.462  0.00  0.00    +0.026 A 
ATOM     11  C   UNL     1      -1.196  -0.721   0.115  0.00  0.00    +0.069 A 
ATOM     12  C   UNL     1      -1.221  -1.930   0.801  0.00  0.00    +0.145 A 
ATOM     13  C   UNL     1      -2.407  -2.633   0.915  0.00  0.00    +0.043 A 
ATOM     14  F   UNL     1      -0.091  -2.416   1.360  0.00  0.00    -0.204 F 
ENDBRANCH   3  11
ENDBRANCH   1   4
BRANCH   1  15
ATOM     15  S   UNL     1       0.966   3.803  -0.591  0.00  0.00    -0.074 S 
BRANCH  15  16
ATOM     16  C   UNL     1       2.617   4.413  -0.659  0.00  0.00    +0.191 A 
ATOM     17  N   UNL     1       3.615   3.607  -0.318  0.00  0.00    -0.229 NA
ATOM     18  C   UNL     1       4.869   4.020  -0.354  0.00  0.00    +0.136 A 
ATOM     19  C   UNL     1       5.142   5.331  -0.760  0.00  0.00    +0.109 A 
ATOM     20  C   UNL     1       4.054   6.158  -1.116  0.00  0.00    +0.138 A 
ATOM     21  N   UNL     1       2.825   5.660  -1.056  0.00  0.00    -0.206 NA
BRANCH  20  22
ATOM     22  N   UNL     1       4.266   7.459  -1.524  0.00  0.00    -0.342 N 
ATOM     23  H   UNL     1       3.411   8.095  -1.799  0.00  0.00    +0.144 HD
ATOM     24  H   UNL     1       5.288   7.861  -1.574  0.00  0.00    +0.144 HD
ENDBRANCH  20  22
BRANCH  19  25
ATOM     25  C   UNL     1       6.487   5.820  -0.814  0.00  0.00    +0.104 C 
ATOM     26  N   UNL     1       7.553   6.208  -0.857  0.00  0.00    -0.191 NA
ENDBRANCH  19  25
ENDBRANCH  15  16
ENDBRANCH   1  15
TORSDOF 6
