REMARK  Name = ZINC01378172
REMARK  6 active torsions:
REMARK  status: ('A' for Active; 'I' for Inactive)
REMARK    1  A    between atoms: C_1  and  C_2
REMARK    2  A    between atoms: C_12  and  C_14
REMARK    3  A    between atoms: C_14  and  N_15
REMARK    4  A    between atoms: N_15  and  C_16
REMARK    5  A    between atoms: C_16  and  C_17
REMARK    6  A    between atoms: N_25  and  C_26
REMARK                            x       y       z     vdW  Elec       q    Type
REMARK                         _______ _______ _______ _____ _____    ______ ____
ROOT
ATOM      1  N   UNL     1      -4.697   1.388  -0.931  0.00  0.00    -0.278 N 
ATOM      2  C   UNL     1      -5.231   0.707   0.102  0.00  0.00    +0.307 C 
ATOM      3  O   UNL     1      -6.388   0.900   0.424  0.00  0.00    -0.252 OA
ATOM      4  N   UNL     1      -4.483  -0.187   0.778  0.00  0.00    -0.269 N 
ATOM      5  H   UNL     1      -3.586  -0.397   0.475  0.00  0.00    +0.156 HD
ENDROOT
BRANCH   4   6
ATOM      6  C   UNL     1      -5.001  -0.811   1.919  0.00  0.00    +0.035 A 
ATOM      7  C   UNL     1      -5.873  -0.125   2.754  0.00  0.00    +0.025 A 
ATOM      8  C   UNL     1      -6.385  -0.745   3.876  0.00  0.00    +0.022 A 
ATOM      9  C   UNL     1      -6.023  -2.047   4.175  0.00  0.00    +0.041 A 
ATOM     10  C   UNL     1      -5.150  -2.732   3.348  0.00  0.00    +0.022 A 
ATOM     11  C   UNL     1      -4.638  -2.118   2.222  0.00  0.00    +0.025 A 
ATOM     12 CL   UNL     1      -6.663  -2.821   5.590  0.00  0.00    -0.084 Cl
ENDBRANCH   4   6
BRANCH   1  13
ATOM     13  C   UNL     1      -5.510   2.360  -1.667  0.00  0.00    +0.150 C 
BRANCH  13  25
ATOM     14  C   UNL     1      -7.279  -0.395  -7.367  0.00  0.00    +0.046 C 
ATOM     15  C   UNL     1      -8.024  -0.230  -6.067  0.00  0.00    -0.026 A 
ATOM     16  C   UNL     1      -9.312  -0.706  -5.943  0.00  0.00    +0.005 A 
ATOM     17  C   UNL     1     -10.009  -0.562  -4.752  0.00  0.00    +0.001 A 
ATOM     18  C   UNL     1      -9.431   0.056  -3.679  0.00  0.00    +0.010 A 
ATOM     19  C   UNL     1      -8.125   0.546  -3.782  0.00  0.00    -0.001 A 
ATOM     20  C   UNL     1      -7.415   0.402  -4.989  0.00  0.00    +0.052 A 
ATOM     21  N   UNL     1      -6.128   0.887  -5.085  0.00  0.00    -0.322 N 
ATOM     22  H   UNL     1      -5.641   0.787  -5.917  0.00  0.00    +0.169 HD
ATOM     23  C   UNL     1      -5.542   1.503  -4.043  0.00  0.00    +0.254 A 
ATOM     24  O   UNL     1      -4.404   1.924  -4.165  0.00  0.00    -0.268 OA
ATOM     25  C   UNL     1      -6.208   1.669  -2.810  0.00  0.00    +0.035 A 
ATOM     26  C   UNL     1      -7.475   1.213  -2.652  0.00  0.00    +0.020 A 
ENDBRANCH  13  25
ENDBRANCH   1  13
BRANCH   1  27
ATOM     27  C   UNL     1      -3.304   1.156  -1.320  0.00  0.00    +0.141 C 
BRANCH  27  28
ATOM     28  C   UNL     1      -2.394   2.115  -0.550  0.00  0.00    +0.136 C 
ATOM     29  C   UNL     1      -0.941   1.967  -1.042  0.00  0.00    +0.035 C 
ATOM     30  C   UNL     1      -0.148   1.576   0.230  0.00  0.00    +0.031 C 
ATOM     31  C   UNL     1      -1.086   2.067   1.362  0.00  0.00    +0.160 C 
ATOM     32  O   UNL     1      -2.407   1.786   0.849  0.00  0.00    -0.375 OA
ENDBRANCH  27  28
ENDBRANCH   1  27
TORSDOF 5
