REMARK  Name = ZINC65398203
REMARK  8 active torsions:
REMARK  status: ('A' for Active; 'I' for Inactive)
REMARK    1  A    between atoms: C_1  and  C_2
REMARK    2  A    between atoms: C_2  and  C_3
REMARK    3  A    between atoms: C_5  and  C_29
REMARK    4  A    between atoms: C_7  and  C_9
REMARK    5  A    between atoms: C_9  and  N_10
REMARK    6  A    between atoms: C_13  and  C_22
REMARK    7  A    between atoms: C_18  and  C_20
REMARK    8  A    between atoms: C_26  and  C_28
REMARK                            x       y       z     vdW  Elec       q    Type
REMARK                         _______ _______ _______ _____ _____    ______ ____
ROOT
ATOM      1  N   UNL     1      -5.517  -0.580  -1.567  0.00  0.00    -0.284 NA
ATOM      2  C   UNL     1      -6.280  -0.462  -0.302  0.00  0.00    +0.124 C 
ATOM      3  C   UNL     1      -7.662  -0.006  -0.702  0.00  0.00    +0.016 A 
ATOM      4  C   UNL     1      -8.712   0.569   0.012  0.00  0.00    +0.081 A 
ATOM      5  N   UNL     1      -9.838   0.868  -0.635  0.00  0.00    -0.214 NA
ATOM      6  C   UNL     1      -9.956   0.624  -1.931  0.00  0.00    +0.213 A 
ATOM      7  N   UNL     1      -8.972   0.077  -2.632  0.00  0.00    -0.218 NA
ATOM      8  C   UNL     1      -7.827  -0.245  -2.055  0.00  0.00    +0.068 A 
ATOM      9  C   UNL     1      -6.556  -0.866  -2.583  0.00  0.00    +0.104 C 
ATOM     10  C   UNL     1      -6.734  -2.377  -2.746  0.00  0.00    +0.031 C 
ATOM     11  N   UNL     1     -11.140   0.946  -2.571  0.00  0.00    -0.327 N 
ATOM     12  H   UNL     1     -11.868   1.346  -2.071  0.00  0.00    +0.145 HD
ATOM     13  H   UNL     1     -11.241   0.773  -3.521  0.00  0.00    +0.145 HD
ENDROOT
BRANCH   4  14
ATOM     14  C   UNL     1      -8.580   0.842   1.463  0.00  0.00    +0.001 A 
ATOM     15  C   UNL     1      -7.844  -0.021   2.273  0.00  0.00    +0.010 A 
ATOM     16  C   UNL     1      -7.723   0.238   3.623  0.00  0.00    +0.001 A 
ATOM     17  C   UNL     1      -8.332   1.353   4.173  0.00  0.00    +0.003 A 
ATOM     18  C   UNL     1      -9.063   2.213   3.374  0.00  0.00    -0.050 A 
ATOM     19  C   UNL     1      -9.186   1.966   2.022  0.00  0.00    +0.013 A 
ATOM     20  C   UNL     1      -9.723   3.424   3.981  0.00  0.00    +0.044 C 
ENDBRANCH   4  14
BRANCH   1  21
ATOM     21  C   UNL     1      -4.539  -1.673  -1.492  0.00  0.00    +0.140 C 
BRANCH  21  26
ATOM     22  C   UNL     1      -1.412  -0.526   0.013  0.00  0.00    +0.084 A 
ATOM     23  N   UNL     1      -2.117  -0.789   1.079  0.00  0.00    -0.347 N 
ATOM     24  C   UNL     1      -3.327  -1.234   0.709  0.00  0.00    +0.035 A 
ATOM     25  H   UNL     1      -1.889  -0.684  -2.004  0.00  0.00    +0.167 HD
ATOM     26  C   UNL     1      -3.374  -1.247  -0.637  0.00  0.00    +0.051 A 
ATOM     27  N   UNL     1      -2.161  -0.792  -1.079  0.00  0.00    -0.346 N 
ATOM     28  C   UNL     1      -4.440  -1.647   1.637  0.00  0.00    +0.065 C 
ATOM     29  H   UNL     1      -1.814  -0.681   1.994  0.00  0.00    +0.167 HD
BRANCH  22  31
ATOM     30  C   UNL     1      -0.019   1.526   0.010  0.00  0.00    +0.012 C 
ATOM     31  C   UNL     1       0.002  -0.004   0.002  0.00  0.00    +0.069 C 
ENDBRANCH  22  31
ENDBRANCH  21  26
ENDBRANCH   1  21
TORSDOF 4
