REMARK  Name = ZINC36128336
REMARK  8 active torsions:
REMARK  status: ('A' for Active; 'I' for Inactive)
REMARK    1  A    between atoms: C_1  and  C_2
REMARK    2  A    between atoms: C_2  and  N_3
REMARK    3  A    between atoms: N_3  and  C_4
REMARK    4  A    between atoms: N_3  and  S_9
REMARK    5  A    between atoms: C_4  and  C_5
REMARK    6  A    between atoms: N_7  and  C_8
REMARK    7  A    between atoms: S_9  and  C_12
REMARK    8  A    between atoms: C_17  and  N_18
REMARK                            x       y       z     vdW  Elec       q    Type
REMARK                         _______ _______ _______ _____ _____    ______ ____
ROOT
ATOM      1  S   UNL     1      -0.391  -0.759  -2.528  0.00  0.00    +0.063 S 
ATOM      2  O   UNL     1      -1.500   0.122  -2.419  0.00  0.00    -0.153 OA
ATOM      3  O   UNL     1       0.472  -0.761  -3.657  0.00  0.00    -0.153 OA
ENDROOT
BRANCH   1   4
ATOM      4  C   UNL     1      -1.029  -2.395  -2.380  0.00  0.00    +0.126 A 
ATOM      5  C   UNL     1      -2.367  -2.591  -2.096  0.00  0.00    +0.032 A 
ATOM      6  C   UNL     1      -2.870  -3.874  -1.980  0.00  0.00    +0.022 A 
ATOM      7  C   UNL     1      -2.035  -4.965  -2.147  0.00  0.00    +0.043 A 
ATOM      8  C   UNL     1      -0.696  -4.775  -2.430  0.00  0.00    +0.044 A 
ATOM      9  C   UNL     1      -0.190  -3.487  -2.554  0.00  0.00    +0.053 A 
ATOM     10 CL   UNL     1      -2.671  -6.574  -1.999  0.00  0.00    -0.083 Cl
BRANCH   9  11
ATOM     11  N   UNL     1       1.162  -3.292  -2.847  0.00  0.00    -0.356 N 
ATOM     12  H   UNL     1       1.528  -2.394  -2.868  0.00  0.00    +0.142 HD
ATOM     13  H   UNL     1       1.734  -4.054  -3.028  0.00  0.00    +0.142 HD
ENDBRANCH   9  11
ENDBRANCH   1   4
BRANCH   1  14
ATOM     14  N   UNL     1       0.564  -0.485  -1.203  0.00  0.00    -0.168 NA
BRANCH  14  16
ATOM     15  C   UNL     1       0.079   1.529   0.097  0.00  0.00    +0.022 C 
ATOM     16  C   UNL     1      -0.034   0.004   0.042  0.00  0.00    +0.106 C 
ENDBRANCH  14  16
BRANCH  14  17
ATOM     17  C   UNL     1       2.007  -0.731  -1.276  0.00  0.00    +0.205 C 
BRANCH  17  18
ATOM     18  C   UNL     1       2.307  -2.114  -0.758  0.00  0.00    +0.229 C 
ATOM     19  O   UNL     1       1.406  -2.824  -0.367  0.00  0.00    -0.274 OA
ATOM     20  N   UNL     1       3.578  -2.561  -0.730  0.00  0.00    -0.317 N 
ATOM     21  C   UNL     1       3.871  -3.905  -0.227  0.00  0.00    +0.128 C 
ATOM     22  H   UNL     1       4.300  -1.993  -1.043  0.00  0.00    +0.148 HD
ENDBRANCH  17  18
ENDBRANCH  14  17
ENDBRANCH   1  14
TORSDOF 6
