REMARK  Name = ZINC10233673
REMARK  7 active torsions:
REMARK  status: ('A' for Active; 'I' for Inactive)
REMARK    1  A    between atoms: C_1  and  C_2
REMARK    2  A    between atoms: C_3  and  C_31
REMARK    3  A    between atoms: N_9  and  C_10
REMARK    4  A    between atoms: C_15  and  N_16
REMARK    5  A    between atoms: N_17  and  C_30
REMARK    6  A    between atoms: N_20  and  C_23
REMARK    7  A    between atoms: C_23  and  C_24
REMARK                            x       y       z     vdW  Elec       q    Type
REMARK                         _______ _______ _______ _____ _____    ______ ____
ROOT
ATOM      1  C   UNL     1       5.940   0.247  -0.049  0.00  0.00    +0.066 C 
ATOM      2  C   UNL     1       4.662   1.045  -0.034  0.00  0.00    +0.043 A 
ATOM      3  C   UNL     1       3.431   0.543  -0.026  0.00  0.00    +0.044 A 
ATOM      4  N   UNL     1       2.531   1.595  -0.012  0.00  0.00    -0.274 N 
ATOM      5  C   UNL     1       1.188   1.940   0.001  0.00  0.00    +0.157 A 
ATOM      6  C   UNL     1       1.141   3.334   0.009  0.00  0.00    +0.170 A 
ATOM      7  N   UNL     1       2.395   3.778  -0.000  0.00  0.00    -0.193 NA
ATOM      8  C   UNL     1       3.238   2.756  -0.013  0.00  0.00    +0.223 A 
ATOM      9  N   UNL     1       4.569   2.425  -0.026  0.00  0.00    -0.281 N 
ATOM     10  N   UNL     1      -0.096   3.960   0.022  0.00  0.00    -0.279 N 
ATOM     11  C   UNL     1      -1.223   3.223   0.028  0.00  0.00    +0.334 A 
ATOM     12  O   UNL     1      -2.300   3.788   0.040  0.00  0.00    -0.246 OA
ATOM     13  N   UNL     1      -1.188   1.880   0.018  0.00  0.00    -0.255 N 
ATOM     14  C   UNL     1      -0.015   1.215   0.009  0.00  0.00    +0.283 A 
ATOM     15  O   UNL     1       0.002  -0.004   0.002  0.00  0.00    -0.265 OA
ATOM     16  C   UNL     1      -0.177   5.423   0.030  0.00  0.00    +0.155 C 
ATOM     17  C   UNL     1       3.075  -0.921  -0.030  0.00  0.00    +0.066 C 
ENDROOT
BRANCH   9  18
ATOM     18  C   UNL     1       5.644   3.325  -0.031  0.00  0.00    +0.070 A 
ATOM     19  C   UNL     1       6.188   3.766   1.166  0.00  0.00    +0.028 A 
ATOM     20  C   UNL     1       7.248   4.653   1.158  0.00  0.00    +0.002 A 
ATOM     21  C   UNL     1       7.769   5.104  -0.041  0.00  0.00    +0.002 A 
ATOM     22  C   UNL     1       7.233   4.671  -1.239  0.00  0.00    +0.025 A 
ATOM     23  C   UNL     1       6.172   3.776  -1.241  0.00  0.00    +0.049 A 
BRANCH  23  24
ATOM     24  N   UNL     1       5.632   3.332  -2.452  0.00  0.00    -0.356 N 
ATOM     25  H   UNL     1       4.888   2.709  -2.451  0.00  0.00    +0.142 HD
ATOM     26  H   UNL     1       6.001   3.646  -3.292  0.00  0.00    +0.142 HD
ENDBRANCH  23  24
ENDBRANCH   9  18
BRANCH  13  27
ATOM     27  C   UNL     1      -2.444   1.126   0.020  0.00  0.00    +0.165 C 
BRANCH  27  28
ATOM     28  C   UNL     1      -2.868   0.859   1.441  0.00  0.00    -0.028 A 
ATOM     29  C   UNL     1      -2.451  -0.292   2.083  0.00  0.00    +0.005 A 
ATOM     30  C   UNL     1      -2.836  -0.534   3.388  0.00  0.00    +0.000 A 
ATOM     31  C   UNL     1      -3.646   0.370   4.048  0.00  0.00    +0.000 A 
ATOM     32  C   UNL     1      -4.068   1.519   3.405  0.00  0.00    +0.000 A 
ATOM     33  C   UNL     1      -3.679   1.764   2.101  0.00  0.00    +0.005 A 
ENDBRANCH  27  28
ENDBRANCH  13  27
TORSDOF 4
