REMARK  Name = ZINC08836202
REMARK  7 active torsions:
REMARK  status: ('A' for Active; 'I' for Inactive)
REMARK    1  A    between atoms: C_4  and  C_7
REMARK    2  A    between atoms: C_7  and  C_8
REMARK    3  A    between atoms: C_8  and  N_9
REMARK    4  A    between atoms: C_10  and  C_12
REMARK    5  A    between atoms: N_23  and  N_26
REMARK    6  A    between atoms: C_24  and  N_25
REMARK    7  A    between atoms: C_27  and  C_28
REMARK                            x       y       z     vdW  Elec       q    Type
REMARK                         _______ _______ _______ _____ _____    ______ ____
ROOT
ATOM      1  C   UNL     1       1.555  -2.056  -0.024  0.00  0.00    +0.105 A 
ATOM      2  C   UNL     1       1.157  -0.638  -0.012  0.00  0.00    +0.124 A 
ATOM      3  C   UNL     1       2.413   0.118  -0.020  0.00  0.00    +0.183 A 
ATOM      4  N   UNL     1       2.376   1.433  -0.012  0.00  0.00    -0.224 NA
ATOM      5  C   UNL     1       1.197   2.067   0.002  0.00  0.00    +0.092 A 
ATOM      6  C   UNL     1       1.149   3.474   0.010  0.00  0.00    +0.030 A 
ATOM      7  C   UNL     1      -0.053   4.110   0.025  0.00  0.00    +0.002 A 
ATOM      8  C   UNL     1      -1.246   3.389   0.032  0.00  0.00    +0.002 A 
ATOM      9  C   UNL     1      -1.240   2.029   0.031  0.00  0.00    +0.030 A 
ATOM     10  C   UNL     1      -0.016   1.335   0.009  0.00  0.00    +0.090 A 
ATOM     11  N   UNL     1       0.002  -0.004   0.002  0.00  0.00    -0.241 NA
ATOM     12  N   UNL     1       3.441  -0.806  -0.035  0.00  0.00    -0.198 N 
ATOM     13  C   UNL     1       2.945  -2.078  -0.038  0.00  0.00    +0.134 A 
ENDROOT
BRANCH   1  15
ATOM     14  N   UNL     1       0.263  -3.754   1.146  0.00  0.00    -0.311 N 
ATOM     15  C   UNL     1       0.663  -3.214  -0.022  0.00  0.00    +0.250 C 
ATOM     16  O   UNL     1       0.281  -3.690  -1.076  0.00  0.00    -0.270 OA
ATOM     17  H   UNL     1       0.567  -3.375   1.985  0.00  0.00    +0.149 HD
BRANCH  14  18
ATOM     18  C   UNL     1      -0.631  -4.915   1.148  0.00  0.00    +0.109 C 
BRANCH  18  19
ATOM     19  C   UNL     1      -0.929  -5.327   2.591  0.00  0.00    +0.054 C 
BRANCH  19  23
ATOM     20  C   UNL     1      -3.536  -8.711   2.597  0.00  0.00    +0.000 A 
ATOM     21  C   UNL     1      -2.166  -8.894   2.583  0.00  0.00    +0.000 A 
ATOM     22  C   UNL     1      -1.322  -7.799   2.581  0.00  0.00    +0.004 A 
ATOM     23  C   UNL     1      -1.848  -6.521   2.593  0.00  0.00    -0.046 A 
ATOM     24  C   UNL     1      -3.218  -6.338   2.613  0.00  0.00    +0.004 A 
ATOM     25  C   UNL     1      -4.062  -7.433   2.610  0.00  0.00    +0.000 A 
ENDBRANCH  19  23
ENDBRANCH  18  19
ENDBRANCH  14  18
ENDBRANCH   1  15
BRANCH  13  26
ATOM     26  N   UNL     1       3.709  -3.215  -0.052  0.00  0.00    -0.342 N 
ATOM     27  H   UNL     1       4.677  -3.149  -0.060  0.00  0.00    +0.144 HD
ATOM     28  H   UNL     1       3.283  -4.087  -0.053  0.00  0.00    +0.144 HD
ENDBRANCH  13  26
BRANCH  12  29
ATOM     29  N   UNL     1       4.803  -0.482  -0.046  0.00  0.00    -0.170 NA
ATOM     30  C   UNL     1       5.445  -0.339   1.073  0.00  0.00    +0.161 C 
BRANCH  30  31
ATOM     31  C   UNL     1       6.880   0.002   1.061  0.00  0.00    +0.084 A 
ATOM     32  C   UNL     1       7.566   0.155   2.268  0.00  0.00    +0.029 A 
ATOM     33  C   UNL     1       8.911   0.474   2.240  0.00  0.00    +0.004 A 
ATOM     34  C   UNL     1       9.530   0.631   1.007  0.00  0.00    +0.020 A 
ATOM     35  C   UNL     1       8.791   0.465  -0.150  0.00  0.00    +0.111 A 
ATOM     36  N   UNL     1       7.512   0.156  -0.098  0.00  0.00    -0.254 NA
ENDBRANCH  30  31
ENDBRANCH  12  29
TORSDOF 7
