REMARK  Name = ZINC41023820
REMARK  7 active torsions:
REMARK  status: ('A' for Active; 'I' for Inactive)
REMARK    1  A    between atoms: C_1  and  C_2
REMARK    2  A    between atoms: C_2  and  C_4
REMARK    3  A    between atoms: C_2  and  N_19
REMARK    4  A    between atoms: C_7  and  S_10
REMARK    5  A    between atoms: S_10  and  C_11
REMARK    6  A    between atoms: C_15  and  N_17
REMARK    7  A    between atoms: N_19  and  C_20
REMARK                            x       y       z     vdW  Elec       q    Type
REMARK                         _______ _______ _______ _____ _____    ______ ____
ROOT
ATOM      1  S   UNL     1       2.828  -1.950  -4.964  0.00  0.00    -0.050 S 
ENDROOT
BRANCH   1   2
ATOM      2  C   UNL     1       3.421  -0.474  -5.723  0.00  0.00    +0.196 A 
ATOM      3  N   UNL     1       3.269   0.681  -5.093  0.00  0.00    -0.207 NA
ATOM      4  C   UNL     1       3.705   1.816  -5.636  0.00  0.00    +0.122 A 
ATOM      5  C   UNL     1       4.326   1.776  -6.881  0.00  0.00    +0.086 A 
ATOM      6  C   UNL     1       4.467   0.544  -7.512  0.00  0.00    +0.122 A 
ATOM      7  N   UNL     1       4.011  -0.550  -6.907  0.00  0.00    -0.207 NA
ATOM      8  N   UNL     1       3.543   3.021  -4.970  0.00  0.00    -0.343 N 
ATOM      9  H   UNL     1       3.109   3.041  -4.103  0.00  0.00    +0.144 HD
ATOM     10  H   UNL     1       3.863   3.844  -5.371  0.00  0.00    +0.144 HD
BRANCH   6  11
ATOM     11  N   UNL     1       5.079   0.457  -8.753  0.00  0.00    -0.343 N 
ATOM     12  H   UNL     1       5.412   1.258  -9.187  0.00  0.00    +0.144 HD
ATOM     13  H   UNL     1       5.174  -0.406  -9.188  0.00  0.00    +0.144 HD
ENDBRANCH   6  11
ENDBRANCH   1   2
BRANCH   1  17
ATOM     14  C   UNL     1       0.700  -0.489  -1.242  0.00  0.00    -0.062 A 
ATOM     15  C   UNL     1       0.030  -0.523  -2.451  0.00  0.00    +0.003 A 
ATOM     16  C   UNL     1       0.676  -0.968  -3.588  0.00  0.00    +0.015 A 
ATOM     17  C   UNL     1       2.000  -1.381  -3.516  0.00  0.00    +0.016 A 
ATOM     18  C   UNL     1       2.670  -1.346  -2.300  0.00  0.00    +0.015 A 
ATOM     19  C   UNL     1       2.020  -0.895  -1.168  0.00  0.00    +0.003 A 
BRANCH  14  21
ATOM     20  C   UNL     1      -0.031   1.527   0.003  0.00  0.00    -0.009 C 
ATOM     21  C   UNL     1      -0.007  -0.003  -0.004  0.00  0.00    -0.044 C 
BRANCH  21  22
ATOM     22  N   UNL     1      -1.385  -0.514   0.006  0.00  0.00    +0.382 N 
ATOM     23  C   UNL     1      -2.037  -0.141   1.268  0.00  0.00    -0.100 C 
ATOM     24  H   UNL     1      -1.896  -0.117  -0.768  0.00  0.00    -0.085 HD
ATOM     25  H   UNL     1      -1.371  -1.520  -0.081  0.00  0.00    -0.085 HD
ENDBRANCH  21  22
ENDBRANCH  14  21
ENDBRANCH   1  17
TORSDOF 5
