REMARK  Name = ZINC39709622
REMARK  6 active torsions:
REMARK  status: ('A' for Active; 'I' for Inactive)
REMARK    1  A    between atoms: C_1  and  C_2
REMARK    2  A    between atoms: C_7  and  C_12
REMARK    3  A    between atoms: C_12  and  C_33
REMARK    4  A    between atoms: C_13  and  C_14
REMARK    5  A    between atoms: N_17  and  C_24
REMARK    6  A    between atoms: C_24  and  C_25
REMARK                            x       y       z     vdW  Elec       q    Type
REMARK                         _______ _______ _______ _____ _____    ______ ____
ROOT
ATOM      1  C   UNL     1      -0.137  -6.779   2.973  0.00  0.00    +0.062 C 
ATOM      2  C   UNL     1      -0.197  -8.255   2.546  0.00  0.00    +0.118 C 
ATOM      3  N   UNL     1      -0.451  -9.002   3.780  0.00  0.00    -0.320 N 
ATOM      4  C   UNL     1      -0.542  -8.125   4.862  0.00  0.00    +0.034 A 
ATOM      5  C   UNL     1      -0.370  -6.804   4.467  0.00  0.00    -0.018 A 
ATOM      6  C   UNL     1      -0.426  -5.780   5.392  0.00  0.00    +0.006 A 
ATOM      7  C   UNL     1      -0.657  -6.062   6.726  0.00  0.00    +0.000 A 
ATOM      8  C   UNL     1      -0.831  -7.372   7.133  0.00  0.00    +0.002 A 
ATOM      9  C   UNL     1      -0.773  -8.404   6.210  0.00  0.00    +0.023 A 
ENDROOT
BRANCH   1  11
ATOM     10  C   UNL     1       1.311  -5.032   2.027  0.00  0.00    +0.068 C 
ATOM     11  C   UNL     1       1.218  -6.197   2.662  0.00  0.00    +0.001 C 
BRANCH  10  18
ATOM     12  C   UNL     1       0.132   1.335  -0.604  0.00  0.00    +0.044 C 
ATOM     13  C   UNL     1       0.034  -0.153  -0.387  0.00  0.00    -0.048 A 
ATOM     14  C   UNL     1      -0.263  -0.978  -1.487  0.00  0.00    +0.005 A 
ATOM     15  C   UNL     1      -0.370  -2.317  -1.382  0.00  0.00    +0.027 A 
ATOM     16  C   UNL     1      -0.172  -2.961  -0.076  0.00  0.00    +0.060 A 
ATOM     17  N   UNL     1      -0.213  -4.202   0.314  0.00  0.00    -0.359 N 
ATOM     18  C   UNL     1       0.071  -4.221   1.754  0.00  0.00    +0.216 C 
ATOM     19  N   UNL     1       0.283  -2.823   2.153  0.00  0.00    -0.359 N 
ATOM     20  C   UNL     1       0.142  -2.088   1.088  0.00  0.00    +0.061 A 
ATOM     21  C   UNL     1       0.239  -0.641   0.853  0.00  0.00    +0.030 A 
ATOM     22  H   UNL     1      -0.398  -4.973  -0.244  0.00  0.00    +0.162 HD
ATOM     23  H   UNL     1       0.490  -2.506   3.046  0.00  0.00    +0.162 HD
ENDBRANCH  10  18
BRANCH  10  24
ATOM     24  C   UNL     1       2.591  -4.548   1.602  0.00  0.00    +0.098 C 
ATOM     25  N   UNL     1       3.605  -4.164   1.265  0.00  0.00    -0.191 NA
ENDBRANCH  10  24
ENDBRANCH   1  11
BRANCH   3  26
ATOM     26  C   UNL     1      -0.589 -10.458   3.867  0.00  0.00    +0.201 C 
BRANCH  26  27
ATOM     27  C   UNL     1       0.763 -11.077   4.111  0.00  0.00    +0.233 C 
ATOM     28  O   UNL     1       1.745 -10.372   4.204  0.00  0.00    -0.274 OA
ATOM     29  N   UNL     1       0.881 -12.415   4.227  0.00  0.00    -0.296 N 
ATOM     30  C   UNL     1      -0.295 -13.292   4.111  0.00  0.00    +0.136 C 
ATOM     31  C   UNL     1       0.025 -14.400   3.102  0.00  0.00    +0.179 C 
ATOM     32  O   UNL     1       1.254 -15.031   3.469  0.00  0.00    -0.377 OA
ATOM     33  C   UNL     1       2.389 -14.162   3.444  0.00  0.00    +0.179 C 
ATOM     34  C   UNL     1       2.190 -13.042   4.466  0.00  0.00    +0.136 C 
ENDBRANCH  26  27
ENDBRANCH   3  26
TORSDOF 5
