REMARK  Name = ZINC09315305
REMARK  8 active torsions:
REMARK  status: ('A' for Active; 'I' for Inactive)
REMARK    1  A    between atoms: C_1  and  C_2
REMARK    2  A    between atoms: C_5  and  C_25
REMARK    3  A    between atoms: C_7  and  N_8
REMARK    4  A    between atoms: C_9  and  C_11
REMARK    5  A    between atoms: C_11  and  N_12
REMARK    6  A    between atoms: C_20  and  C_24
REMARK    7  A    between atoms: C_25  and  O_27
REMARK    8  A    between atoms: O_27  and  C_28
REMARK                            x       y       z     vdW  Elec       q    Type
REMARK                         _______ _______ _______ _____ _____    ______ ____
ROOT
ATOM      1  N   UNL     1       2.154   6.982  -2.343  0.00  0.00    -0.284 N 
ATOM      2  C   UNL     1       1.142   6.280  -1.796  0.00  0.00    +0.235 C 
ATOM      3  O   UNL     1       0.241   5.867  -2.497  0.00  0.00    -0.274 OA
ATOM      4  H   UNL     1       2.831   7.380  -1.774  0.00  0.00    +0.155 HD
ENDROOT
BRANCH   1  11
ATOM      5  C   UNL     1       3.542   9.241  -3.365  0.00  0.00    +0.045 C 
ATOM      6  C   UNL     1       2.896   8.228  -4.275  0.00  0.00    -0.029 A 
ATOM      7  C   UNL     1       2.977   8.383  -5.646  0.00  0.00    +0.006 A 
ATOM      8  C   UNL     1       2.383   7.462  -6.485  0.00  0.00    +0.015 A 
ATOM      9  C   UNL     1       1.703   6.366  -5.950  0.00  0.00    +0.061 A 
ATOM     10  C   UNL     1       1.627   6.207  -4.566  0.00  0.00    +0.038 A 
ATOM     11  C   UNL     1       2.227   7.138  -3.732  0.00  0.00    +0.037 A 
BRANCH   9  12
ATOM     12  C   UNL     1       1.067   5.379  -6.846  0.00  0.00    +0.339 C 
ATOM     13  O   UNL     1       0.477   4.426  -6.378  0.00  0.00    -0.245 OA
BRANCH  12  14
ATOM     14  O   UNL     1       1.142   5.535  -8.182  0.00  0.00    -0.464 OA
ATOM     15  C   UNL     1       0.494   4.526  -9.001  0.00  0.00    +0.280 C 
ENDBRANCH  12  14
ENDBRANCH   9  12
ENDBRANCH   1  11
BRANCH   2  16
ATOM     16  C   UNL     1       1.129   6.006  -0.314  0.00  0.00    +0.209 C 
BRANCH  16  17
ATOM     17  N   UNL     1      -0.066   5.231   0.029  0.00  0.00    -0.256 N 
ATOM     18  C   UNL     1      -0.034   3.830   0.012  0.00  0.00    +0.079 A 
ATOM     19  C   UNL     1       1.172   3.149  -0.013  0.00  0.00    +0.027 A 
ATOM     20  C   UNL     1       1.181   1.766  -0.030  0.00  0.00    +0.002 A 
ATOM     21  C   UNL     1      -0.009   1.063  -0.022  0.00  0.00    +0.004 A 
ATOM     22  C   UNL     1      -1.217   1.737  -0.003  0.00  0.00    +0.047 A 
ATOM     23  C   UNL     1      -1.234   3.120   0.020  0.00  0.00    +0.143 A 
ATOM     24  O   UNL     1      -2.412   3.799   0.045  0.00  0.00    -0.478 OA
ATOM     25  C   UNL     1      -2.423   5.041   0.753  0.00  0.00    +0.256 C 
ATOM     26  C   UNL     1      -1.215   5.856   0.366  0.00  0.00    +0.261 C 
ATOM     27  O   UNL     1      -1.275   7.067   0.358  0.00  0.00    -0.271 OA
ATOM     28  C   UNL     1      -2.394   4.770   2.259  0.00  0.00    +0.062 C 
ENDBRANCH  16  17
ENDBRANCH   2  16
TORSDOF 5
