REMARK  Name = ZINC03140860
REMARK  7 active torsions:
REMARK  status: ('A' for Active; 'I' for Inactive)
REMARK    1  A    between atoms: C_1  and  C_2
REMARK    2  A    between atoms: C_3  and  C_19
REMARK    3  A    between atoms: C_4  and  N_13
REMARK    4  A    between atoms: N_5  and  C_7
REMARK    5  A    between atoms: N_20  and  N_21
REMARK    6  A    between atoms: N_21  and  C_22
REMARK    7  A    between atoms: C_22  and  N_24
REMARK                            x       y       z     vdW  Elec       q    Type
REMARK                         _______ _______ _______ _____ _____    ______ ____
ROOT
ATOM      1  C   UNL     1       0.793  -3.381  -1.332  0.00  0.00    +0.068 C 
ATOM      2  C   UNL     1       0.352  -2.155  -0.575  0.00  0.00    +0.071 A 
ATOM      3  C   UNL     1       0.563  -0.817  -0.975  0.00  0.00    +0.057 A 
ATOM      4  C   UNL     1       0.002  -0.004   0.002  0.00  0.00    +0.134 A 
ATOM      5  N   UNL     1      -0.520  -0.825   0.952  0.00  0.00    -0.218 N 
ATOM      6  N   UNL     1      -0.290  -2.149   0.561  0.00  0.00    -0.169 NA
ENDROOT
BRANCH   5   7
ATOM      7  C   UNL     1      -1.177  -0.415   2.120  0.00  0.00    +0.067 A 
ATOM      8  C   UNL     1      -0.765   0.733   2.784  0.00  0.00    +0.028 A 
ATOM      9  C   UNL     1      -1.419   1.137   3.931  0.00  0.00    +0.002 A 
ATOM     10  C   UNL     1      -2.474   0.393   4.426  0.00  0.00    +0.000 A 
ATOM     11  C   UNL     1      -2.883  -0.754   3.771  0.00  0.00    +0.002 A 
ATOM     12  C   UNL     1      -2.237  -1.160   2.619  0.00  0.00    +0.028 A 
ENDBRANCH   5   7
BRANCH   4  13
ATOM     13  N   UNL     1      -0.017   1.382   0.010  0.00  0.00    -0.315 N 
ATOM     14  C   UNL     1      -0.805   1.904  -1.114  0.00  0.00    +0.106 C 
ATOM     15  C   UNL     1      -0.926   3.424  -0.992  0.00  0.00    +0.019 C 
ATOM     16  C   UNL     1       0.475   4.044  -0.995  0.00  0.00    +0.003 C 
ATOM     17  C   UNL     1       1.291   3.448   0.155  0.00  0.00    +0.019 C 
ATOM     18  C   UNL     1       1.347   1.927  -0.001  0.00  0.00    +0.106 C 
ENDBRANCH   4  13
BRANCH   3  19
ATOM     19  C   UNL     1       1.249  -0.368  -2.198  0.00  0.00    +0.143 C 
ATOM     20  N   UNL     1       1.729  -1.241  -3.031  0.00  0.00    -0.188 NA
BRANCH  20  21
ATOM     21  N   UNL     1       2.382  -0.814  -4.194  0.00  0.00    -0.219 N 
ATOM     22  H   UNL     1       2.476   0.134  -4.378  0.00  0.00    +0.176 HD
BRANCH  21  23
ATOM     23  C   UNL     1       2.881  -1.720  -5.059  0.00  0.00    +0.147 C 
ATOM     24  S   UNL     1       3.679  -1.197  -6.481  0.00  0.00    -0.017 S 
BRANCH  23  25
ATOM     25  N   UNL     1       2.751  -3.037  -4.804  0.00  0.00    -0.339 N 
ATOM     26  H   UNL     1       2.299  -3.332  -3.998  0.00  0.00    +0.144 HD
ATOM     27  H   UNL     1       3.109  -3.689  -5.426  0.00  0.00    +0.144 HD
ENDBRANCH  23  25
ENDBRANCH  21  23
ENDBRANCH  20  21
ENDBRANCH   3  19
TORSDOF 6
