REMARK  Name = ZINC56950495
REMARK  8 active torsions:
REMARK  status: ('A' for Active; 'I' for Inactive)
REMARK    1  A    between atoms: C_1  and  N_2
REMARK    2  A    between atoms: N_2  and  C_3
REMARK    3  A    between atoms: N_2  and  C_4
REMARK    4  A    between atoms: C_4  and  C_6
REMARK    5  A    between atoms: C_4  and  C_24
REMARK    6  A    between atoms: C_6  and  N_7
REMARK    7  A    between atoms: N_10  and  N_11
REMARK    8  A    between atoms: C_12  and  C_14
REMARK                            x       y       z     vdW  Elec       q    Type
REMARK                         _______ _______ _______ _____ _____    ______ ____
ROOT
ATOM      1  N   UNL     1       0.204  -2.151   0.755  0.00  0.00    -0.299 N 
ATOM      2  C   UNL     1       0.640  -3.421   0.866  0.00  0.00    +0.316 C 
ATOM      3  O   UNL     1       0.252  -4.268   0.085  0.00  0.00    -0.251 OA
ATOM      4  N   UNL     1       1.506  -3.753   1.844  0.00  0.00    -0.218 N 
ATOM      5  H   UNL     1       0.513  -1.475   1.378  0.00  0.00    +0.150 HD
ATOM      6  H   UNL     1       1.820  -4.667   1.925  0.00  0.00    +0.174 HD
ENDROOT
BRANCH   4   7
ATOM      7  N   UNL     1       1.953  -2.777   2.745  0.00  0.00    -0.228 N 
ATOM      8  C   UNL     1       2.820  -3.109   3.722  0.00  0.00    +0.279 C 
ATOM      9  O   UNL     1       3.213  -4.254   3.823  0.00  0.00    -0.267 OA
ATOM     10  H   UNL     1       1.639  -1.863   2.664  0.00  0.00    +0.173 HD
BRANCH   8  11
ATOM     11  C   UNL     1       3.293  -2.076   4.675  0.00  0.00    +0.127 A 
ATOM     12  C   UNL     1       4.199  -2.438   5.684  0.00  0.00    +0.034 A 
ATOM     13  C   UNL     1       4.642  -1.496   6.567  0.00  0.00    +0.012 A 
ATOM     14  C   UNL     1       4.166  -0.178   6.431  0.00  0.00    +0.000 A 
ATOM     15  C   UNL     1       4.581   0.840   7.304  0.00  0.00    +0.010 A 
ATOM     16  C   UNL     1       4.100   2.103   7.142  0.00  0.00    +0.001 A 
ATOM     17  C   UNL     1       3.200   2.401   6.120  0.00  0.00    +0.002 A 
ATOM     18  C   UNL     1       2.776   1.441   5.255  0.00  0.00    +0.028 A 
ATOM     19  C   UNL     1       3.251   0.122   5.389  0.00  0.00    +0.072 A 
ATOM     20  N   UNL     1       2.856  -0.838   4.552  0.00  0.00    -0.242 NA
ENDBRANCH   8  11
ENDBRANCH   4   7
BRANCH   1  21
ATOM     21  C   UNL     1      -0.738  -1.790  -0.308  0.00  0.00    +0.095 C 
BRANCH  21  22
ATOM     22  C   UNL     1      -1.169  -0.333  -0.135  0.00  0.00    -0.021 C 
BRANCH  22  23
ATOM     23  C   UNL     1      -1.946  -0.187   1.148  0.00  0.00    -0.059 A 
ATOM     24  C   UNL     1      -3.277  -0.556   1.194  0.00  0.00    +0.005 A 
ATOM     25  C   UNL     1      -3.991  -0.424   2.370  0.00  0.00    +0.038 A 
ATOM     26  C   UNL     1      -3.373   0.078   3.502  0.00  0.00    +0.123 A 
ATOM     27  C   UNL     1      -2.039   0.447   3.455  0.00  0.00    +0.038 A 
ATOM     28  C   UNL     1      -1.326   0.309   2.279  0.00  0.00    +0.005 A 
ATOM     29  F   UNL     1      -4.069   0.208   4.652  0.00  0.00    -0.205 F 
ENDBRANCH  22  23
BRANCH  22  31
ATOM     30  C   UNL     1      -2.469   1.450  -1.077  0.00  0.00    -0.096 C 
ATOM     31  N   UNL     1      -2.014   0.066  -1.268  0.00  0.00    +0.382 N 
ATOM     32  C   UNL     1      -1.241  -0.028  -2.513  0.00  0.00    -0.096 C 
ATOM     33  H   UNL     1      -2.814  -0.546  -1.322  0.00  0.00    -0.082 HD
ENDBRANCH  22  31
ENDBRANCH  21  22
ENDBRANCH   1  21
TORSDOF 6
