REMARK  Name = ZINC45336038
REMARK  10 active torsions:
REMARK  status: ('A' for Active; 'I' for Inactive)
REMARK    1  A    between atoms: C_1  and  C_2
REMARK    2  A    between atoms: C_11  and  N_32
REMARK    3  A    between atoms: C_13  and  S_15
REMARK    4  A    between atoms: S_15  and  C_16
REMARK    5  A    between atoms: C_16  and  C_18
REMARK    6  A    between atoms: C_16  and  C_19
REMARK    7  A    between atoms: C_19  and  C_21
REMARK    8  A    between atoms: C_24  and  N_27
REMARK    9  A    between atoms: N_27  and  S_28
REMARK   10  A    between atoms: S_28  and  C_31
REMARK                            x       y       z     vdW  Elec       q    Type
REMARK                         _______ _______ _______ _____ _____    ______ ____
ROOT
ATOM      1  C   UNL     1       0.370   1.043   0.940  0.00  0.00    +0.008 C 
ATOM      2  C   UNL     1       0.599  -0.461   0.783  0.00  0.00    -0.009 C 
ATOM      3  C   UNL     1       1.548  -0.717  -0.392  0.00  0.00    +0.008 C 
ATOM      4  C   UNL     1       1.587  -2.212  -0.711  0.00  0.00    +0.037 C 
ATOM      5  C   UNL     1       1.906  -2.982   0.568  0.00  0.00    -0.025 A 
ATOM      6  C   UNL     1       1.733  -2.406   1.778  0.00  0.00    -0.004 A 
ATOM      7  S   UNL     1       2.216  -3.642   2.958  0.00  0.00    -0.073 S 
ATOM      8  C   UNL     1       2.650  -4.928   1.831  0.00  0.00    +0.115 A 
ATOM      9  C   UNL     1       2.402  -4.349   0.560  0.00  0.00    +0.051 A 
ATOM     10  C   UNL     1       2.664  -5.162  -0.581  0.00  0.00    +0.129 A 
ATOM     11  N   UNL     1       3.117  -6.388  -0.332  0.00  0.00    -0.207 NA
ATOM     12  C   UNL     1       3.326  -6.865   0.886  0.00  0.00    +0.192 A 
ATOM     13  N   UNL     1       3.100  -6.155   1.994  0.00  0.00    -0.214 NA
ATOM     14  C   UNL     1       1.234  -1.022   2.063  0.00  0.00    +0.046 C 
ENDROOT
BRANCH  10  15
ATOM     15  N   UNL     1       2.459  -4.703  -1.869  0.00  0.00    -0.343 N 
ATOM     16  H   UNL     1       2.864  -5.167  -2.619  0.00  0.00    +0.144 HD
ATOM     17  H   UNL     1       1.911  -3.918  -2.023  0.00  0.00    +0.144 HD
ENDBRANCH  10  15
BRANCH  12  18
ATOM     18  S   UNL     1       3.930  -8.512   1.051  0.00  0.00    -0.075 S 
BRANCH  18  19
ATOM     19  C   UNL     1       4.091  -9.094  -0.659  0.00  0.00    +0.122 C 
ATOM     20  C   UNL     1       5.163  -8.273  -1.379  0.00  0.00    +0.028 C 
BRANCH  19  21
ATOM     21  C   UNL     1       4.487 -10.548  -0.660  0.00  0.00    +0.176 C 
ATOM     22  O   UNL     1       5.074 -11.017   0.292  0.00  0.00    -0.291 OA
BRANCH  21  23
ATOM     23  C   UNL     1       4.163 -11.396  -1.813  0.00  0.00    +0.019 A 
ATOM     24  C   UNL     1       3.491 -10.855  -2.917  0.00  0.00    +0.013 A 
ATOM     25  C   UNL     1       3.192 -11.647  -3.988  0.00  0.00    +0.025 A 
ATOM     26  C   UNL     1       3.554 -12.992  -3.984  0.00  0.00    +0.048 A 
ATOM     27  C   UNL     1       4.223 -13.535  -2.889  0.00  0.00    +0.025 A 
ATOM     28  C   UNL     1       4.531 -12.748  -1.816  0.00  0.00    +0.013 A 
BRANCH  26  29
ATOM     29  N   UNL     1       3.248 -13.795  -5.075  0.00  0.00    -0.221 N 
ATOM     30  H   UNL     1       2.530 -14.444  -5.013  0.00  0.00    +0.173 HD
BRANCH  29  31
ATOM     31  S   UNL     1       4.108 -13.643  -6.482  0.00  0.00    +0.040 S 
ATOM     32  O   UNL     1       3.550 -14.616  -7.355  0.00  0.00    -0.155 OA
ATOM     33  O   UNL     1       4.040 -12.260  -6.802  0.00  0.00    -0.155 OA
ATOM     34  C   UNL     1       5.807 -14.100  -6.042  0.00  0.00    +0.218 C 
ENDBRANCH  29  31
ENDBRANCH  26  29
ENDBRANCH  21  23
ENDBRANCH  19  21
ENDBRANCH  18  19
ENDBRANCH  12  18
TORSDOF 7
