REMARK  Name = ZINC43465428
REMARK  8 active torsions:
REMARK  status: ('A' for Active; 'I' for Inactive)
REMARK    1  A    between atoms: C_4  and  C_7
REMARK    2  A    between atoms: C_13  and  O_18
REMARK    3  A    between atoms: O_18  and  C_19
REMARK    4  A    between atoms: C_21  and  O_34
REMARK    5  A    between atoms: C_23  and  O_33
REMARK    6  A    between atoms: C_25  and  O_32
REMARK    7  A    between atoms: C_27  and  C_30
REMARK    8  A    between atoms: C_30  and  O_31
REMARK                            x       y       z     vdW  Elec       q    Type
REMARK                         _______ _______ _______ _____ _____    ______ ____
ROOT
ATOM      1  C   UNL     1       3.694  -0.683  -0.038  0.00  0.00    +0.139 A 
ATOM      2  C   UNL     1       3.686  -2.044  -0.051  0.00  0.00    +0.098 A 
ATOM      3  C   UNL     1       4.913  -2.748  -0.068  0.00  0.00    +0.193 A 
ATOM      4  O   UNL     1       4.944  -3.967  -0.081  0.00  0.00    -0.287 OA
ATOM      5  C   UNL     1       6.154  -1.948  -0.071  0.00  0.00    +0.067 A 
ATOM      6  C   UNL     1       7.407  -2.557  -0.088  0.00  0.00    +0.061 A 
ATOM      7  C   UNL     1       8.546  -1.773  -0.091  0.00  0.00    +0.125 A 
ATOM      8  C   UNL     1       8.440  -0.386  -0.076  0.00  0.00    +0.049 A 
ATOM      9  C   UNL     1       7.204   0.224  -0.059  0.00  0.00    +0.050 A 
ATOM     10  C   UNL     1       6.048  -0.548  -0.057  0.00  0.00    +0.139 A 
ATOM     11  O   UNL     1       4.829   0.032  -0.046  0.00  0.00    -0.455 OA
ENDROOT
BRANCH   1  15
ATOM     12  C   UNL     1      -0.017   1.379   0.010  0.00  0.00    +0.000 A 
ATOM     13  C   UNL     1       1.168   2.094   0.002  0.00  0.00    +0.001 A 
ATOM     14  C   UNL     1       2.377   1.431  -0.013  0.00  0.00    +0.011 A 
ATOM     15  C   UNL     1       2.404   0.034  -0.021  0.00  0.00    +0.017 A 
ATOM     16  C   UNL     1       1.204  -0.681  -0.013  0.00  0.00    +0.011 A 
ATOM     17  C   UNL     1       0.002  -0.004   0.002  0.00  0.00    +0.001 A 
ENDBRANCH   1  15
BRANCH   7  18
ATOM     18  O   UNL     1       9.773  -2.359  -0.107  0.00  0.00    -0.461 OA
BRANCH  18  19
ATOM     19  C   UNL     1      10.907  -1.490  -0.109  0.00  0.00    +0.339 C 
ATOM     20  C   UNL     1      12.175  -2.305  -0.378  0.00  0.00    +0.214 C 
ATOM     21  C   UNL     1      13.392  -1.377  -0.318  0.00  0.00    +0.180 C 
ATOM     22  C   UNL     1      13.425  -0.684   1.047  0.00  0.00    +0.177 C 
ATOM     23  C   UNL     1      12.109   0.069   1.261  0.00  0.00    +0.179 C 
ATOM     24  O   UNL     1      11.016  -0.847   1.163  0.00  0.00    -0.331 OA
BRANCH  22  25
ATOM     25  O   UNL     1      14.516   0.238   1.088  0.00  0.00    -0.386 OA
ATOM     26  H   UNL     1      15.382  -0.171   0.955  0.00  0.00    +0.210 HD
ENDBRANCH  22  25
BRANCH  21  27
ATOM     27  O   UNL     1      14.585  -2.142  -0.497  0.00  0.00    -0.386 OA
ATOM     28  H   UNL     1      14.628  -2.613  -1.341  0.00  0.00    +0.210 HD
ENDBRANCH  21  27
BRANCH  20  29
ATOM     29  O   UNL     1      12.304  -3.328   0.612  0.00  0.00    -0.383 OA
ATOM     30  H   UNL     1      11.564  -3.950   0.634  0.00  0.00    +0.210 HD
ENDBRANCH  20  29
BRANCH  23  31
ATOM     31  C   UNL     1      12.110   0.715   2.648  0.00  0.00    +0.190 C 
BRANCH  31  32
ATOM     32  O   UNL     1      10.935   1.512   2.803  0.00  0.00    -0.392 OA
ATOM     33  H   UNL     1      10.869   1.953   3.662  0.00  0.00    +0.210 HD
ENDBRANCH  31  32
ENDBRANCH  23  31
ENDBRANCH  18  19
ENDBRANCH   7  18
TORSDOF 8
