REMARK  Name = ZINC45716027
REMARK  9 active torsions:
REMARK  status: ('A' for Active; 'I' for Inactive)
REMARK    1  A    between atoms: C_1  and  N_2
REMARK    2  A    between atoms: N_2  and  C_3
REMARK    3  A    between atoms: N_2  and  C_4
REMARK    4  A    between atoms: C_9  and  N_10
REMARK    5  A    between atoms: C_11  and  C_13
REMARK    6  A    between atoms: C_13  and  S_14
REMARK    7  A    between atoms: S_14  and  C_15
REMARK    8  A    between atoms: C_18  and  C_24
REMARK    9  A    between atoms: C_20  and  N_21
REMARK                            x       y       z     vdW  Elec       q    Type
REMARK                         _______ _______ _______ _____ _____    ______ ____
ROOT
ATOM      1  S   UNL     1      -2.259  -1.029   6.277  0.00  0.00    -0.114 S 
ENDROOT
BRANCH   1   2
ATOM      2  C   UNL     1      -1.431  -0.407   7.703  0.00  0.00    +0.039 A 
ATOM      3  C   UNL     1      -0.238   0.298   7.561  0.00  0.00    +0.018 A 
ATOM      4  C   UNL     1       0.408   0.783   8.662  0.00  0.00    +0.014 A 
ATOM      5  C   UNL     1      -0.126   0.573   9.937  0.00  0.00    +0.039 A 
ATOM      6  C   UNL     1      -1.323  -0.134  10.082  0.00  0.00    +0.047 A 
ATOM      7  C   UNL     1      -1.973  -0.615   8.969  0.00  0.00    +0.140 A 
BRANCH   5   8
ATOM      8  C   UNL     1       0.572   1.096  11.126  0.00  0.00    +0.242 C 
ATOM      9  O   UNL     1       0.106   0.913  12.234  0.00  0.00    -0.270 OA
ATOM     10  N   UNL     1       1.726   1.777  10.985  0.00  0.00    -0.325 N 
ATOM     11  H   UNL     1       2.098   1.924  10.101  0.00  0.00    +0.145 HD
ATOM     12  H   UNL     1       2.186   2.121  11.767  0.00  0.00    +0.145 HD
ENDBRANCH   5   8
BRANCH   7  13
ATOM     13  N   UNL     1      -3.244  -1.359   9.116  0.00  0.00    +0.058 N 
ATOM     14  O   UNL     1      -3.715  -1.540  10.215  0.00  0.00    -0.126 OA
ATOM     15  O   UNL     1      -3.812  -1.787   8.138  0.00  0.00    -0.126 OA
ENDBRANCH   7  13
ENDBRANCH   1   2
BRANCH   1  16
ATOM     16  C   UNL     1      -1.198  -0.522   4.897  0.00  0.00    +0.170 C 
BRANCH  16  18
ATOM     17  N   UNL     1      -1.179  -0.734   2.432  0.00  0.00    -0.283 N 
ATOM     18  C   UNL     1      -1.799  -0.998   3.599  0.00  0.00    +0.227 C 
ATOM     19  O   UNL     1      -2.841  -1.619   3.606  0.00  0.00    -0.275 OA
ATOM     20  H   UNL     1      -0.314  -0.295   2.431  0.00  0.00    +0.155 HD
BRANCH  17  26
ATOM     21  C   UNL     1      -1.625  -0.289   0.093  0.00  0.00    +0.051 A 
ATOM     22  C   UNL     1      -2.222  -0.654  -1.105  0.00  0.00    +0.025 A 
ATOM     23  C   UNL     1      -2.975  -1.811  -1.177  0.00  0.00    +0.002 A 
ATOM     24  C   UNL     1      -3.137  -2.607  -0.058  0.00  0.00    +0.002 A 
ATOM     25  C   UNL     1      -2.546  -2.251   1.140  0.00  0.00    +0.025 A 
ATOM     26  C   UNL     1      -1.784  -1.095   1.220  0.00  0.00    +0.055 A 
BRANCH  21  28
ATOM     27  C   UNL     1      -1.500   2.149   0.530  0.00  0.00    +0.129 C 
ATOM     28  N   UNL     1      -0.862   0.881   0.168  0.00  0.00    -0.335 N 
ATOM     29  C   UNL     1       0.575   0.838  -0.115  0.00  0.00    +0.129 C 
ENDBRANCH  21  28
ENDBRANCH  17  26
ENDBRANCH  16  18
ENDBRANCH   1  16
TORSDOF 7
