REMARK  Name = ZINC66497133
REMARK  13 active torsions:
REMARK  status: ('A' for Active; 'I' for Inactive)
REMARK    1  A    between atoms: C_1  and  C_2
REMARK    2  A    between atoms: C_2  and  C_3
REMARK    3  A    between atoms: C_2  and  C_4
REMARK    4  A    between atoms: C_2  and  O_5
REMARK    5  A    between atoms: O_5  and  C_6
REMARK    6  A    between atoms: N_8  and  C_9
REMARK    7  A    between atoms: C_9  and  C_10
REMARK    8  A    between atoms: C_10  and  N_11
REMARK    9  A    between atoms: C_12  and  C_14
REMARK   10  A    between atoms: N_19  and  C_21
REMARK   11  A    between atoms: C_21  and  C_22
REMARK   12  A    between atoms: N_24  and  C_25
REMARK   13  A    between atoms: C_25  and  C_26
REMARK                            x       y       z     vdW  Elec       q    Type
REMARK                         _______ _______ _______ _____ _____    ______ ____
ROOT
ATOM      1  C   UNL     1       8.095  -0.218  -5.353  0.00  0.00    +0.058 C 
ATOM      2  C   UNL     1       8.934  -0.730  -4.178  0.00  0.00    +0.009 C 
ATOM      3  C   UNL     1      10.402  -0.360  -4.412  0.00  0.00    -0.018 C 
ATOM      4  C   UNL     1      10.862  -0.943  -5.750  0.00  0.00    -0.078 C 
ATOM      5  N   UNL     1      10.039  -0.395  -6.835  0.00  0.00    +0.386 N 
ATOM      6  C   UNL     1       8.641  -0.805  -6.657  0.00  0.00    -0.065 C 
ATOM      7  H   UNL     1      10.096   0.612  -6.824  0.00  0.00    -0.081 HD
ENDROOT
BRANCH   1   9
ATOM      8  N   UNL     1       5.973  -0.243  -4.083  0.00  0.00    -0.314 N 
ATOM      9  C   UNL     1       6.661  -0.644  -5.171  0.00  0.00    +0.214 C 
ATOM     10  O   UNL     1       6.127  -1.346  -6.003  0.00  0.00    -0.276 OA
ATOM     11  H   UNL     1       6.400   0.318  -3.418  0.00  0.00    +0.149 HD
BRANCH   8  12
ATOM     12  C   UNL     1       4.579  -0.657  -3.906  0.00  0.00    +0.123 C 
BRANCH  12  13
ATOM     13  C   UNL     1       4.035  -0.071  -2.601  0.00  0.00    +0.126 C 
BRANCH  13  16
ATOM     14  C   UNL     1       1.952  -0.085  -1.337  0.00  0.00    +0.401 C 
ATOM     15  O   UNL     1       2.488   0.619  -0.503  0.00  0.00    -0.226 OA
ATOM     16  N   UNL     1       2.641  -0.485  -2.424  0.00  0.00    -0.280 N 
ATOM     17  H   UNL     1       2.213  -1.047  -3.089  0.00  0.00    +0.152 HD
BRANCH  14  18
ATOM     18  O   UNL     1       0.671  -0.465  -1.174  0.00  0.00    -0.445 OA
BRANCH  18  20
ATOM     19  C   UNL     1      -0.019   1.526   0.010  0.00  0.00    +0.055 C 
ATOM     20  C   UNL     1       0.002  -0.004   0.002  0.00  0.00    +0.107 C 
ATOM     21  C   UNL     1       0.742  -0.511   1.242  0.00  0.00    +0.055 C 
ATOM     22  C   UNL     1      -1.433  -0.534   0.013  0.00  0.00    +0.055 C 
ENDBRANCH  18  20
ENDBRANCH  14  18
ENDBRANCH  13  16
ENDBRANCH  12  13
ENDBRANCH   8  12
ENDBRANCH   1   9
BRANCH   5  23
ATOM     23  C   UNL     1      10.534  -0.897  -8.124  0.00  0.00    +0.019 C 
BRANCH  23  24
ATOM     24  C   UNL     1      11.923  -0.366  -8.370  0.00  0.00    +0.196 C 
ATOM     25  O   UNL     1      12.448   0.358  -7.551  0.00  0.00    -0.278 OA
ATOM     26  N   UNL     1      12.581  -0.697  -9.498  0.00  0.00    -0.317 N 
ATOM     27  H   UNL     1      12.160  -1.277 -10.153  0.00  0.00    +0.149 HD
BRANCH  26  28
ATOM     28  C   UNL     1      13.931  -0.181  -9.737  0.00  0.00    +0.107 C 
BRANCH  28  29
ATOM     29  C   UNL     1      14.447  -0.704 -11.079  0.00  0.00    +0.006 C 
ATOM     30  C   UNL     1      15.146  -2.070 -10.981  0.00  0.00    +0.005 C 
ATOM     31  C   UNL     1      16.173  -1.529 -11.990  0.00  0.00    +0.001 C 
ATOM     32  C   UNL     1      15.812  -0.122 -11.483  0.00  0.00    +0.005 C 
ENDBRANCH  28  29
ENDBRANCH  26  28
ENDBRANCH  23  24
ENDBRANCH   5  23
TORSDOF 10
