REMARK  Name = ZINC36743344
REMARK  9 active torsions:
REMARK  status: ('A' for Active; 'I' for Inactive)
REMARK    1  A    between atoms: C_1  and  C_2
REMARK    2  A    between atoms: C_5  and  S_7
REMARK    3  A    between atoms: S_7  and  N_10
REMARK    4  A    between atoms: N_10  and  C_11
REMARK    5  A    between atoms: C_13  and  O_20
REMARK    6  A    between atoms: C_14  and  O_18
REMARK    7  A    between atoms: C_16  and  N_17
REMARK    8  A    between atoms: O_18  and  C_19
REMARK    9  A    between atoms: O_20  and  C_21
REMARK                            x       y       z     vdW  Elec       q    Type
REMARK                         _______ _______ _______ _____ _____    ______ ____
ROOT
ATOM      1  C   UNL     1       2.147  -4.021  -2.463  0.00  0.00    +0.072 A 
ATOM      2  C   UNL     1       3.371  -3.563  -1.997  0.00  0.00    +0.075 A 
ATOM      3  C   UNL     1       4.207  -2.845  -2.836  0.00  0.00    +0.163 A 
ATOM      4  C   UNL     1       3.821  -2.581  -4.146  0.00  0.00    +0.163 A 
ATOM      5  C   UNL     1       2.599  -3.037  -4.613  0.00  0.00    +0.074 A 
ATOM      6  C   UNL     1       1.762  -3.761  -3.777  0.00  0.00    +0.051 A 
ENDROOT
BRANCH   6   7
ATOM      7  N   UNL     1       0.527  -4.227  -4.251  0.00  0.00    -0.356 N 
ATOM      8  H   UNL     1      -0.059  -4.731  -3.665  0.00  0.00    +0.142 HD
ATOM      9  H   UNL     1       0.260  -4.047  -5.166  0.00  0.00    +0.142 HD
ENDBRANCH   6   7
BRANCH   1  10
ATOM     10  N   UNL     1       1.300  -4.748  -1.614  0.00  0.00    -0.214 N 
ATOM     11  H   UNL     1       0.760  -5.471  -1.971  0.00  0.00    +0.174 HD
BRANCH  10  12
ATOM     12  S   UNL     1       1.223  -4.374  -0.003  0.00  0.00    +0.079 S 
ATOM     13  O   UNL     1       2.557  -4.398   0.484  0.00  0.00    -0.149 OA
ATOM     14  O   UNL     1       0.195  -5.183   0.553  0.00  0.00    -0.149 OA
BRANCH  12  19
ATOM     15  C   UNL     1       0.332   1.462   0.372  0.00  0.00    +0.051 C 
ATOM     16  C   UNL     1       0.285  -0.042   0.289  0.00  0.00    -0.011 A 
ATOM     17  C   UNL     1      -0.792  -0.864   0.294  0.00  0.00    +0.013 A 
ATOM     18  C   UNL     1      -0.595  -2.229   0.206  0.00  0.00    +0.037 A 
ATOM     19  C   UNL     1       0.671  -2.705   0.119  0.00  0.00    +0.146 A 
ATOM     20  S   UNL     1       1.635  -1.203   0.151  0.00  0.00    -0.074 S 
ENDBRANCH  12  19
ENDBRANCH  10  12
ENDBRANCH   1  10
BRANCH   4  21
ATOM     21  O   UNL     1       4.643  -1.875  -4.968  0.00  0.00    -0.491 OA
ATOM     22  C   UNL     1       4.183  -1.641  -6.301  0.00  0.00    +0.277 C 
ENDBRANCH   4  21
BRANCH   3  23
ATOM     23  O   UNL     1       5.407  -2.395  -2.378  0.00  0.00    -0.491 OA
ATOM     24  C   UNL     1       5.740  -2.702  -1.022  0.00  0.00    +0.277 C 
ENDBRANCH   3  23
TORSDOF 6
