REMARK  Name = ZINC12658631
REMARK  5 active torsions:
REMARK  status: ('A' for Active; 'I' for Inactive)
REMARK    1  A    between atoms: C_3  and  C_10
REMARK    2  A    between atoms: C_5  and  N_7
REMARK    3  A    between atoms: N_12  and  C_13
REMARK    4  A    between atoms: C_13  and  C_22
REMARK    5  A    between atoms: C_14  and  C_15
REMARK                            x       y       z     vdW  Elec       q    Type
REMARK                         _______ _______ _______ _____ _____    ______ ____
ROOT
ATOM      1  C   UNL     1      -1.228   1.873   0.099  0.00  0.00    +0.097 C 
ATOM      2  C   UNL     1      -0.062   1.191   0.169  0.00  0.00    +0.036 C 
ENDROOT
BRANCH   1   3
ATOM      3  C   UNL     1      -2.506   1.147   0.108  0.00  0.00    +0.261 C 
ATOM      4  O   UNL     1      -3.003   0.777  -0.939  0.00  0.00    -0.269 OA
ATOM      5  N   UNL     1      -3.128   0.892   1.276  0.00  0.00    -0.296 N 
ATOM      6  C   UNL     1      -2.566   1.432   2.493  0.00  0.00    +0.108 C 
ATOM      7  C   UNL     1      -1.546   0.438   3.087  0.00  0.00    +0.019 C 
ATOM      8  C   UNL     1      -2.239  -0.736   3.640  0.00  0.00    +0.002 C 
ATOM      9  C   UNL     1      -3.010  -1.554   2.608  0.00  0.00    +0.002 C 
ATOM     10  C   UNL     1      -4.380  -0.952   2.414  0.00  0.00    +0.019 C 
ATOM     11  C   UNL     1      -4.352   0.066   1.260  0.00  0.00    +0.108 C 
ENDBRANCH   1   3
BRANCH   2  12
ATOM     12  C   UNL     1       1.215   1.894  -0.030  0.00  0.00    -0.023 A 
ATOM     13  C   UNL     1       1.318   2.905  -0.991  0.00  0.00    +0.009 A 
ATOM     14  C   UNL     1       2.516   3.564  -1.167  0.00  0.00    +0.020 A 
ATOM     15  C   UNL     1       3.619   3.218  -0.405  0.00  0.00    +0.041 A 
ATOM     16  C   UNL     1       3.526   2.213   0.545  0.00  0.00    +0.020 A 
ATOM     17  C   UNL     1       2.333   1.550   0.737  0.00  0.00    +0.009 A 
ATOM     18 CL   UNL     1       5.126   4.048  -0.640  0.00  0.00    -0.084 Cl
ENDBRANCH   2  12
BRANCH   1  21
ATOM     19  C   UNL     1      -2.378   3.947  -0.075  0.00  0.00    +0.248 C 
ATOM     20  O   UNL     1      -3.437   3.355   0.006  0.00  0.00    -0.270 OA
ATOM     21  N   UNL     1      -1.218   3.269   0.019  0.00  0.00    -0.277 N 
ATOM     22  H   UNL     1      -0.375   3.749   0.030  0.00  0.00    +0.155 HD
BRANCH  19  25
ATOM     23  C   UNL     1      -1.145   7.462  -0.555  0.00  0.00    +0.003 A 
ATOM     24  C   UNL     1      -1.151   6.096  -0.362  0.00  0.00    +0.013 A 
ATOM     25  C   UNL     1      -2.364   5.412  -0.275  0.00  0.00    +0.039 A 
ATOM     26  C   UNL     1      -3.565   6.118  -0.372  0.00  0.00    +0.045 A 
ATOM     27  C   UNL     1      -3.545   7.484  -0.559  0.00  0.00    +0.127 A 
ATOM     28  C   UNL     1      -2.338   8.155  -0.650  0.00  0.00    +0.033 A 
BRANCH  27  29
ATOM     29  N   UNL     1      -4.817   8.234  -0.663  0.00  0.00    +0.056 N 
ATOM     30  O   UNL     1      -5.880   7.645  -0.583  0.00  0.00    -0.126 OA
ATOM     31  O   UNL     1      -4.801   9.441  -0.828  0.00  0.00    -0.126 OA
ENDBRANCH  27  29
ENDBRANCH  19  25
ENDBRANCH   1  21
TORSDOF 5
