REMARK  Name = ZINC15482140
REMARK  5 active torsions:
REMARK  status: ('A' for Active; 'I' for Inactive)
REMARK    1  A    between atoms: C_4  and  C_7
REMARK    2  A    between atoms: C_7  and  C_9
REMARK    3  A    between atoms: C_7  and  N_15
REMARK    4  A    between atoms: N_18  and  S_21
REMARK    5  A    between atoms: S_21  and  C_24
REMARK                            x       y       z     vdW  Elec       q    Type
REMARK                         _______ _______ _______ _____ _____    ______ ____
ROOT
ATOM      1  N   UNL     1      -2.979   0.667   4.381  0.00  0.00    -0.285 NA
ATOM      2  C   UNL     1      -3.240   1.905   3.635  0.00  0.00    +0.102 C 
ATOM      3  C   UNL     1      -3.938   1.564   2.314  0.00  0.00    +0.125 C 
ATOM      4  N   UNL     1      -3.127   0.567   1.600  0.00  0.00    -0.174 NA
ATOM      5  C   UNL     1      -2.714  -0.644   2.327  0.00  0.00    +0.125 C 
ATOM      6  C   UNL     1      -2.059  -0.213   3.648  0.00  0.00    +0.102 C 
ENDROOT
BRANCH   4   7
ATOM      7  S   UNL     1      -2.694   0.798   0.019  0.00  0.00    +0.061 S 
ATOM      8  O   UNL     1      -3.654   1.685  -0.539  0.00  0.00    -0.153 OA
ATOM      9  O   UNL     1      -2.441  -0.490  -0.525  0.00  0.00    -0.153 OA
BRANCH   7  10
ATOM     10  C   UNL     1      -1.155   1.656   0.019  0.00  0.00    +0.106 A 
ATOM     11  C   UNL     1       0.032   0.948   0.026  0.00  0.00    +0.029 A 
ATOM     12  C   UNL     1       1.237   1.623   0.020  0.00  0.00    +0.006 A 
ATOM     13  C   UNL     1       1.261   3.007   0.013  0.00  0.00    -0.044 A 
ATOM     14  C   UNL     1       0.074   3.715   0.012  0.00  0.00    -0.042 A 
ATOM     15  C   UNL     1      -1.134   3.037   0.018  0.00  0.00    +0.032 A 
ATOM     16  C   UNL     1       0.364   5.201   0.004  0.00  0.00    +0.036 C 
ATOM     17  C   UNL     1       1.837   5.322  -0.439  0.00  0.00    +0.009 C 
ATOM     18  C   UNL     1       2.430   3.968   0.006  0.00  0.00    +0.036 C 
ENDBRANCH   7  10
ENDBRANCH   4   7
BRANCH   1  19
ATOM     19  C   UNL     1      -2.467   0.961   5.726  0.00  0.00    +0.174 C 
BRANCH  19  20
ATOM     20  C   UNL     1      -1.142   1.669   5.616  0.00  0.00    +0.242 C 
ATOM     21  O   UNL     1      -0.670   1.905   4.524  0.00  0.00    -0.273 OA
ATOM     22  N   UNL     1      -0.480   2.039   6.730  0.00  0.00    -0.239 N 
ATOM     23  C   UNL     1       0.705   2.673   6.631  0.00  0.00    +0.303 C 
ATOM     24  O   UNL     1       1.178   2.909   5.537  0.00  0.00    -0.253 OA
ATOM     25  N   UNL     1       1.366   3.043   7.746  0.00  0.00    -0.313 N 
ATOM     26  H   UNL     1      -0.908   1.825   7.721  0.00  0.00    +0.159 HD
ATOM     27  H   UNL     1       2.334   3.560   7.665  0.00  0.00    +0.146 HD
ATOM     28  H   UNL     1       0.938   2.829   8.736  0.00  0.00    +0.146 HD
ENDBRANCH  19  20
BRANCH  19  32
ATOM     29  C   UNL     1      -1.957  -2.690   7.884  0.00  0.00    +0.000 A 
ATOM     30  C   UNL     1      -3.191  -2.067   7.862  0.00  0.00    +0.000 A 
ATOM     31  C   UNL     1      -3.356  -0.886   7.163  0.00  0.00    +0.005 A 
ATOM     32  C   UNL     1      -2.287  -0.327   6.488  0.00  0.00    -0.021 A 
ATOM     33  C   UNL     1      -1.054  -0.952   6.507  0.00  0.00    +0.005 A 
ATOM     34  C   UNL     1      -0.888  -2.131   7.209  0.00  0.00    +0.000 A 
ENDBRANCH  19  32
ENDBRANCH   1  19
TORSDOF 5
