REMARK  Name = ZINC10912675
REMARK  8 active torsions:
REMARK  status: ('A' for Active; 'I' for Inactive)
REMARK    1  A    between atoms: C_4  and  C_7
REMARK    2  A    between atoms: C_7  and  C_9
REMARK    3  A    between atoms: C_7  and  O_22
REMARK    4  A    between atoms: N_11  and  C_12
REMARK    5  A    between atoms: C_15  and  N_19
REMARK    6  A    between atoms: O_22  and  C_23
REMARK    7  A    between atoms: C_23  and  C_25
REMARK    8  A    between atoms: C_25  and  C_26
REMARK                            x       y       z     vdW  Elec       q    Type
REMARK                         _______ _______ _______ _____ _____    ______ ____
ROOT
ATOM      1  C   UNL     1      -1.046   1.772  -3.575  0.00  0.00    +0.292 C 
ENDROOT
BRANCH   1   5
ATOM      2  C   UNL     1      -4.050  -1.046  -4.706  0.00  0.00    +0.000 A 
ATOM      3  C   UNL     1      -4.301   0.310  -4.808  0.00  0.00    +0.000 A 
ATOM      4  C   UNL     1      -3.328   1.222  -4.442  0.00  0.00    +0.008 A 
ATOM      5  C   UNL     1      -2.106   0.778  -3.974  0.00  0.00    +0.002 A 
ATOM      6  C   UNL     1      -1.853  -0.578  -3.877  0.00  0.00    +0.008 A 
ATOM      7  C   UNL     1      -2.827  -1.490  -4.239  0.00  0.00    +0.000 A 
ENDBRANCH   1   5
BRANCH   1   8
ATOM      8  C   UNL     1      -0.112   2.004  -4.735  0.00  0.00    +0.263 C 
ATOM      9  O   UNL     1       1.051   1.671  -4.653  0.00  0.00    -0.271 OA
ATOM     10  N   UNL     1      -0.570   2.581  -5.864  0.00  0.00    -0.281 N 
ATOM     11  H   UNL     1      -1.514   2.788  -5.954  0.00  0.00    +0.155 HD
BRANCH  10  12
ATOM     12  C   UNL     1       0.315   2.882  -6.905  0.00  0.00    +0.052 A 
ATOM     13  C   UNL     1       1.395   2.048  -7.163  0.00  0.00    +0.027 A 
ATOM     14  C   UNL     1       2.267   2.347  -8.192  0.00  0.00    +0.034 A 
ATOM     15  C   UNL     1       2.066   3.477  -8.964  0.00  0.00    +0.128 A 
ATOM     16  C   UNL     1       0.992   4.310  -8.710  0.00  0.00    +0.054 A 
ATOM     17  C   UNL     1       0.113   4.013  -7.686  0.00  0.00    +0.064 A 
ATOM     18 CL   UNL     1      -1.239   5.056  -7.372  0.00  0.00    -0.082 Cl
BRANCH  15  19
ATOM     19  N   UNL     1       3.003   3.794 -10.065  0.00  0.00    +0.056 N 
ATOM     20  O   UNL     1       3.950   3.061 -10.290  0.00  0.00    -0.126 OA
ATOM     21  O   UNL     1       2.828   4.788 -10.746  0.00  0.00    -0.126 OA
ENDBRANCH  15  19
ENDBRANCH  10  12
ENDBRANCH   1   8
BRANCH   1  22
ATOM     22  O   UNL     1      -0.295   1.252  -2.446  0.00  0.00    -0.447 OA
BRANCH  22  23
ATOM     23  C   UNL     1      -0.751   1.554  -1.220  0.00  0.00    +0.314 C 
ATOM     24  O   UNL     1      -1.744   2.230  -1.094  0.00  0.00    -0.250 OA
BRANCH  23  25
ATOM     25  C   UNL     1      -0.023   1.049  -0.001  0.00  0.00    +0.178 C 
BRANCH  25  26
ATOM     26  C   UNL     1      -0.734   1.524   1.241  0.00  0.00    +0.080 A 
ATOM     27  C   UNL     1      -0.222   1.159   2.562  0.00  0.00    +0.011 A 
ATOM     28  C   UNL     1       0.927   0.381   2.717  0.00  0.00    +0.010 A 
ATOM     29  C   UNL     1       1.369   0.072   3.973  0.00  0.00    +0.001 A 
ATOM     30  C   UNL     1       0.695   0.525   5.099  0.00  0.00    +0.001 A 
ATOM     31  C   UNL     1      -0.439   1.298   4.976  0.00  0.00    +0.014 A 
ATOM     32  C   UNL     1      -0.909   1.626   3.705  0.00  0.00    +0.050 A 
ATOM     33  C   UNL     1      -2.110   2.446   3.507  0.00  0.00    +0.272 A 
ATOM     34  O   UNL     1      -2.738   2.868   4.462  0.00  0.00    -0.266 OA
ATOM     35  N   UNL     1      -2.506   2.725   2.248  0.00  0.00    -0.242 N 
ATOM     36  H   UNL     1      -3.299   3.266   2.111  0.00  0.00    +0.192 HD
ATOM     37  N   UNL     1      -1.804   2.254   1.137  0.00  0.00    -0.175 NA
ENDBRANCH  25  26
ENDBRANCH  23  25
ENDBRANCH  22  23
ENDBRANCH   1  22
TORSDOF 8
