REMARK  Name = ZINC37014554
REMARK  9 active torsions:
REMARK  status: ('A' for Active; 'I' for Inactive)
REMARK    1  A    between atoms: C_1  and  C_2
REMARK    2  A    between atoms: C_2  and  C_4
REMARK    3  A    between atoms: C_2  and  N_11
REMARK    4  A    between atoms: C_12  and  C_14
REMARK    5  A    between atoms: C_14  and  C_16
REMARK    6  A    between atoms: C_14  and  N_22
REMARK    7  A    between atoms: C_16  and  C_17
REMARK    8  A    between atoms: C_17  and  S_18
REMARK    9  A    between atoms: S_18  and  C_21
REMARK                            x       y       z     vdW  Elec       q    Type
REMARK                         _______ _______ _______ _____ _____    ______ ____
ROOT
ATOM      1  N   UNL     1      -1.372  -0.511   0.012  0.00  0.00    -0.310 N 
ATOM      2  C   UNL     1      -2.029  -0.655   1.181  0.00  0.00    +0.199 C 
ATOM      3  O   UNL     1      -1.481  -0.365   2.224  0.00  0.00    -0.278 OA
ATOM      4  H   UNL     1      -1.810  -0.743  -0.822  0.00  0.00    +0.149 HD
ENDROOT
BRANCH   1   6
ATOM      5  C   UNL     1      -0.019   1.526   0.010  0.00  0.00    +0.033 C 
ATOM      6  C   UNL     1       0.002  -0.004   0.002  0.00  0.00    +0.101 C 
BRANCH   6   7
ATOM      7  C   UNL     1       0.707  -0.490  -1.238  0.00  0.00    -0.014 A 
ATOM      8  C   UNL     1      -0.023  -0.817  -2.365  0.00  0.00    +0.006 A 
ATOM      9  C   UNL     1       0.624  -1.262  -3.503  0.00  0.00    +0.000 A 
ATOM     10  C   UNL     1       2.002  -1.381  -3.513  0.00  0.00    +0.001 A 
ATOM     11  C   UNL     1       2.732  -1.054  -2.387  0.00  0.00    +0.015 A 
ATOM     12  C   UNL     1       2.086  -0.603  -1.250  0.00  0.00    +0.023 A 
ATOM     13 BR   UNL     1       3.086  -0.149   0.290  0.00  0.00    -0.050 Br
ENDBRANCH   6   7
ENDBRANCH   1   6
BRANCH   2  14
ATOM     14  C   UNL     1      -3.442  -1.177   1.191  0.00  0.00    +0.014 C 
BRANCH  14  15
ATOM     15  N   UNL     1      -3.765  -1.690   2.530  0.00  0.00    +0.386 N 
ATOM     16  H   UNL     1      -4.712  -2.039   2.537  0.00  0.00    -0.089 HD
ATOM     17  H   UNL     1      -3.129  -2.437   2.766  0.00  0.00    -0.089 HD
ATOM     18  H   UNL     1      -3.676  -0.946   3.205  0.00  0.00    -0.089 HD
ENDBRANCH  14  15
BRANCH  14  19
ATOM     19  C   UNL     1      -4.407  -0.044   0.833  0.00  0.00    +0.015 C 
BRANCH  19  20
ATOM     20  C   UNL     1      -5.828  -0.600   0.722  0.00  0.00    +0.164 C 
BRANCH  20  21
ATOM     21  S   UNL     1      -6.971   0.743   0.297  0.00  0.00    -0.034 S 
ATOM     22  O   UNL     1      -7.006   1.663   1.380  0.00  0.00    -0.175 OA
ATOM     23  O   UNL     1      -6.645   1.217  -1.002  0.00  0.00    -0.175 OA
ATOM     24  C   UNL     1      -8.572  -0.106   0.213  0.00  0.00    +0.194 C 
ENDBRANCH  20  21
ENDBRANCH  19  20
ENDBRANCH  14  19
ENDBRANCH   2  14
TORSDOF 7
