REMARK  Name = ZINC08533998
REMARK  14 active torsions:
REMARK  status: ('A' for Active; 'I' for Inactive)
REMARK    1  A    between atoms: C_1  and  C_2
REMARK    2  A    between atoms: C_5  and  C_13
REMARK    3  A    between atoms: C_6  and  C_7
REMARK    4  A    between atoms: C_6  and  C_8
REMARK    5  A    between atoms: C_10  and  O_12
REMARK    6  A    between atoms: N_15  and  C_16
REMARK    7  A    between atoms: C_16  and  C_17
REMARK    8  A    between atoms: C_17  and  C_18
REMARK    9  A    between atoms: C_18  and  N_19
REMARK   10  A    between atoms: C_20  and  C_22
REMARK   11  A    between atoms: C_25  and  C_33
REMARK   12  A    between atoms: C_26  and  C_27
REMARK   13  A    between atoms: C_26  and  C_28
REMARK   14  A    between atoms: C_29  and  O_32
REMARK                            x       y       z     vdW  Elec       q    Type
REMARK                         _______ _______ _______ _____ _____    ______ ____
ROOT
ATOM      1  C   UNL     1       0.948  -6.976   1.605  0.00  0.00    +0.037 C 
ENDROOT
BRANCH   1   2
ATOM      2  C   UNL     1       1.311  -5.610   2.191  0.00  0.00    +0.105 C 
BRANCH   2   5
ATOM      3  C   UNL     1       0.996  -3.258   1.638  0.00  0.00    +0.220 C 
ATOM      4  O   UNL     1       1.606  -2.969   2.646  0.00  0.00    -0.275 OA
ATOM      5  N   UNL     1       0.794  -4.552   1.320  0.00  0.00    -0.315 N 
ATOM      6  H   UNL     1       0.305  -4.782   0.514  0.00  0.00    +0.149 HD
BRANCH   3  11
ATOM      7  C   UNL     1      -0.019   1.526   0.010  0.00  0.00    +0.014 C 
ATOM      8  C   UNL     1       0.002  -0.004   0.002  0.00  0.00    +0.000 C 
ATOM      9  C   UNL     1      -1.389  -0.705   0.062  0.00  0.00    +0.011 C 
ATOM     10  C   UNL     1      -1.084  -2.139   0.552  0.00  0.00    +0.017 C 
ATOM     11  C   UNL     1       0.463  -2.169   0.743  0.00  0.00    +0.055 C 
ATOM     12  C   UNL     1       0.727  -0.695   1.211  0.00  0.00    -0.013 C 
ATOM     13  C   UNL     1       2.220  -0.363   1.250  0.00  0.00    +0.012 C 
ATOM     14  C   UNL     1       0.042  -0.385   2.543  0.00  0.00    +0.012 C 
ATOM     15  C   UNL     1       1.036  -2.118  -0.707  0.00  0.00    +0.048 C 
ATOM     16  C   UNL     1       0.744  -0.669  -1.197  0.00  0.00    +0.122 C 
BRANCH  16  17
ATOM     17  O   UNL     1      -0.102  -0.707  -2.348  0.00  0.00    -0.391 OA
ATOM     18  H   UNL     1       0.308  -1.111  -3.125  0.00  0.00    +0.210 HD
ENDBRANCH  16  17
ENDBRANCH   3  11
ENDBRANCH   2   5
ENDBRANCH   1   2
BRANCH   1  19
ATOM     19  C   UNL     1       1.488  -8.081   2.515  0.00  0.00    +0.105 C 
BRANCH  19  20
ATOM     20  N   UNL     1       1.140  -9.389   1.954  0.00  0.00    -0.315 N 
ATOM     21  C   UNL     1       1.515 -10.516   2.590  0.00  0.00    +0.220 C 
ATOM     22  O   UNL     1       2.141 -10.448   3.627  0.00  0.00    -0.275 OA
ATOM     23  H   UNL     1       0.639  -9.443   1.125  0.00  0.00    +0.149 HD
BRANCH  21  24
ATOM     24  C   UNL     1       1.157 -11.861   2.013  0.00  0.00    +0.055 C 
ATOM     25  C   UNL     1       1.754 -12.182   0.609  0.00  0.00    +0.017 C 
ATOM     26  C   UNL     1       1.682 -13.722   0.496  0.00  0.00    +0.011 C 
ATOM     27  C   UNL     1       1.048 -14.187   1.843  0.00  0.00    +0.000 C 
ATOM     28  C   UNL     1       1.638 -13.115   2.826  0.00  0.00    -0.013 C 
ATOM     29  C   UNL     1       3.163 -13.192   2.912  0.00  0.00    +0.012 C 
ATOM     30  C   UNL     1       0.988 -13.186   4.209  0.00  0.00    +0.012 C 
ATOM     31  C   UNL     1      -0.436 -13.716   1.759  0.00  0.00    +0.122 C 
ATOM     32  C   UNL     1      -0.367 -12.166   1.889  0.00  0.00    +0.048 C 
ATOM     33  C   UNL     1       1.280 -15.651   2.221  0.00  0.00    +0.014 C 
BRANCH  31  34
ATOM     34  O   UNL     1      -1.194 -14.262   2.840  0.00  0.00    -0.391 OA
ATOM     35  H   UNL     1      -2.125 -14.002   2.839  0.00  0.00    +0.210 HD
ENDBRANCH  31  34
ENDBRANCH  21  24
ENDBRANCH  19  20
ENDBRANCH   1  19
TORSDOF 8
