REMARK  Name = ZINC66057837
REMARK  4 active torsions:
REMARK  status: ('A' for Active; 'I' for Inactive)
REMARK    1  A    between atoms: N_13  and  C_17
REMARK    2  A    between atoms: C_17  and  C_18
REMARK    3  A    between atoms: N_20  and  C_21
REMARK    4  A    between atoms: C_25  and  C_27
REMARK                            x       y       z     vdW  Elec       q    Type
REMARK                         _______ _______ _______ _____ _____    ______ ____
ROOT
ATOM      1  C   UNL     1      -0.011   1.373  -0.016  0.00  0.00    +0.000 A 
ATOM      2  C   UNL     1       1.180   2.074  -0.030  0.00  0.00    +0.000 A 
ATOM      3  C   UNL     1       2.377   1.389  -0.045  0.00  0.00    +0.004 A 
ATOM      4  C   UNL     1       2.396  -0.000  -0.044  0.00  0.00    -0.042 A 
ATOM      5  C   UNL     1       1.210  -0.699  -0.025  0.00  0.00    -0.044 A 
ATOM      6  C   UNL     1       0.005  -0.006  -0.013  0.00  0.00    +0.004 A 
ATOM      7  C   UNL     1       1.151  -2.204  -0.007  0.00  0.00    +0.038 C 
ATOM      8  C   UNL     1       2.480  -2.799  -0.468  0.00  0.00    +0.040 C 
ATOM      9  C   UNL     1       3.607  -2.145   0.328  0.00  0.00    +0.117 C 
ATOM     10  C   UNL     1       3.739  -0.684  -0.071  0.00  0.00    +0.070 C 
ATOM     11  C   UNL     1       4.906  -2.882   0.107  0.00  0.00    +0.247 C 
ATOM     12  O   UNL     1       5.497  -3.032  -0.941  0.00  0.00    -0.273 OA
ATOM     13  N   UNL     1       5.272  -3.339   1.324  0.00  0.00    -0.215 N 
ATOM     14  C   UNL     1       4.388  -2.990   2.267  0.00  0.00    +0.310 C 
ATOM     15  O   UNL     1       4.499  -3.287   3.440  0.00  0.00    -0.252 OA
ATOM     16  N   UNL     1       3.361  -2.275   1.769  0.00  0.00    -0.285 N 
ATOM     17  H   UNL     1       2.608  -1.916   2.265  0.00  0.00    +0.151 HD
ENDROOT
BRANCH  13  18
ATOM     18  C   UNL     1       6.485  -4.119   1.580  0.00  0.00    +0.214 C 
BRANCH  18  19
ATOM     19  C   UNL     1       7.624  -3.186   1.901  0.00  0.00    +0.235 C 
ATOM     20  O   UNL     1       7.440  -1.987   1.915  0.00  0.00    -0.274 OA
ATOM     21  N   UNL     1       8.846  -3.683   2.174  0.00  0.00    -0.284 N 
ATOM     22  H   UNL     1       8.978  -4.643   2.229  0.00  0.00    +0.155 HD
BRANCH  21  23
ATOM     23  C   UNL     1       9.925  -2.816   2.377  0.00  0.00    +0.035 A 
ATOM     24  C   UNL     1      11.197  -3.174   1.943  0.00  0.00    +0.023 A 
ATOM     25  C   UNL     1      12.266  -2.321   2.141  0.00  0.00    +0.003 A 
ATOM     26  C   UNL     1      12.079  -1.107   2.771  0.00  0.00    +0.019 A 
ATOM     27  C   UNL     1      10.806  -0.738   3.211  0.00  0.00    +0.054 A 
ATOM     28  C   UNL     1       9.726  -1.597   3.006  0.00  0.00    +0.042 A 
BRANCH  27  29
ATOM     29  C   UNL     1      10.609   0.521   3.865  0.00  0.00    +0.099 C 
ATOM     30  N   UNL     1      10.453   1.520   4.383  0.00  0.00    -0.191 NA
ENDBRANCH  27  29
ENDBRANCH  21  23
ENDBRANCH  18  19
ENDBRANCH  13  18
TORSDOF 4
