REMARK  Name = ZINC54560804
REMARK  8 active torsions:
REMARK  status: ('A' for Active; 'I' for Inactive)
REMARK    1  A    between atoms: C_1  and  C_2
REMARK    2  A    between atoms: N_5  and  C_11
REMARK    3  A    between atoms: C_7  and  C_10
REMARK    4  A    between atoms: C_11  and  C_12
REMARK    5  A    between atoms: C_15  and  C_22
REMARK    6  A    between atoms: C_19  and  O_21
REMARK    7  A    between atoms: C_22  and  C_23
REMARK    8  A    between atoms: C_22  and  C_24
REMARK                            x       y       z     vdW  Elec       q    Type
REMARK                         _______ _______ _______ _____ _____    ______ ____
ROOT
ATOM      1  C   UNL     1      -2.699  -4.055  -0.259  0.00  0.00    +0.032 C 
ATOM      2  C   UNL     1      -4.106  -4.582  -0.549  0.00  0.00    +0.011 C 
ATOM      3  C   UNL     1      -4.037  -6.080  -0.850  0.00  0.00    -0.008 C 
ATOM      4  C   UNL     1      -3.456  -6.817   0.358  0.00  0.00    +0.006 C 
ATOM      5  C   UNL     1      -2.049  -6.291   0.649  0.00  0.00    +0.032 C 
ATOM      6  C   UNL     1      -2.118  -4.792   0.950  0.00  0.00    +0.119 C 
ENDROOT
BRANCH   3   7
ATOM      7  C   UNL     1      -5.444  -6.607  -1.141  0.00  0.00    -0.014 C 
ATOM      8  C   UNL     1      -6.025  -5.870  -2.349  0.00  0.00    +0.007 C 
ATOM      9  C   UNL     1      -5.375  -8.106  -1.442  0.00  0.00    +0.007 C 
ENDBRANCH   3   7
BRANCH   6  10
ATOM     10  O   UNL     1      -2.953  -4.573   2.088  0.00  0.00    -0.391 OA
ATOM     11  H   UNL     1      -2.645  -5.011   2.893  0.00  0.00    +0.210 HD
ENDBRANCH   6  10
BRANCH   1  12
ATOM     12  C   UNL     1      -2.768  -2.557   0.042  0.00  0.00    +0.090 C 
BRANCH  12  16
ATOM     13  C   UNL     1       1.352  -1.142  -2.249  0.00  0.00    +0.039 C 
ATOM     14  C   UNL     1       0.686  -1.378  -0.892  0.00  0.00    +0.130 C 
ATOM     15  C   UNL     1      -0.746  -1.875  -1.105  0.00  0.00    +0.115 C 
ATOM     16  N   UNL     1      -1.407  -2.026   0.199  0.00  0.00    -0.297 NA
ATOM     17  C   UNL     1      -1.420  -0.749   0.927  0.00  0.00    +0.115 C 
ATOM     18  C   UNL     1       0.019  -0.263   1.120  0.00  0.00    +0.130 C 
ATOM     19  O   UNL     1       0.655  -0.152  -0.156  0.00  0.00    -0.371 OA
ATOM     20  C   UNL     1       0.008   1.104   1.807  0.00  0.00    +0.039 C 
ENDBRANCH  12  16
ENDBRANCH   1  12
TORSDOF 4
