REMARK  Name = ZINC44317404
REMARK  5 active torsions:
REMARK  status: ('A' for Active; 'I' for Inactive)
REMARK    1  A    between atoms: C_1  and  C_2
REMARK    2  A    between atoms: C_3  and  C_17
REMARK    3  A    between atoms: C_7  and  N_8
REMARK    4  A    between atoms: C_9  and  C_11
REMARK    5  A    between atoms: N_19  and  C_20
REMARK                            x       y       z     vdW  Elec       q    Type
REMARK                         _______ _______ _______ _____ _____    ______ ____
ROOT
ATOM      1  C   UNL     1       0.135   1.557   0.054  0.00  0.00    +0.046 C 
ATOM      2  C   UNL     1       0.093   0.050   0.041  0.00  0.00    -0.017 A 
ATOM      3  C   UNL     1       0.044  -0.638  -1.172  0.00  0.00    +0.041 A 
ATOM      4  C   UNL     1       0.006  -2.033  -1.176  0.00  0.00    +0.013 A 
ATOM      5  C   UNL     1       0.017  -2.727   0.017  0.00  0.00    +0.003 A 
ATOM      6  C   UNL     1       0.065  -2.046   1.218  0.00  0.00    +0.023 A 
ATOM      7  C   UNL     1       0.109  -0.656   1.233  0.00  0.00    +0.037 A 
ENDROOT
BRANCH   3   8
ATOM      8  C   UNL     1       0.032   0.108  -2.448  0.00  0.00    +0.244 C 
ATOM      9  O   UNL     1       0.192   1.313  -2.449  0.00  0.00    -0.270 OA
ATOM     10  N   UNL     1      -0.157  -0.548  -3.610  0.00  0.00    -0.314 N 
ATOM     11  C   UNL     1      -0.169   0.191  -4.875  0.00  0.00    +0.128 C 
ATOM     12  H   UNL     1      -0.285  -1.509  -3.609  0.00  0.00    +0.149 HD
ENDBRANCH   3   8
BRANCH   7  13
ATOM     13  N   UNL     1       0.164   0.029   2.451  0.00  0.00    -0.279 N 
ATOM     14  C   UNL     1      -0.235  -0.580   3.586  0.00  0.00    +0.284 C 
ATOM     15  O   UNL     1      -0.731  -1.690   3.538  0.00  0.00    -0.266 OA
ATOM     16  H   UNL     1       0.490   0.942   2.480  0.00  0.00    +0.155 HD
BRANCH  14  17
ATOM     17  C   UNL     1      -0.072   0.095   4.876  0.00  0.00    +0.191 A 
ATOM     18  C   UNL     1      -0.427  -0.408   6.095  0.00  0.00    +0.056 A 
ATOM     19  C   UNL     1      -0.092   0.567   7.047  0.00  0.00    +0.058 A 
ATOM     20  C   UNL     1       0.446   1.611   6.376  0.00  0.00    +0.171 A 
ATOM     21  O   UNL     1       0.461   1.320   5.068  0.00  0.00    -0.444 OA
ATOM     22 BR   UNL     1       1.078   3.213   7.155  0.00  0.00    -0.008 Br
ENDBRANCH  14  17
ENDBRANCH   7  13
TORSDOF 3
