REMARK  Name = ZINC17261164
REMARK  7 active torsions:
REMARK  status: ('A' for Active; 'I' for Inactive)
REMARK    1  A    between atoms: C_1  and  C_2
REMARK    2  A    between atoms: N_11  and  C_15
REMARK    3  A    between atoms: C_15  and  C_16
REMARK    4  A    between atoms: N_18  and  C_19
REMARK    5  A    between atoms: C_19  and  C_20
REMARK    6  A    between atoms: C_20  and  N_21
REMARK    7  A    between atoms: C_25  and  C_26
REMARK                            x       y       z     vdW  Elec       q    Type
REMARK                         _______ _______ _______ _____ _____    ______ ____
ROOT
ATOM      1  C   UNL     1       5.435   3.245   3.969  0.00  0.00    +0.231 C 
ATOM      2  O   UNL     1       4.289   3.387   3.598  0.00  0.00    -0.274 OA
ATOM      3  N   UNL     1       6.324   4.244   3.806  0.00  0.00    -0.312 N 
ATOM      4  H   UNL     1       7.241   4.131   4.103  0.00  0.00    +0.149 HD
ENDROOT
BRANCH   1   5
ATOM      5  C   UNL     1       5.865   1.951   4.611  0.00  0.00    +0.213 C 
BRANCH   5  15
ATOM      6  C   UNL     1       1.772   1.174   3.092  0.00  0.00    +0.010 C 
ATOM      7  C   UNL     1       2.003  -0.330   3.248  0.00  0.00    +0.018 C 
ATOM      8  C   UNL     1       2.316  -0.943   1.881  0.00  0.00    +0.006 C 
ATOM      9  C   UNL     1       2.567  -2.443   2.041  0.00  0.00    +0.000 C 
ATOM     10  C   UNL     1       3.760  -2.665   2.973  0.00  0.00    +0.003 C 
ATOM     11  C   UNL     1       3.453  -2.060   4.345  0.00  0.00    +0.035 C 
ATOM     12  C   UNL     1       3.174  -0.568   4.195  0.00  0.00    +0.115 C 
ATOM     13  C   UNL     1       4.407   0.152   3.700  0.00  0.00    +0.247 C 
ATOM     14  O   UNL     1       4.989  -0.025   2.651  0.00  0.00    -0.273 OA
ATOM     15  N   UNL     1       4.724   1.033   4.671  0.00  0.00    -0.215 N 
ATOM     16  C   UNL     1       3.867   0.965   5.697  0.00  0.00    +0.310 C 
ATOM     17  O   UNL     1       3.946   1.661   6.691  0.00  0.00    -0.252 OA
ATOM     18  N   UNL     1       2.908   0.039   5.505  0.00  0.00    -0.285 N 
ATOM     19  H   UNL     1       2.184  -0.182   6.112  0.00  0.00    +0.151 HD
ENDBRANCH   5  15
ENDBRANCH   1   5
BRANCH   3  20
ATOM     20  C   UNL     1       5.907   5.502   3.182  0.00  0.00    +0.123 C 
BRANCH  20  21
ATOM     21  C   UNL     1       7.098   6.460   3.119  0.00  0.00    +0.136 C 
BRANCH  21  22
ATOM     22  N   UNL     1       6.680   7.718   2.495  0.00  0.00    -0.227 N 
ATOM     23  C   UNL     1       6.775   7.851   1.183  0.00  0.00    +0.260 C 
ATOM     24  O   UNL     1       7.199   6.955   0.478  0.00  0.00    -0.269 OA
ATOM     25  C   UNL     1       6.337   9.144   0.616  0.00  0.00    +0.080 C 
ATOM     26  C   UNL     1       6.319   9.560  -0.674  0.00  0.00    +0.028 C 
ATOM     27  S   UNL     1       5.838  10.008   2.099  0.00  0.00    -0.026 S 
ATOM     28  C   UNL     1       6.204   8.712   3.272  0.00  0.00    +0.286 C 
ATOM     29  O   UNL     1       6.059   8.724   4.479  0.00  0.00    -0.262 OA
BRANCH  26  30
ATOM     30  C   UNL     1       6.015  10.964  -0.990  0.00  0.00    -0.024 A 
ATOM     31  C   UNL     1       5.928  11.912   0.035  0.00  0.00    +0.008 A 
ATOM     32  C   UNL     1       5.643  13.226  -0.269  0.00  0.00    +0.001 A 
ATOM     33  C   UNL     1       5.442  13.608  -1.585  0.00  0.00    +0.000 A 
ATOM     34  C   UNL     1       5.526  12.676  -2.604  0.00  0.00    +0.001 A 
ATOM     35  C   UNL     1       5.815  11.359  -2.317  0.00  0.00    +0.008 A 
ENDBRANCH  26  30
ENDBRANCH  21  22
ENDBRANCH  20  21
ENDBRANCH   3  20
TORSDOF 6
