REMARK  Name = ZINC36378990
REMARK  9 active torsions:
REMARK  status: ('A' for Active; 'I' for Inactive)
REMARK    1  A    between atoms: C_1  and  C_2
REMARK    2  A    between atoms: C_5  and  O_31
REMARK    3  A    between atoms: C_9  and  C_30
REMARK    4  A    between atoms: C_11  and  O_29
REMARK    5  A    between atoms: C_13  and  C_28
REMARK    6  A    between atoms: C_19  and  O_26
REMARK    7  A    between atoms: C_22  and  C_25
REMARK    8  A    between atoms: O_26  and  C_27
REMARK    9  A    between atoms: O_31  and  C_32
REMARK                            x       y       z     vdW  Elec       q    Type
REMARK                         _______ _______ _______ _____ _____    ______ ____
ROOT
ATOM      1  C   UNL     1      -0.120   0.910  -0.263  0.00  0.00    +0.048 C 
ATOM      2  C   UNL     1      -0.024  -0.587  -0.118  0.00  0.00    -0.001 A 
ATOM      3  C   UNL     1       0.040  -1.405  -1.215  0.00  0.00    +0.014 A 
ATOM      4  C   UNL     1       0.115  -2.808  -1.086  0.00  0.00    +0.108 A 
ATOM      5  C   UNL     1       0.155  -3.410   0.180  0.00  0.00    +0.141 A 
ATOM      6  C   UNL     1       0.103  -2.566   1.290  0.00  0.00    +0.037 A 
ATOM      7  C   UNL     1       0.009  -1.193   1.150  0.00  0.00    +0.131 A 
ATOM      8  O   UNL     1      -0.056  -0.358   2.227  0.00  0.00    -0.485 OA
ATOM      9  C   UNL     1       0.501  -0.883   3.447  0.00  0.00    +0.117 C 
ATOM     10  C   UNL     1       0.261   0.086   4.596  0.00  0.00    +0.116 C 
ATOM     11  C   UNL     1       0.846  -0.451   5.901  0.00  0.00    +0.204 C 
ATOM     12  C   UNL     1       1.021  -1.949   5.896  0.00  0.00    +0.165 C 
ATOM     13  C   UNL     1      -0.057  -2.681   5.137  0.00  0.00    +0.012 C 
ATOM     14  C   UNL     1      -0.233  -2.194   3.714  0.00  0.00    +0.046 C 
ATOM     15  C   UNL     1       0.158  -3.218   2.657  0.00  0.00    +0.050 C 
ATOM     16  C   UNL     1      -0.029  -4.199   5.227  0.00  0.00    +0.018 C 
ATOM     17  C   UNL     1       1.409  -4.724   5.291  0.00  0.00    +0.099 C 
ATOM     18  C   UNL     1       2.092  -3.851   6.372  0.00  0.00    +0.287 C 
ATOM     19  O   UNL     1       2.299  -2.563   5.697  0.00  0.00    -0.311 OA
ATOM     20  O   UNL     1       1.048  -3.632   7.388  0.00  0.00    -0.315 OA
ATOM     21  C   UNL     1       1.008  -2.236   7.441  0.00  0.00    +0.130 C 
ATOM     22  C   UNL     1       0.041  -1.249   7.985  0.00  0.00    +0.201 C 
ATOM     23  O   UNL     1      -0.071  -0.191   6.995  0.00  0.00    -0.343 OA
ATOM     24  C   UNL     1       2.392  -1.835   8.002  0.00  0.00    +0.047 C 
ATOM     25  C   UNL     1      -1.417  -2.345   5.771  0.00  0.00    +0.015 C 
ATOM     26  C   UNL     1       1.998  -1.086   3.220  0.00  0.00    +0.056 C 
ATOM     27  C   UNL     1       0.129  -3.378  -2.426  0.00  0.00    +0.343 C 
ATOM     28  O   UNL     1       0.201  -4.565  -2.680  0.00  0.00    -0.245 OA
ATOM     29  O   UNL     1       0.045  -2.395  -3.345  0.00  0.00    -0.456 OA
ATOM     30  C   UNL     1       0.051  -1.122  -2.684  0.00  0.00    +0.269 C 
ENDROOT
BRANCH  18  31
ATOM     31  O   UNL     1       3.284  -4.435   6.889  0.00  0.00    -0.330 OA
ATOM     32  C   UNL     1       4.315  -4.611   5.916  0.00  0.00    +0.200 C 
ENDBRANCH  18  31
BRANCH  11  33
ATOM     33  O   UNL     1       2.094   0.224   6.139  0.00  0.00    -0.362 OA
ATOM     34  H   UNL     1       2.014   1.185   6.210  0.00  0.00    +0.213 HD
ENDBRANCH  11  33
BRANCH   5  35
ATOM     35  O   UNL     1       0.240  -4.757   0.318  0.00  0.00    -0.494 OA
ATOM     36  C   UNL     1       1.551  -5.322   0.382  0.00  0.00    +0.277 C 
ENDBRANCH   5  35
TORSDOF 3
