REMARK  Name = ZINC39657744
REMARK  13 active torsions:
REMARK  status: ('A' for Active; 'I' for Inactive)
REMARK    1  A    between atoms: C_1  and  C_2
REMARK    2  A    between atoms: C_2  and  C_3
REMARK    3  A    between atoms: C_3  and  C_4
REMARK    4  A    between atoms: C_4  and  C_5
REMARK    5  A    between atoms: C_5  and  C_6
REMARK    6  A    between atoms: C_6  and  C_7
REMARK    7  A    between atoms: C_11  and  C_20
REMARK    8  A    between atoms: N_22  and  C_23
REMARK    9  A    between atoms: C_23  and  C_24
REMARK   10  A    between atoms: C_29  and  S_30
REMARK   11  A    between atoms: S_30  and  C_31
REMARK   12  A    between atoms: C_36  and  C_37
REMARK   13  A    between atoms: C_37  and  O_38
REMARK                            x       y       z     vdW  Elec       q    Type
REMARK                         _______ _______ _______ _____ _____    ______ ____
ROOT
ATOM      1  C   UNL     1       3.394 -10.031   3.890  0.00  0.00    +0.218 C 
ATOM      2  O   UNL     1       2.689 -10.698   4.617  0.00  0.00    -0.275 OA
ATOM      3  N   UNL     1       3.153  -9.996   2.565  0.00  0.00    -0.311 N 
ATOM      4  H   UNL     1       3.716  -9.462   1.983  0.00  0.00    +0.149 HD
ENDROOT
BRANCH   1   9
ATOM      5  C   UNL     1       5.844  -7.824   7.536  0.00  0.00    +0.216 C 
ATOM      6  O   UNL     1       6.873  -8.047   8.137  0.00  0.00    -0.276 OA
ATOM      7  N   UNL     1       5.366  -8.729   6.659  0.00  0.00    -0.300 N 
ATOM      8  C   UNL     1       4.139  -8.634   5.833  0.00  0.00    +0.121 C 
ATOM      9  C   UNL     1       4.539  -9.241   4.469  0.00  0.00    +0.100 C 
ATOM     10  C   UNL     1       5.726 -10.167   4.784  0.00  0.00    -0.004 C 
ATOM     11  C   UNL     1       5.953 -10.042   6.297  0.00  0.00    +0.115 C 
ATOM     12  C   UNL     1       6.970  -9.706   4.030  0.00  0.00    -0.010 C 
ATOM     13  C   UNL     1       8.121 -10.675   4.315  0.00  0.00    -0.082 C 
ATOM     14  N   UNL     1       7.741 -12.028   3.891  0.00  0.00    +0.379 N 
ATOM     15  C   UNL     1       6.600 -12.499   4.685  0.00  0.00    -0.082 C 
ATOM     16  C   UNL     1       5.385 -11.608   4.417  0.00  0.00    -0.010 C 
ATOM     17  H   UNL     1       7.486 -12.014   2.915  0.00  0.00    -0.086 HD
ATOM     18  H   UNL     1       8.522 -12.652   4.023  0.00  0.00    -0.086 HD
BRANCH   5  19
ATOM     19  C   UNL     1       5.098  -6.536   7.770  0.00  0.00    +0.096 C 
BRANCH  19  20
ATOM     20  C   UNL     1       5.848  -5.693   8.803  0.00  0.00    +0.009 C 
BRANCH  20  21
ATOM     21  C   UNL     1       5.091  -4.385   9.041  0.00  0.00    +0.000 C 
BRANCH  21  22
ATOM     22  C   UNL     1       5.841  -3.542  10.075  0.00  0.00    -0.000 C 
BRANCH  22  24
ATOM     23  C   UNL     1       5.834  -1.391  11.346  0.00  0.00    +0.004 C 
ATOM     24  C   UNL     1       5.084  -2.234  10.312  0.00  0.00    -0.003 C 
ENDBRANCH  22  24
ENDBRANCH  21  22
ENDBRANCH  20  21
ENDBRANCH  19  20
ENDBRANCH   5  19
ENDBRANCH   1   9
BRANCH   3  25
ATOM     25  C   UNL     1       2.039 -10.764   2.002  0.00  0.00    +0.140 C 
BRANCH  25  26
ATOM     26  C   UNL     1       1.987 -10.554   0.510  0.00  0.00    -0.017 A 
ATOM     27  C   UNL     1       1.088  -9.657  -0.031  0.00  0.00    +0.006 A 
ATOM     28  C   UNL     1       1.040  -9.464  -1.399  0.00  0.00    +0.000 A 
ATOM     29  C   UNL     1       1.891 -10.169  -2.231  0.00  0.00    +0.001 A 
ATOM     30  C   UNL     1       2.793 -11.068  -1.697  0.00  0.00    +0.015 A 
ATOM     31  C   UNL     1       2.848 -11.260  -0.321  0.00  0.00    +0.017 A 
BRANCH  31  32
ATOM     32  S   UNL     1       4.002 -12.401   0.365  0.00  0.00    -0.089 S 
BRANCH  32  33
ATOM     33  C   UNL     1       4.972 -12.909  -1.015  0.00  0.00    +0.018 A 
ATOM     34  C   UNL     1       5.855 -12.018  -1.613  0.00  0.00    +0.015 A 
ATOM     35  C   UNL     1       6.613 -12.420  -2.694  0.00  0.00    +0.001 A 
ATOM     36  C   UNL     1       6.494 -13.709  -3.183  0.00  0.00    +0.000 A 
ATOM     37  C   UNL     1       5.617 -14.598  -2.591  0.00  0.00    +0.007 A 
ATOM     38  C   UNL     1       4.860 -14.205  -1.505  0.00  0.00    -0.008 A 
BRANCH  38  39
ATOM     39  C   UNL     1       3.909 -15.177  -0.856  0.00  0.00    +0.192 C 
BRANCH  39  40
ATOM     40  O   UNL     1       3.974 -16.433  -1.536  0.00  0.00    -0.390 OA
ATOM     41  H   UNL     1       3.387 -17.109  -1.171  0.00  0.00    +0.210 HD
ENDBRANCH  39  40
ENDBRANCH  38  39
ENDBRANCH  32  33
ENDBRANCH  31  32
ENDBRANCH  25  26
ENDBRANCH   3  25
TORSDOF 12
