REMARK  Name = ZINC47255253
REMARK  1 active torsions:
REMARK  status: ('A' for Active; 'I' for Inactive)
REMARK    1  A    between atoms: C_2  and  C_15
REMARK                            x       y       z     vdW  Elec       q    Type
REMARK                         _______ _______ _______ _____ _____    ______ ____
ROOT
ATOM      1  C   UNL     1       1.087   1.391  -1.206  0.00  0.00    +0.038 A 
ATOM      2  C   UNL     1       1.185   2.051   0.029  0.00  0.00    +0.056 A 
ATOM      3  C   UNL     1       1.300   1.293   1.195  0.00  0.00    +0.126 A 
ATOM      4  N   UNL     1       1.317  -0.023   1.139  0.00  0.00    -0.238 NA
ATOM      5  C   UNL     1       1.227  -0.671  -0.013  0.00  0.00    +0.140 A 
ATOM      6  C   UNL     1       1.109   0.022  -1.218  0.00  0.00    +0.082 A 
ATOM      7 CL   UNL     1       0.992  -0.843  -2.719  0.00  0.00    -0.080 Cl
ATOM      8  N   UNL     1       1.250  -2.056  -0.021  0.00  0.00    -0.304 N 
ATOM      9  C   UNL     1       2.515  -2.801  -0.141  0.00  0.00    +0.126 C 
ATOM     10  C   UNL     1       2.694  -3.646   1.121  0.00  0.00    +0.123 C 
ATOM     11  N   UNL     1       1.463  -4.354   1.447  0.00  0.00    -0.313 N 
ATOM     12  C   UNL     1       0.248  -3.991   1.033  0.00  0.00    +0.230 C 
ATOM     13  O   UNL     1      -0.710  -4.615   1.435  0.00  0.00    -0.274 OA
ATOM     14  C   UNL     1       0.014  -2.843   0.096  0.00  0.00    +0.202 C 
ATOM     15  H   UNL     1       1.532  -5.145   2.004  0.00  0.00    +0.149 HD
ENDROOT
BRANCH   2  16
ATOM     16  C   UNL     1       1.165   3.525   0.094  0.00  0.00    +0.243 C 
ATOM     17  O   UNL     1       1.065   4.176  -0.928  0.00  0.00    -0.270 OA
ATOM     18  N   UNL     1       1.260   4.148   1.285  0.00  0.00    -0.325 N 
ATOM     19  H   UNL     1       1.340   3.628   2.100  0.00  0.00    +0.145 HD
ATOM     20  H   UNL     1       1.247   5.117   1.327  0.00  0.00    +0.145 HD
ENDBRANCH   2  16
TORSDOF 1
