REMARK  Name = ZINC09414297
REMARK  8 active torsions:
REMARK  status: ('A' for Active; 'I' for Inactive)
REMARK    1  A    between atoms: C_1  and  C_2
REMARK    2  A    between atoms: C_2  and  C_3
REMARK    3  A    between atoms: C_3  and  N_4
REMARK    4  A    between atoms: C_5  and  C_7
REMARK    5  A    between atoms: N_10  and  C_18
REMARK    6  A    between atoms: C_18  and  C_19
REMARK    7  A    between atoms: N_21  and  C_22
REMARK    8  A    between atoms: C_23  and  C_30
REMARK                            x       y       z     vdW  Elec       q    Type
REMARK                         _______ _______ _______ _____ _____    ______ ____
ROOT
ATOM      1  C   UNL     1      -2.711   3.441  -6.810  0.00  0.00    +0.201 C 
ENDROOT
BRANCH   1   4
ATOM      2  C   UNL     1      -1.083   3.139 -10.185  0.00  0.00    +0.276 C 
ATOM      3  C   UNL     1      -2.174   3.500  -9.169  0.00  0.00    +0.160 C 
ATOM      4  N   UNL     1      -1.667   3.224  -7.820  0.00  0.00    -0.314 N 
ATOM      5  C   UNL     1      -1.126   1.938  -7.714  0.00  0.00    +0.073 A 
ATOM      6  C   UNL     1      -0.994   1.374  -6.449  0.00  0.00    +0.027 A 
ATOM      7  C   UNL     1      -0.462   0.109  -6.304  0.00  0.00    +0.002 A 
ATOM      8  C   UNL     1      -0.055  -0.604  -7.417  0.00  0.00    +0.004 A 
ATOM      9  C   UNL     1      -0.184  -0.052  -8.677  0.00  0.00    +0.047 A 
ATOM     10  C   UNL     1      -0.721   1.218  -8.831  0.00  0.00    +0.143 A 
ATOM     11  O   UNL     1      -0.838   1.732 -10.086  0.00  0.00    -0.476 OA
BRANCH   2  13
ATOM     12  N   UNL     1      -1.774   4.763 -11.918  0.00  0.00    -0.312 N 
ATOM     13  C   UNL     1      -1.550   3.478 -11.577  0.00  0.00    +0.255 C 
ATOM     14  O   UNL     1      -1.724   2.595 -12.391  0.00  0.00    -0.272 OA
ATOM     15  H   UNL     1      -1.635   5.468 -11.268  0.00  0.00    +0.149 HD
BRANCH  12  16
ATOM     16  C   UNL     1      -2.228   5.093 -13.271  0.00  0.00    +0.104 C 
BRANCH  16  18
ATOM     17  C   UNL     1      -2.880   6.952 -14.808  0.00  0.00    +0.005 C 
ATOM     18  C   UNL     1      -2.405   6.607 -13.395  0.00  0.00    +0.015 C 
ENDBRANCH  16  18
ENDBRANCH  12  16
ENDBRANCH   2  13
ENDBRANCH   1   4
BRANCH   1  19
ATOM     19  C   UNL     1      -3.763   2.369  -6.936  0.00  0.00    +0.235 C 
ATOM     20  O   UNL     1      -3.705   1.566  -7.844  0.00  0.00    -0.274 OA
ATOM     21  N   UNL     1      -4.768   2.301  -6.041  0.00  0.00    -0.278 N 
ATOM     22  H   UNL     1      -4.814   2.943  -5.315  0.00  0.00    +0.155 HD
BRANCH  21  23
ATOM     23  C   UNL     1      -5.735   1.315  -6.157  0.00  0.00    +0.084 A 
ATOM     24  C   UNL     1      -6.832   1.086  -5.345  0.00  0.00    +0.068 A 
ATOM     25  C   UNL     1      -7.709  -0.033  -5.690  0.00  0.00    -0.023 A 
ATOM     26  C   UNL     1      -7.342  -0.731  -6.779  0.00  0.00    -0.004 A 
ATOM     27  S   UNL     1      -5.864   0.070  -7.353  0.00  0.00    -0.077 S 
ATOM     28  C   UNL     1      -8.288  -1.865  -7.068  0.00  0.00    +0.043 C 
ATOM     29  C   UNL     1      -9.077  -2.060  -5.755  0.00  0.00    +0.010 C 
ATOM     30  C   UNL     1      -8.989  -0.652  -5.126  0.00  0.00    +0.037 C 
BRANCH  24  31
ATOM     31  C   UNL     1      -7.106   1.935  -4.181  0.00  0.00    +0.244 C 
ATOM     32  O   UNL     1      -7.800   2.927  -4.301  0.00  0.00    -0.270 OA
ATOM     33  N   UNL     1      -6.590   1.615  -2.978  0.00  0.00    -0.325 N 
ATOM     34  H   UNL     1      -6.037   0.824  -2.882  0.00  0.00    +0.145 HD
ATOM     35  H   UNL     1      -6.771   2.177  -2.208  0.00  0.00    +0.145 HD
ENDBRANCH  24  31
ENDBRANCH  21  23
ENDBRANCH   1  19
TORSDOF 7
