REMARK  Name = ZINC22449016
REMARK  9 active torsions:
REMARK  status: ('A' for Active; 'I' for Inactive)
REMARK    1  A    between atoms: C_1  and  C_2
REMARK    2  A    between atoms: C_2  and  C_3
REMARK    3  A    between atoms: C_3  and  C_4
REMARK    4  A    between atoms: C_4  and  C_5
REMARK    5  A    between atoms: C_5  and  C_6
REMARK    6  A    between atoms: C_6  and  C_7
REMARK    7  A    between atoms: C_8  and  C_28
REMARK    8  A    between atoms: C_18  and  C_21
REMARK    9  A    between atoms: C_21  and  C_22
REMARK                            x       y       z     vdW  Elec       q    Type
REMARK                         _______ _______ _______ _____ _____    ______ ____
ROOT
ATOM      1  C   UNL     1       0.000   1.080   2.488  0.00  0.00    +0.038 A 
ATOM      2  C   UNL     1       0.934   1.860   3.105  0.00  0.00    +0.050 A 
ATOM      3  N   UNL     1       1.569   1.412   4.186  0.00  0.00    -0.221 NA
ATOM      4  C   UNL     1       1.324   0.214   4.678  0.00  0.00    +0.198 A 
ATOM      5  N   UNL     1       0.408  -0.610   4.102  0.00  0.00    -0.295 N 
ATOM      6  H   UNL     1       0.218  -1.606   4.528  0.00  0.00    +0.172 HD
ATOM      7  C   UNL     1      -0.267  -0.200   3.006  0.00  0.00    +0.256 A 
ATOM      8  O   UNL     1      -1.092  -0.925   2.476  0.00  0.00    -0.267 OA
ATOM      9  N   UNL     1       2.004  -0.209   5.789  0.00  0.00    -0.301 N 
ATOM     10  C   UNL     1       1.079  -0.716   6.811  0.00  0.00    +0.108 C 
ATOM     11  C   UNL     1       1.878  -1.312   7.972  0.00  0.00    +0.023 C 
ATOM     12  C   UNL     1       2.785  -0.232   8.569  0.00  0.00    -0.004 C 
ATOM     13  C   UNL     1       3.705   0.313   7.472  0.00  0.00    +0.023 C 
ATOM     14  C   UNL     1       2.853   0.862   6.325  0.00  0.00    +0.108 C 
ATOM     15  C   UNL     1       1.244   3.233   2.566  0.00  0.00    +0.066 C 
ENDROOT
BRANCH   1  16
ATOM     16  C   UNL     1      -0.729   1.579   1.267  0.00  0.00    +0.042 C 
BRANCH  16  17
ATOM     17  C   UNL     1      -0.013   1.086   0.008  0.00  0.00    +0.005 C 
BRANCH  17  18
ATOM     18  C   UNL     1      -0.753   1.593  -1.232  0.00  0.00    +0.000 C 
BRANCH  18  19
ATOM     19  C   UNL     1      -0.037   1.099  -2.490  0.00  0.00    -0.000 C 
BRANCH  19  21
ATOM     20  C   UNL     1      -0.060   1.113  -4.989  0.00  0.00    +0.004 C 
ATOM     21  C   UNL     1      -0.777   1.606  -3.730  0.00  0.00    -0.003 C 
ENDBRANCH  19  21
ENDBRANCH  18  19
ENDBRANCH  17  18
ENDBRANCH  16  17
ENDBRANCH   1  16
BRANCH  12  22
ATOM     22  C   UNL     1       3.631  -0.836   9.692  0.00  0.00    +0.038 C 
BRANCH  22  23
ATOM     23  C   UNL     1       2.732  -1.261  10.824  0.00  0.00    -0.047 A 
ATOM     24  C   UNL     1       2.438  -0.374  11.843  0.00  0.00    +0.003 A 
ATOM     25  C   UNL     1       1.610  -0.763  12.880  0.00  0.00    +0.000 A 
ATOM     26  C   UNL     1       1.084  -2.041  12.902  0.00  0.00    +0.000 A 
ATOM     27  C   UNL     1       1.382  -2.929  11.886  0.00  0.00    +0.000 A 
ATOM     28  C   UNL     1       2.206  -2.539  10.847  0.00  0.00    +0.003 A 
ENDBRANCH  22  23
ENDBRANCH  12  22
TORSDOF 7
