REMARK  Name = ZINC20289195
REMARK  8 active torsions:
REMARK  status: ('A' for Active; 'I' for Inactive)
REMARK    1  A    between atoms: C_1  and  C_2
REMARK    2  A    between atoms: C_7  and  C_8
REMARK    3  A    between atoms: C_8  and  O_9
REMARK    4  A    between atoms: O_9  and  C_10
REMARK    5  A    between atoms: C_13  and  C_18
REMARK    6  A    between atoms: C_15  and  O_16
REMARK    7  A    between atoms: O_16  and  C_17
REMARK    8  A    between atoms: C_30  and  C_31
REMARK                            x       y       z     vdW  Elec       q    Type
REMARK                         _______ _______ _______ _____ _____    ______ ____
ROOT
ATOM      1  C   UNL     1       0.069   1.227   8.767  0.00  0.00    +0.025 C 
ATOM      2  C   UNL     1       0.151   2.589   8.952  0.00  0.00    +0.085 A 
ATOM      3  C   UNL     1       0.277   3.192  10.310  0.00  0.00    +0.160 A 
ATOM      4  N   UNL     1       0.917   2.619  11.294  0.00  0.00    -0.281 NA
ATOM      5  N   UNL     1      -0.363   4.443  10.425  0.00  0.00    -0.212 N 
ATOM      6  C   UNL     1      -0.540   5.180   9.270  0.00  0.00    +0.199 A 
ATOM      7  N   UNL     1      -0.296   4.801   8.045  0.00  0.00    -0.182 NA
ATOM      8  C   UNL     1       0.126   3.536   7.811  0.00  0.00    +0.283 A 
ATOM      9  O   UNL     1       0.471   3.184   6.696  0.00  0.00    -0.265 OA
ATOM     10  S   UNL     1      -1.174   6.724   9.869  0.00  0.00    -0.031 S 
ATOM     11  C   UNL     1      -1.292   6.290  11.598  0.00  0.00    +0.101 A 
ATOM     12  N   UNL     1      -0.820   4.996  11.604  0.00  0.00    -0.283 N 
ATOM     13  C   UNL     1      -1.734   7.046  12.644  0.00  0.00    +0.102 C 
ATOM     14  H   UNL     1       0.968   3.056  12.159  0.00  0.00    +0.188 HD
ATOM     15  H   UNL     1      -0.809   4.480  12.425  0.00  0.00    +0.188 HD
ENDROOT
BRANCH  13  16
ATOM     16  C   UNL     1      -1.745   6.512  13.942  0.00  0.00    +0.242 C 
ATOM     17  O   UNL     1      -1.359   5.372  14.135  0.00  0.00    -0.271 OA
ATOM     18  N   UNL     1      -2.183   7.259  14.975  0.00  0.00    -0.298 N 
ATOM     19  C   UNL     1      -2.680   8.639  14.884  0.00  0.00    +0.108 C 
ATOM     20  C   UNL     1      -3.042   9.091  16.315  0.00  0.00    +0.020 C 
ATOM     21  C   UNL     1      -2.198   8.140  17.203  0.00  0.00    +0.020 C 
ATOM     22  C   UNL     1      -2.248   6.824  16.383  0.00  0.00    +0.108 C 
ENDBRANCH  13  16
BRANCH   1  26
ATOM     23  C   UNL     1      -0.815  -0.337   4.927  0.00  0.00    +0.162 A 
ATOM     24  C   UNL     1      -1.429   0.833   5.358  0.00  0.00    +0.050 A 
ATOM     25  C   UNL     1      -1.146   1.345   6.604  0.00  0.00    +0.012 A 
ATOM     26  C   UNL     1      -0.235   0.685   7.441  0.00  0.00    -0.021 A 
ATOM     27  C   UNL     1       0.383  -0.495   7.005  0.00  0.00    +0.057 A 
ATOM     28  C   UNL     1       0.088  -1.003   5.756  0.00  0.00    +0.162 A 
BRANCH  28  29
ATOM     29  O   UNL     1       0.681  -2.151   5.332  0.00  0.00    -0.491 OA
ATOM     30  C   UNL     1       1.595  -2.780   6.232  0.00  0.00    +0.277 C 
ENDBRANCH  28  29
BRANCH  23  31
ATOM     31  O   UNL     1      -1.099  -0.837   3.697  0.00  0.00    -0.484 OA
BRANCH  31  32
ATOM     32  C   UNL     1      -2.033  -0.105   2.899  0.00  0.00    +0.265 C 
BRANCH  32  39
ATOM     33  C   UNL     1      -3.836   0.994   0.927  0.00  0.00    +0.044 C 
ATOM     34  C   UNL     1      -3.084  -0.279   0.635  0.00  0.00    -0.044 A 
ATOM     35  C   UNL     1      -3.253  -0.918  -0.579  0.00  0.00    +0.004 A 
ATOM     36  C   UNL     1      -2.564  -2.086  -0.848  0.00  0.00    +0.000 A 
ATOM     37  C   UNL     1      -1.705  -2.615   0.098  0.00  0.00    +0.000 A 
ATOM     38  C   UNL     1      -1.535  -1.975   1.312  0.00  0.00    +0.007 A 
ATOM     39  C   UNL     1      -2.221  -0.805   1.578  0.00  0.00    -0.007 A 
ENDBRANCH  32  39
ENDBRANCH  31  32
ENDBRANCH  23  31
ENDBRANCH   1  26
TORSDOF 6
