REMARK  Name = ZINC19759729
REMARK  5 active torsions:
REMARK  status: ('A' for Active; 'I' for Inactive)
REMARK    1  A    between atoms: C_1  and  C_2
REMARK    2  A    between atoms: C_3  and  C_8
REMARK    3  A    between atoms: N_14  and  C_20
REMARK    4  A    between atoms: C_16  and  C_19
REMARK    5  A    between atoms: C_20  and  C_21
REMARK                            x       y       z     vdW  Elec       q    Type
REMARK                         _______ _______ _______ _____ _____    ______ ____
ROOT
ATOM      1  C   UNL     1      -4.072   1.043   0.104  0.00  0.00    +0.003 A 
ATOM      2  C   UNL     1      -4.714   0.641   1.274  0.00  0.00    +0.014 A 
ATOM      3  C   UNL     1      -3.994   0.517   2.445  0.00  0.00    +0.048 A 
ATOM      4  C   UNL     1      -2.633   0.793   2.466  0.00  0.00    +0.142 A 
ATOM      5  C   UNL     1      -1.987   1.199   1.303  0.00  0.00    +0.073 A 
ATOM      6  C   UNL     1      -2.709   1.322   0.122  0.00  0.00    +0.037 A 
ATOM      7  N   UNL     1      -0.619   1.492   1.283  0.00  0.00    -0.320 N 
ATOM      8  C   UNL     1       0.092   0.894   2.418  0.00  0.00    +0.149 C 
ATOM      9  C   UNL     1      -0.658   1.251   3.708  0.00  0.00    +0.188 C 
ATOM     10  O   UNL     1      -1.958   0.655   3.640  0.00  0.00    -0.486 OA
ATOM     11  C   UNL     1       0.102   0.703   4.918  0.00  0.00    +0.053 C 
ENDROOT
BRANCH   1  14
ATOM     12  C   UNL     1      -6.405  -0.832  -0.617  0.00  0.00    +0.054 C 
ATOM     13  C   UNL     1      -5.868   0.317  -1.432  0.00  0.00    +0.016 A 
ATOM     14  C   UNL     1      -4.841   1.175  -1.157  0.00  0.00    +0.083 A 
ATOM     15  N   UNL     1      -4.541   2.133  -2.031  0.00  0.00    -0.225 NA
ATOM     16  C   UNL     1      -5.212   2.260  -3.162  0.00  0.00    +0.156 A 
ATOM     17  S   UNL     1      -6.401   0.933  -3.023  0.00  0.00    -0.057 S 
ATOM     18  N   UNL     1      -5.042   3.181  -4.182  0.00  0.00    -0.338 N 
ATOM     19  H   UNL     1      -5.694   3.148  -5.067  0.00  0.00    +0.144 HD
ATOM     20  H   UNL     1      -4.255   3.946  -4.108  0.00  0.00    +0.144 HD
ENDBRANCH   1  14
BRANCH   7  21
ATOM     21  C   UNL     1      -0.013   1.086   0.008  0.00  0.00    +0.132 C 
BRANCH  21  22
ATOM     22  C   UNL     1      -0.222  -0.392  -0.199  0.00  0.00    -0.016 C 
ATOM     23  C   UNL     1       0.805  -1.174  -0.422  0.00  0.00    +0.005 C 
ENDBRANCH  21  22
ENDBRANCH   7  21
TORSDOF 3
