REMARK  Name = ZINC39933402
REMARK  7 active torsions:
REMARK  status: ('A' for Active; 'I' for Inactive)
REMARK    1  A    between atoms: C_1  and  C_2
REMARK    2  A    between atoms: C_6  and  C_8
REMARK    3  A    between atoms: C_9  and  C_19
REMARK    4  A    between atoms: N_11  and  C_13
REMARK    5  A    between atoms: C_20  and  C_21
REMARK    6  A    between atoms: C_21  and  C_23
REMARK    7  A    between atoms: C_24  and  C_31
REMARK                            x       y       z     vdW  Elec       q    Type
REMARK                         _______ _______ _______ _____ _____    ______ ____
ROOT
ATOM      1  C   UNL     1       1.415  -3.157   2.405  0.00  0.00    +0.056 C 
ATOM      2  C   UNL     1       1.019  -4.471   2.512  0.00  0.00    -0.005 C 
ATOM      3  C   UNL     1       0.959  -4.786   3.991  0.00  0.00    +0.164 C 
ATOM      4  N   UNL     1       1.354  -3.534   4.655  0.00  0.00    -0.249 N 
ATOM      5  N   UNL     1       1.617  -2.605   3.642  0.00  0.00    -0.263 N 
ATOM      6  H   UNL     1       1.902  -1.690   3.795  0.00  0.00    +0.170 HD
ENDROOT
BRANCH   1  12
ATOM      7  C   UNL     1      -0.226  -1.956  -2.151  0.00  0.00    +0.044 C 
ATOM      8  C   UNL     1       0.816  -1.861  -1.067  0.00  0.00    -0.050 A 
ATOM      9  C   UNL     1       1.955  -1.099  -1.269  0.00  0.00    +0.003 A 
ATOM     10  C   UNL     1       2.917  -1.006  -0.279  0.00  0.00    +0.001 A 
ATOM     11  C   UNL     1       2.748  -1.671   0.917  0.00  0.00    +0.010 A 
ATOM     12  C   UNL     1       1.602  -2.442   1.128  0.00  0.00    -0.002 A 
ATOM     13  C   UNL     1       0.631  -2.527   0.126  0.00  0.00    +0.013 A 
ENDBRANCH   1  12
BRANCH   4  14
ATOM     14  C   UNL     1       1.452  -3.315   6.031  0.00  0.00    +0.048 A 
ATOM     15  C   UNL     1       1.166  -4.343   6.921  0.00  0.00    +0.025 A 
ATOM     16  C   UNL     1       1.265  -4.124   8.281  0.00  0.00    +0.002 A 
ATOM     17  C   UNL     1       1.646  -2.883   8.757  0.00  0.00    +0.000 A 
ATOM     18  C   UNL     1       1.930  -1.857   7.874  0.00  0.00    +0.002 A 
ATOM     19  C   UNL     1       1.840  -2.071   6.513  0.00  0.00    +0.025 A 
ENDBRANCH   4  14
BRANCH   2  20
ATOM     20  C   UNL     1       0.729  -5.346   1.458  0.00  0.00    +0.011 C 
ATOM     21  C   UNL     1       0.330  -6.624   1.722  0.00  0.00    +0.052 C 
BRANCH  21  22
ATOM     22  C   UNL     1       0.038  -7.505   0.661  0.00  0.00    +0.193 C 
ATOM     23  O   UNL     1       0.215  -7.150  -0.492  0.00  0.00    -0.287 OA
BRANCH  22  24
ATOM     24  C   UNL     1      -0.483  -8.854   0.946  0.00  0.00    +0.105 A 
ATOM     25  C   UNL     1      -0.897  -9.676  -0.069  0.00  0.00    +0.033 A 
ATOM     26  N   UNL     1      -1.373 -10.915   0.227  0.00  0.00    -0.311 N 
ATOM     27  C   UNL     1      -1.446 -11.355   1.493  0.00  0.00    +0.327 A 
ATOM     28  O   UNL     1      -1.879 -12.470   1.706  0.00  0.00    -0.247 OA
ATOM     29  N   UNL     1      -1.055 -10.597   2.533  0.00  0.00    -0.274 N 
ATOM     30  C   UNL     1      -0.565  -9.357   2.326  0.00  0.00    +0.265 A 
ATOM     31  O   UNL     1      -0.204  -8.666   3.261  0.00  0.00    -0.267 OA
ATOM     32  C   UNL     1      -0.828  -9.210  -1.500  0.00  0.00    +0.064 C 
ATOM     33  H   UNL     1      -1.121 -10.945   3.436  0.00  0.00    +0.173 HD
ATOM     34  H   UNL     1      -1.665 -11.495  -0.494  0.00  0.00    +0.170 HD
ENDBRANCH  22  24
ENDBRANCH  21  22
ENDBRANCH   2  20
TORSDOF 5
