REMARK  Name = ZINC44699188
REMARK  7 active torsions:
REMARK  status: ('A' for Active; 'I' for Inactive)
REMARK    1  A    between atoms: C_1  and  C_2
REMARK    2  A    between atoms: C_4  and  O_5
REMARK    3  A    between atoms: C_14  and  C_16
REMARK    4  A    between atoms: C_16  and  C_17
REMARK    5  A    between atoms: C_17  and  C_18
REMARK    6  A    between atoms: C_18  and  C_19
REMARK    7  A    between atoms: C_19  and  C_20
REMARK                            x       y       z     vdW  Elec       q    Type
REMARK                         _______ _______ _______ _____ _____    ______ ____
ROOT
ATOM      1  C   UNL     1       0.308   1.444  -0.040  0.00  0.00    +0.045 C 
ATOM      2  C   UNL     1      -0.134   0.004   0.011  0.00  0.00    -0.033 A 
ATOM      3  C   UNL     1      -0.600  -0.632  -1.122  0.00  0.00    +0.091 A 
ATOM      4  C   UNL     1      -1.002  -1.958  -1.056  0.00  0.00    +0.285 A 
ATOM      5  O   UNL     1      -0.949  -2.646   0.091  0.00  0.00    -0.425 OA
ATOM      6  C   UNL     1      -0.501  -2.073   1.227  0.00  0.00    +0.141 A 
ATOM      7  C   UNL     1      -0.073  -0.726   1.217  0.00  0.00    +0.021 A 
ATOM      8  C   UNL     1       0.399  -0.128   2.398  0.00  0.00    +0.013 A 
ATOM      9  C   UNL     1       0.449  -0.847   3.550  0.00  0.00    +0.024 A 
ATOM     10  C   UNL     1       0.031  -2.190   3.568  0.00  0.00    +0.037 A 
ATOM     11  C   UNL     1      -0.451  -2.795   2.406  0.00  0.00    +0.070 A 
ATOM     12  N   UNL     1       0.086  -2.900   4.729  0.00  0.00    -0.285 N 
ATOM     13  C   UNL     1       0.004  -4.216   4.701  0.00  0.00    +0.217 C 
ATOM     14  O   UNL     1       0.002  -4.804   3.633  0.00  0.00    -0.275 OA
ATOM     15  H   UNL     1       0.185  -2.438   5.576  0.00  0.00    +0.155 HD
ENDROOT
BRANCH   4  16
ATOM     16  O   UNL     1      -1.456  -2.567  -2.168  0.00  0.00    -0.480 OA
ATOM     17  H   UNL     1      -1.714  -3.489  -2.035  0.00  0.00    +0.295 HD
ENDBRANCH   4  16
BRANCH  13  18
ATOM     18  C   UNL     1      -0.086  -4.993   5.989  0.00  0.00    +0.096 C 
BRANCH  18  19
ATOM     19  C   UNL     1      -0.170  -6.489   5.677  0.00  0.00    +0.009 C 
BRANCH  19  20
ATOM     20  C   UNL     1      -0.262  -7.277   6.985  0.00  0.00    +0.002 C 
BRANCH  20  21
ATOM     21  C   UNL     1      -0.346  -8.773   6.674  0.00  0.00    +0.016 C 
BRANCH  21  22
ATOM     22  C   UNL     1      -0.438  -9.562   7.982  0.00  0.00    +0.069 C 
ATOM     23  C   UNL     1      -0.533 -11.063   7.725  0.00  0.00    +0.108 C 
ATOM     24  C   UNL     1      -0.190 -11.740   9.088  0.00  0.00    +0.105 C 
ATOM     25  C   UNL     1       1.190 -11.300   9.507  0.00  0.00    +0.093 C 
ATOM     26  S   UNL     1       1.170  -9.535   8.909  0.00  0.00    -0.154 S 
ATOM     27  N   UNL     1      -0.602 -13.088   8.829  0.00  0.00    -0.294 N 
ATOM     28  C   UNL     1      -1.667 -12.976   7.978  0.00  0.00    +0.300 C 
ATOM     29  O   UNL     1      -2.425 -13.892   7.722  0.00  0.00    -0.253 OA
ATOM     30  N   UNL     1      -1.790 -11.725   7.460  0.00  0.00    -0.294 N 
ATOM     31  H   UNL     1      -0.209 -13.903   9.179  0.00  0.00    +0.151 HD
ATOM     32  H   UNL     1      -2.563 -11.357   7.004  0.00  0.00    +0.151 HD
ENDBRANCH  21  22
ENDBRANCH  20  21
ENDBRANCH  19  20
ENDBRANCH  18  19
ENDBRANCH  13  18
TORSDOF 6
