REMARK  Name = ZINC43726729
REMARK  11 active torsions:
REMARK  status: ('A' for Active; 'I' for Inactive)
REMARK    1  A    between atoms: C_1  and  C_2
REMARK    2  A    between atoms: C_2  and  C_4
REMARK    3  A    between atoms: C_2  and  C_10
REMARK    4  A    between atoms: C_4  and  C_5
REMARK    5  A    between atoms: C_5  and  C_6
REMARK    6  A    between atoms: C_6  and  O_8
REMARK    7  A    between atoms: O_8  and  C_9
REMARK    8  A    between atoms: C_16  and  C_37
REMARK    9  A    between atoms: C_23  and  O_36
REMARK   10  A    between atoms: C_25  and  O_35
REMARK   11  A    between atoms: C_29  and  C_34
REMARK                            x       y       z     vdW  Elec       q    Type
REMARK                         _______ _______ _______ _____ _____    ______ ____
ROOT
ATOM      1  C   UNL     1       1.438   0.231   2.018  0.00  0.00    -0.002 C 
ATOM      2  C   UNL     1       1.596  -1.278   1.759  0.00  0.00    +0.004 C 
ATOM      3  C   UNL     1       0.534  -1.989   2.629  0.00  0.00    +0.005 C 
ATOM      4  C   UNL     1      -0.527  -0.898   2.862  0.00  0.00    +0.001 C 
ATOM      5  C   UNL     1       0.309   0.378   3.073  0.00  0.00    -0.026 C 
ATOM      6  C   UNL     1       0.986   0.360   4.446  0.00  0.00    +0.007 C 
ATOM      7  C   UNL     1      -0.043   0.142   5.553  0.00  0.00    +0.005 C 
ATOM      8  C   UNL     1      -0.697  -1.228   5.350  0.00  0.00    +0.001 C 
ATOM      9  C   UNL     1      -1.435  -1.210   4.027  0.00  0.00    +0.027 C 
ATOM     10  C   UNL     1      -2.115  -2.566   3.828  0.00  0.00    +0.147 C 
ATOM     11  C   UNL     1      -3.091  -2.822   4.977  0.00  0.00    +0.147 C 
ATOM     12  C   UNL     1      -2.329  -2.822   6.304  0.00  0.00    +0.026 C 
ATOM     13  C   UNL     1      -1.672  -1.497   6.498  0.00  0.00    -0.024 C 
ATOM     14  C   UNL     1      -0.906  -1.515   7.823  0.00  0.00    +0.007 C 
ATOM     15  C   UNL     1       0.154  -2.618   7.785  0.00  0.00    +0.001 C 
ATOM     16  C   UNL     1      -0.526  -3.971   7.570  0.00  0.00    +0.000 C 
ATOM     17  C   UNL     1      -1.268  -3.924   6.284  0.00  0.00    +0.007 C 
ATOM     18  C   UNL     1      -2.732  -0.394   6.537  0.00  0.00    +0.012 C 
ATOM     19  C   UNL     1      -0.519   1.646   2.853  0.00  0.00    +0.012 C 
ENDROOT
BRANCH   1  21
ATOM     20  C   UNL     1       2.225   0.927  -0.249  0.00  0.00    +0.008 C 
ATOM     21  C   UNL     1       1.045   0.948   0.725  0.00  0.00    -0.010 C 
BRANCH  21  22
ATOM     22  C   UNL     1      -0.152   0.236   0.091  0.00  0.00    +0.014 C 
BRANCH  22  23
ATOM     23  C   UNL     1      -0.587   0.991  -1.167  0.00  0.00    +0.121 C 
BRANCH  23  24
ATOM     24  C   UNL     1      -1.766   0.291  -1.791  0.00  0.00    +0.307 C 
ATOM     25  O   UNL     1      -2.213  -0.710  -1.282  0.00  0.00    -0.251 OA
BRANCH  24  26
ATOM     26  O   UNL     1      -2.320   0.778  -2.912  0.00  0.00    -0.468 OA
ATOM     27  C   UNL     1      -3.434   0.063  -3.449  0.00  0.00    +0.280 C 
ENDBRANCH  24  26
ENDBRANCH  23  24
ENDBRANCH  22  23
ENDBRANCH  21  22
ENDBRANCH   1  21
BRANCH  11  28
ATOM     28  O   UNL     1      -4.083  -1.793   4.997  0.00  0.00    -0.389 OA
ATOM     29  H   UNL     1      -4.606  -1.735   4.186  0.00  0.00    +0.210 HD
ENDBRANCH  11  28
BRANCH  10  30
ATOM     30  O   UNL     1      -2.828  -2.564   2.589  0.00  0.00    -0.389 OA
ATOM     31  H   UNL     1      -3.284  -3.394   2.397  0.00  0.00    +0.210 HD
ENDBRANCH  10  30
TORSDOF 7
