REMARK  Name = ZINC12715302
REMARK  14 active torsions:
REMARK  status: ('A' for Active; 'I' for Inactive)
REMARK    1  A    between atoms: C_1  and  C_2
REMARK    2  A    between atoms: C_5  and  N_9
REMARK    3  A    between atoms: C_7  and  C_8
REMARK    4  A    between atoms: N_9  and  C_10
REMARK    5  A    between atoms: C_10  and  C_12
REMARK    6  A    between atoms: C_10  and  C_18
REMARK    7  A    between atoms: C_15  and  C_17
REMARK    8  A    between atoms: N_20  and  C_21
REMARK    9  A    between atoms: C_21  and  C_22
REMARK   10  A    between atoms: C_21  and  C_23
REMARK   11  A    between atoms: C_21  and  C_24
REMARK   12  A    between atoms: C_25  and  C_27
REMARK   13  A    between atoms: C_28  and  N_35
REMARK   14  A    between atoms: C_29  and  C_32
REMARK                            x       y       z     vdW  Elec       q    Type
REMARK                         _______ _______ _______ _____ _____    ______ ____
ROOT
ATOM      1  N   UNL     1       2.663   0.947   0.063  0.00  0.00    -0.248 N 
ATOM      2  C   UNL     1       2.965  -0.367   0.036  0.00  0.00    +0.262 C 
ATOM      3  O   UNL     1       4.124  -0.723  -0.075  0.00  0.00    -0.269 OA
ENDROOT
BRANCH   1   8
ATOM      4  C   UNL     1      -2.672   2.610   1.035  0.00  0.00    +0.044 C 
ATOM      5  C   UNL     1      -1.254   2.168   0.777  0.00  0.00    -0.047 A 
ATOM      6  C   UNL     1      -0.374   2.020   1.833  0.00  0.00    +0.005 A 
ATOM      7  C   UNL     1       0.925   1.615   1.600  0.00  0.00    +0.024 A 
ATOM      8  C   UNL     1       1.348   1.357   0.302  0.00  0.00    +0.038 A 
ATOM      9  C   UNL     1       0.462   1.507  -0.756  0.00  0.00    +0.027 A 
ATOM     10  C   UNL     1      -0.835   1.917  -0.517  0.00  0.00    -0.046 A 
ATOM     11  C   UNL     1      -1.795   2.085  -1.666  0.00  0.00    +0.044 C 
ENDBRANCH   1   8
BRANCH   2  12
ATOM     12  C   UNL     1       1.899  -1.365   0.140  0.00  0.00    +0.116 A 
ATOM     13  C   UNL     1       1.994  -2.756   0.212  0.00  0.00    +0.076 A 
ATOM     14  C   UNL     1       0.746  -3.372   0.307  0.00  0.00    +0.155 A 
ATOM     15  N   UNL     1      -0.339  -2.630   0.309  0.00  0.00    -0.203 NA
ATOM     16  S   UNL     1       0.135  -1.131   0.200  0.00  0.00    +0.019 S 
BRANCH  14  17
ATOM     17  C   UNL     1       0.644  -4.840   0.399  0.00  0.00    +0.262 C 
ATOM     18  O   UNL     1       1.652  -5.520   0.396  0.00  0.00    -0.269 OA
ATOM     19  N   UNL     1      -0.565  -5.428   0.485  0.00  0.00    -0.324 N 
ATOM     20  H   UNL     1      -1.369  -4.885   0.487  0.00  0.00    +0.145 HD
ATOM     21  H   UNL     1      -0.632  -6.394   0.545  0.00  0.00    +0.145 HD
ENDBRANCH  14  17
BRANCH  13  22
ATOM     22  N   UNL     1       3.197  -3.450   0.195  0.00  0.00    -0.355 N 
ATOM     23  H   UNL     1       4.035  -2.966   0.129  0.00  0.00    +0.142 HD
ATOM     24  H   UNL     1       3.199  -4.418   0.248  0.00  0.00    +0.142 HD
ENDBRANCH  13  22
ENDBRANCH   2  12
BRANCH   1  25
ATOM     25  C   UNL     1       3.713   1.944  -0.159  0.00  0.00    +0.233 C 
BRANCH  25  26
ATOM     26  C   UNL     1       3.721   2.927   0.984  0.00  0.00    +0.135 A 
ATOM     27  C   UNL     1       4.812   3.359   1.642  0.00  0.00    +0.047 A 
ATOM     28  C   UNL     1       4.362   4.266   2.629  0.00  0.00    +0.045 A 
ATOM     29  C   UNL     1       3.023   4.333   2.515  0.00  0.00    +0.102 A 
ATOM     30  O   UNL     1       2.641   3.525   1.513  0.00  0.00    -0.462 OA
ATOM     31  C   UNL     1       2.108   5.178   3.364  0.00  0.00    +0.086 C 
ENDBRANCH  25  26
BRANCH  25  32
ATOM     32  C   UNL     1       3.447   2.675  -1.449  0.00  0.00    +0.242 C 
ATOM     33  O   UNL     1       2.476   2.392  -2.118  0.00  0.00    -0.273 OA
ATOM     34  N   UNL     1       4.288   3.645  -1.860  0.00  0.00    -0.309 N 
ATOM     35  H   UNL     1       5.064   3.872  -1.325  0.00  0.00    +0.149 HD
BRANCH  34  36
ATOM     36  C   UNL     1       4.029   4.356  -3.114  0.00  0.00    +0.026 C 
ATOM     37  C   UNL     1       2.670   5.055  -3.033  0.00  0.00    +0.031 C 
ATOM     38  C   UNL     1       5.125   5.398  -3.346  0.00  0.00    +0.031 C 
ATOM     39  C   UNL     1       4.021   3.358  -4.274  0.00  0.00    +0.031 C 
ENDBRANCH  34  36
ENDBRANCH  25  32
ENDBRANCH   1  25
TORSDOF 8
