REMARK  Name = ZINC50563762
REMARK  7 active torsions:
REMARK  status: ('A' for Active; 'I' for Inactive)
REMARK    1  A    between atoms: C_1  and  C_2
REMARK    2  A    between atoms: C_5  and  N_22
REMARK    3  A    between atoms: C_6  and  S_9
REMARK    4  A    between atoms: C_7  and  C_8
REMARK    5  A    between atoms: S_9  and  N_12
REMARK    6  A    between atoms: C_16  and  C_21
REMARK    7  A    between atoms: C_18  and  C_20
REMARK                            x       y       z     vdW  Elec       q    Type
REMARK                         _______ _______ _______ _____ _____    ______ ____
ROOT
ATOM      1  C   UNL     1      -0.037   0.989  -0.556  0.00  0.00    +0.044 C 
ATOM      2  C   UNL     1       0.020  -0.509  -0.406  0.00  0.00    -0.046 A 
ATOM      3  C   UNL     1       0.273  -1.304  -1.509  0.00  0.00    +0.005 A 
ATOM      4  C   UNL     1       0.326  -2.677  -1.375  0.00  0.00    +0.025 A 
ATOM      5  C   UNL     1       0.125  -3.260  -0.130  0.00  0.00    +0.052 A 
ATOM      6  C   UNL     1      -0.129  -2.459   0.976  0.00  0.00    +0.129 A 
ATOM      7  C   UNL     1      -0.175  -1.086   0.836  0.00  0.00    -0.019 A 
ATOM      8  C   UNL     1      -0.444  -0.215   2.036  0.00  0.00    +0.046 C 
ENDROOT
BRANCH   6   9
ATOM      9  S   UNL     1      -0.385  -3.193   2.557  0.00  0.00    +0.063 S 
ATOM     10  O   UNL     1      -1.093  -2.240   3.337  0.00  0.00    -0.153 OA
ATOM     11  O   UNL     1      -0.881  -4.504   2.321  0.00  0.00    -0.153 OA
BRANCH   9  12
ATOM     12  N   UNL     1       1.103  -3.370   3.261  0.00  0.00    -0.173 NA
ATOM     13  C   UNL     1       1.940  -4.540   2.960  0.00  0.00    +0.110 C 
ATOM     14  C   UNL     1       3.318  -4.055   2.501  0.00  0.00    +0.017 C 
ATOM     15  C   UNL     1       3.904  -3.119   3.561  0.00  0.00    +0.006 C 
ATOM     16  C   UNL     1       2.994  -1.900   3.727  0.00  0.00    +0.005 C 
ATOM     17  C   UNL     1       1.614  -2.358   4.195  0.00  0.00    +0.080 C 
ATOM     18  C   UNL     1       1.727  -2.962   5.596  0.00  0.00    +0.026 C 
ATOM     19  C   UNL     1       3.598  -0.949   4.762  0.00  0.00    +0.009 C 
ENDBRANCH   9  12
ENDBRANCH   6   9
BRANCH   5  20
ATOM     20  N   UNL     1       0.177  -4.649   0.009  0.00  0.00    -0.356 N 
ATOM     21  H   UNL     1       0.150  -5.217  -0.777  0.00  0.00    +0.142 HD
ATOM     22  H   UNL     1       0.241  -5.046   0.892  0.00  0.00    +0.142 HD
ENDBRANCH   5  20
TORSDOF 3
