REMARK  Name = ZINC25525542
REMARK  3 active torsions:
REMARK  status: ('A' for Active; 'I' for Inactive)
REMARK    1  A    between atoms: C_5  and  C_6
REMARK    2  A    between atoms: C_6  and  N_7
REMARK    3  A    between atoms: C_8  and  C_10
REMARK                            x       y       z     vdW  Elec       q    Type
REMARK                         _______ _______ _______ _____ _____    ______ ____
ROOT
ATOM      1  N   UNL     1       1.143   1.903   0.001  0.00  0.00    -0.304 N 
ATOM      2  C   UNL     1      -0.014   1.213   0.009  0.00  0.00    +0.280 C 
ATOM      3  O   UNL     1       0.002  -0.004   0.002  0.00  0.00    -0.267 OA
ATOM      4  H   UNL     1       1.129   3.002   0.007  0.00  0.00    +0.149 HD
ENDROOT
BRANCH   2   5
ATOM      5  C   UNL     1      -1.293   1.928   0.019  0.00  0.00    +0.191 A 
ATOM      6  C   UNL     1      -2.533   1.355   0.021  0.00  0.00    +0.056 A 
ATOM      7  C   UNL     1      -3.463   2.405   0.032  0.00  0.00    +0.063 A 
ATOM      8  C   UNL     1      -2.759   3.561   0.035  0.00  0.00    +0.195 A 
ATOM      9  O   UNL     1      -1.452   3.269   0.033  0.00  0.00    -0.439 OA
ATOM     10 CL   UNL     1      -3.438   5.159   0.045  0.00  0.00    -0.043 Cl
ENDBRANCH   2   5
BRANCH   1  11
ATOM     11  C   UNL     1       2.422   1.188  -0.015  0.00  0.00    +0.147 C 
BRANCH  11  16
ATOM     12  C   UNL     1       4.205   2.740   1.030  0.00  0.00    +0.014 A 
ATOM     13  C   UNL     1       5.226   3.640   0.784  0.00  0.00    +0.028 A 
ATOM     14  C   UNL     1       5.545   3.937  -0.500  0.00  0.00    +0.078 A 
ATOM     15  S   UNL     1       4.390   2.926  -1.411  0.00  0.00    -0.080 S 
ATOM     16  C   UNL     1       3.554   2.182  -0.020  0.00  0.00    +0.008 A 
ATOM     17 CL   UNL     1       6.765   5.016  -1.101  0.00  0.00    -0.076 Cl
ENDBRANCH  11  16
ENDBRANCH   1  11
TORSDOF 3
