REMARK  Name = ZINC48096597
REMARK  4 active torsions:
REMARK  status: ('A' for Active; 'I' for Inactive)
REMARK    1  A    between atoms: C_1  and  C_2
REMARK    2  A    between atoms: C_7  and  N_8
REMARK    3  A    between atoms: N_11  and  C_12
REMARK    4  A    between atoms: N_15  and  C_17
REMARK                            x       y       z     vdW  Elec       q    Type
REMARK                         _______ _______ _______ _____ _____    ______ ____
ROOT
ATOM      1  N   UNL     1       0.026  -0.013   2.417  0.00  0.00    -0.268 N 
ATOM      2  C   UNL     1      -0.354  -0.639   3.549  0.00  0.00    +0.308 C 
ATOM      3  O   UNL     1      -0.612  -1.827   3.529  0.00  0.00    -0.252 OA
ATOM      4  N   UNL     1      -0.449   0.052   4.702  0.00  0.00    -0.267 N 
ATOM      5  H   UNL     1       0.301   0.916   2.446  0.00  0.00    +0.156 HD
ATOM      6  H   UNL     1      -0.243   1.000   4.718  0.00  0.00    +0.156 HD
ENDROOT
BRANCH   1  13
ATOM      7  C   UNL     1      -2.321   0.100   0.813  0.00  0.00    +0.046 C 
ATOM      8  C   UNL     1      -1.101  -0.676   0.386  0.00  0.00    -0.027 A 
ATOM      9  C   UNL     1      -1.100  -1.354  -0.817  0.00  0.00    +0.020 A 
ATOM     10  C   UNL     1       0.019  -2.067  -1.210  0.00  0.00    +0.020 A 
ATOM     11  C   UNL     1       1.140  -2.102  -0.399  0.00  0.00    +0.037 A 
ATOM     12  C   UNL     1       1.144  -1.426   0.806  0.00  0.00    +0.063 A 
ATOM     13  C   UNL     1       0.023  -0.705   1.200  0.00  0.00    +0.056 A 
ATOM     14 CL   UNL     1       2.550  -1.471   1.823  0.00  0.00    -0.082 Cl
ATOM     15 BR   UNL     1       0.017  -2.994  -2.858  0.00  0.00    -0.050 Br
ENDBRANCH   1  13
BRANCH   4  16
ATOM     16  C   UNL     1      -0.846  -0.602   5.885  0.00  0.00    +0.072 A 
ATOM     17  C   UNL     1      -1.166  -1.962   6.008  0.00  0.00    +0.157 A 
ATOM     18  N   UNL     1      -1.486  -2.198   7.255  0.00  0.00    -0.178 NA
ATOM     19  N   UNL     1      -1.383  -0.998   7.971  0.00  0.00    -0.273 N 
ATOM     20  C   UNL     1      -0.981  -0.030   7.108  0.00  0.00    +0.131 A 
ATOM     21  C   UNL     1      -1.655  -0.821   9.400  0.00  0.00    +0.172 C 
ENDBRANCH   4  16
TORSDOF 2
