REMARK  Name = ZINC67495476
REMARK  10 active torsions:
REMARK  status: ('A' for Active; 'I' for Inactive)
REMARK    1  A    between atoms: C_1  and  C_2
REMARK    2  A    between atoms: C_5  and  N_11
REMARK    3  A    between atoms: C_7  and  C_8
REMARK    4  A    between atoms: C_12  and  C_14
REMARK    5  A    between atoms: N_16  and  C_17
REMARK    6  A    between atoms: C_17  and  C_18
REMARK    7  A    between atoms: C_18  and  C_20
REMARK    8  A    between atoms: C_18  and  N_23
REMARK    9  A    between atoms: C_20  and  C_21
REMARK   10  A    between atoms: C_20  and  C_22
REMARK                            x       y       z     vdW  Elec       q    Type
REMARK                         _______ _______ _______ _____ _____    ______ ____
ROOT
ATOM      1  C   UNL     1       0.698  -6.140  -1.388  0.00  0.00    +0.299 C 
ATOM      2  O   UNL     1       0.447  -6.725  -0.355  0.00  0.00    -0.265 OA
ATOM      3  N   UNL     1       0.718  -6.812  -2.556  0.00  0.00    -0.309 N 
ATOM      4  H   UNL     1       0.919  -6.344  -3.382  0.00  0.00    +0.149 HD
ENDROOT
BRANCH   1   6
ATOM      5  N   UNL     1       0.965  -4.002  -0.197  0.00  0.00    -0.278 N 
ATOM      6  C   UNL     1       0.985  -4.674  -1.365  0.00  0.00    +0.303 C 
ATOM      7  O   UNL     1       1.236  -4.089  -2.398  0.00  0.00    -0.265 OA
ATOM      8  H   UNL     1       0.690  -4.452   0.617  0.00  0.00    +0.155 HD
BRANCH   5  13
ATOM      9  C   UNL     1       2.474   1.472  -0.016  0.00  0.00    +0.044 C 
ATOM     10  C   UNL     1       2.075   0.020  -0.067  0.00  0.00    -0.038 A 
ATOM     11  C   UNL     1       1.188  -0.486   0.862  0.00  0.00    +0.006 A 
ATOM     12  C   UNL     1       0.820  -1.817   0.820  0.00  0.00    +0.023 A 
ATOM     13  C   UNL     1       1.340  -2.656  -0.159  0.00  0.00    +0.035 A 
ATOM     14  C   UNL     1       2.232  -2.158  -1.097  0.00  0.00    +0.036 A 
ATOM     15  C   UNL     1       2.599  -0.813  -1.057  0.00  0.00    +0.041 A 
BRANCH  15  16
ATOM     16  C   UNL     1       3.545  -0.273  -2.057  0.00  0.00    +0.242 C 
ATOM     17  O   UNL     1       3.925   0.879  -1.974  0.00  0.00    -0.270 OA
ATOM     18  N   UNL     1       3.986  -1.057  -3.060  0.00  0.00    -0.325 N 
ATOM     19  H   UNL     1       3.682  -1.976  -3.127  0.00  0.00    +0.145 HD
ATOM     20  H   UNL     1       4.606  -0.703  -3.716  0.00  0.00    +0.145 HD
ENDBRANCH  15  16
ENDBRANCH   5  13
ENDBRANCH   1   6
BRANCH   3  21
ATOM     21  C   UNL     1       0.437  -8.250  -2.579  0.00  0.00    +0.089 C 
BRANCH  21  22
ATOM     22  C   UNL     1       0.478  -8.755  -4.023  0.00  0.00    -0.049 C 
BRANCH  22  23
ATOM     23  N   UNL     1      -0.608  -8.131  -4.790  0.00  0.00    +0.383 N 
ATOM     24  C   UNL     1      -0.296  -6.700  -4.975  0.00  0.00    -0.078 C 
ATOM     25  C   UNL     1      -1.022  -6.212  -6.204  0.00  0.00    -0.019 C 
ATOM     26  C   UNL     1      -2.361  -5.545  -5.839  0.00  0.00    -0.002 C 
ATOM     27  C   UNL     1      -3.100  -6.316  -4.727  0.00  0.00    -0.002 C 
ATOM     28  C   UNL     1      -3.022  -7.809  -4.913  0.00  0.00    -0.019 C 
ATOM     29  C   UNL     1      -1.813  -8.353  -4.122  0.00  0.00    -0.078 C 
ATOM     30  H   UNL     1      -0.655  -8.570  -5.698  0.00  0.00    -0.081 HD
ENDBRANCH  22  23
BRANCH  22  31
ATOM     31  C   UNL     1       0.304 -10.275  -4.036  0.00  0.00    -0.029 C 
ATOM     32  C   UNL     1       0.463 -10.793  -5.467  0.00  0.00    +0.005 C 
ATOM     33  C   UNL     1       1.365 -10.917  -3.141  0.00  0.00    +0.005 C 
ENDBRANCH  22  31
ENDBRANCH  21  22
ENDBRANCH   3  21
TORSDOF 7
