REMARK  Name = ZINC40347191
REMARK  7 active torsions:
REMARK  status: ('A' for Active; 'I' for Inactive)
REMARK    1  A    between atoms: C_1  and  C_2
REMARK    2  A    between atoms: C_2  and  C_4
REMARK    3  A    between atoms: C_2  and  N_17
REMARK    4  A    between atoms: C_4  and  N_5
REMARK    5  A    between atoms: N_5  and  S_6
REMARK    6  A    between atoms: S_6  and  C_9
REMARK    7  A    between atoms: C_13  and  N_15
REMARK                            x       y       z     vdW  Elec       q    Type
REMARK                         _______ _______ _______ _____ _____    ______ ____
ROOT
ATOM      1  S   UNL     1       1.591  -2.590  -2.828  0.00  0.00    +0.058 S 
ATOM      2  O   UNL     1       1.762  -3.973  -2.551  0.00  0.00    -0.153 OA
ATOM      3  O   UNL     1       0.744  -2.121  -3.868  0.00  0.00    -0.153 OA
ENDROOT
BRANCH   1   4
ATOM      4  C   UNL     1       3.195  -1.938  -3.153  0.00  0.00    +0.107 A 
ATOM      5  C   UNL     1       3.334  -0.789  -3.910  0.00  0.00    +0.030 A 
ATOM      6  C   UNL     1       4.591  -0.275  -4.168  0.00  0.00    +0.024 A 
ATOM      7  C   UNL     1       5.714  -0.908  -3.670  0.00  0.00    +0.062 A 
ATOM      8  C   UNL     1       5.578  -2.063  -2.909  0.00  0.00    +0.045 A 
ATOM      9  C   UNL     1       4.313  -2.574  -2.648  0.00  0.00    +0.052 A 
ATOM     10 CL   UNL     1       7.292  -0.263  -3.995  0.00  0.00    -0.082 Cl
BRANCH   8  11
ATOM     11  N   UNL     1       6.711  -2.707  -2.404  0.00  0.00    -0.357 N 
ATOM     12  H   UNL     1       7.593  -2.348  -2.584  0.00  0.00    +0.142 HD
ATOM     13  H   UNL     1       6.614  -3.513  -1.873  0.00  0.00    +0.142 HD
ENDBRANCH   8  11
ENDBRANCH   1   4
BRANCH   1  14
ATOM     14  N   UNL     1       1.053  -1.889  -1.427  0.00  0.00    -0.191 NA
ATOM     15  H   UNL     1       0.904  -2.434  -0.639  0.00  0.00    +0.148 HD
BRANCH  14  16
ATOM     16  C   UNL     1       0.801  -0.447  -1.379  0.00  0.00    +0.090 C 
BRANCH  16  18
ATOM     17  C   UNL     1      -0.218   1.400  -0.042  0.00  0.00    -0.012 C 
ATOM     18  C   UNL     1      -0.023  -0.114  -0.134  0.00  0.00    -0.056 C 
BRANCH  18  19
ATOM     19  N   UNL     1       0.684  -0.590   1.063  0.00  0.00    +0.382 N 
ATOM     20  C   UNL     1      -0.170  -0.401   2.241  0.00  0.00    -0.078 C 
ATOM     21  C   UNL     1       0.528  -0.969   3.479  0.00  0.00    -0.019 C 
ATOM     22  C   UNL     1       1.859  -0.240   3.688  0.00  0.00    -0.004 C 
ATOM     23  C   UNL     1       2.711  -0.382   2.423  0.00  0.00    -0.019 C 
ATOM     24  C   UNL     1       1.932   0.165   1.225  0.00  0.00    -0.078 C 
ATOM     25  H   UNL     1       0.897  -1.571   0.958  0.00  0.00    -0.081 HD
ENDBRANCH  18  19
ENDBRANCH  16  18
ENDBRANCH  14  16
ENDBRANCH   1  14
TORSDOF 6
