REMARK  Name = ZINC08948103
REMARK  9 active torsions:
REMARK  status: ('A' for Active; 'I' for Inactive)
REMARK    1  A    between atoms: C_1  and  C_2
REMARK    2  A    between atoms: C_2  and  C_21
REMARK    3  A    between atoms: N_5  and  C_9
REMARK    4  A    between atoms: C_9  and  C_10
REMARK    5  A    between atoms: N_12  and  C_13
REMARK    6  A    between atoms: C_24  and  C_27
REMARK    7  A    between atoms: C_27  and  C_28
REMARK    8  A    between atoms: C_27  and  C_29
REMARK    9  A    between atoms: C_27  and  C_30
REMARK                            x       y       z     vdW  Elec       q    Type
REMARK                         _______ _______ _______ _____ _____    ______ ____
ROOT
ATOM      1  C   UNL     1      -0.659   2.053   1.283  0.00  0.00    +0.047 C 
ATOM      2  C   UNL     1       0.010   1.525   0.012  0.00  0.00    +0.135 C 
ATOM      3  C   UNL     1       0.025   0.009   0.008  0.00  0.00    +0.251 C 
ATOM      4  O   UNL     1      -0.933  -0.733   0.022  0.00  0.00    -0.272 OA
ATOM      5  N   UNL     1       1.326  -0.342  -0.014  0.00  0.00    -0.215 N 
ATOM      6  C   UNL     1       2.127   0.730  -0.024  0.00  0.00    +0.310 C 
ATOM      7  O   UNL     1       3.340   0.666  -0.044  0.00  0.00    -0.252 OA
ATOM      8  N   UNL     1       1.438   1.885  -0.010  0.00  0.00    -0.281 N 
ATOM      9  H   UNL     1       1.810   2.781  -0.014  0.00  0.00    +0.152 HD
ENDROOT
BRANCH   2  10
ATOM     10  C   UNL     1      -0.689   2.051  -1.214  0.00  0.00    -0.015 A 
ATOM     11  C   UNL     1      -1.696   1.313  -1.807  0.00  0.00    +0.006 A 
ATOM     12  C   UNL     1      -2.340   1.798  -2.929  0.00  0.00    +0.004 A 
ATOM     13  C   UNL     1      -1.970   3.017  -3.466  0.00  0.00    -0.042 A 
ATOM     14  C   UNL     1      -0.959   3.753  -2.877  0.00  0.00    +0.004 A 
ATOM     15  C   UNL     1      -0.318   3.270  -1.751  0.00  0.00    +0.006 A 
BRANCH  13  16
ATOM     16  C   UNL     1      -2.668   3.543  -4.693  0.00  0.00    -0.013 C 
ATOM     17  C   UNL     1      -1.648   3.736  -5.817  0.00  0.00    +0.015 C 
ATOM     18  C   UNL     1      -3.737   2.544  -5.140  0.00  0.00    +0.015 C 
ATOM     19  C   UNL     1      -3.329   4.885  -4.369  0.00  0.00    +0.015 C 
ENDBRANCH  13  16
ENDBRANCH   2  10
BRANCH   5  20
ATOM     20  C   UNL     1       1.805  -1.727  -0.026  0.00  0.00    +0.214 C 
BRANCH  20  21
ATOM     21  C   UNL     1       1.946  -2.197  -1.451  0.00  0.00    +0.235 C 
ATOM     22  O   UNL     1       1.674  -1.449  -2.366  0.00  0.00    -0.274 OA
ATOM     23  N   UNL     1       2.375  -3.449  -1.708  0.00  0.00    -0.283 N 
ATOM     24  H   UNL     1       2.655  -4.025  -0.980  0.00  0.00    +0.155 HD
BRANCH  23  25
ATOM     25  C   UNL     1       2.417  -3.917  -3.027  0.00  0.00    +0.052 A 
ATOM     26  C   UNL     1       2.733  -3.049  -4.064  0.00  0.00    +0.027 A 
ATOM     27  C   UNL     1       2.779  -3.514  -5.364  0.00  0.00    +0.040 A 
ATOM     28  C   UNL     1       2.500  -4.843  -5.635  0.00  0.00    +0.125 A 
ATOM     29  C   UNL     1       2.180  -5.710  -4.604  0.00  0.00    +0.060 A 
ATOM     30  C   UNL     1       2.138  -5.250  -3.302  0.00  0.00    +0.065 A 
ATOM     31 CL   UNL     1       1.737  -6.338  -2.009  0.00  0.00    -0.082 Cl
ATOM     32  F   UNL     1       2.540  -5.294  -6.908  0.00  0.00    -0.205 F 
ENDBRANCH  23  25
ENDBRANCH  20  21
ENDBRANCH   5  20
TORSDOF 5
