REMARK  Name = ZINC08820664
REMARK  8 active torsions:
REMARK  status: ('A' for Active; 'I' for Inactive)
REMARK    1  A    between atoms: C_1  and  C_2
REMARK    2  A    between atoms: C_2  and  C_10
REMARK    3  A    between atoms: C_3  and  C_4
REMARK    4  A    between atoms: N_14  and  C_18
REMARK    5  A    between atoms: C_18  and  C_19
REMARK    6  A    between atoms: N_21  and  N_22
REMARK    7  A    between atoms: C_23  and  C_25
REMARK    8  A    between atoms: C_29  and  N_31
REMARK                            x       y       z     vdW  Elec       q    Type
REMARK                         _______ _______ _______ _____ _____    ______ ____
ROOT
ATOM      1  C   UNL     1       2.737   8.444  -0.204  0.00  0.00    +0.212 C 
ENDROOT
BRANCH   1   6
ATOM      2  C   UNL     1       6.543  10.970  -2.150  0.00  0.00    +0.023 C 
ATOM      3  C   UNL     1       5.767  10.422  -1.171  0.00  0.00    +0.077 C 
ATOM      4  C   UNL     1       4.523   9.639  -1.286  0.00  0.00    +0.259 C 
ATOM      5  O   UNL     1       4.025   9.385  -2.368  0.00  0.00    -0.269 OA
ATOM      6  N   UNL     1       3.974   9.226  -0.155  0.00  0.00    -0.246 N 
ATOM      7  C   UNL     1       4.526   9.514   1.041  0.00  0.00    +0.121 C 
ATOM      8  S   UNL     1       3.969   9.081   2.601  0.00  0.00    -0.027 S 
ATOM      9  S   UNL     1       5.980  10.455   0.604  0.00  0.00    -0.061 S 
BRANCH   2  11
ATOM     10  C   UNL     1       8.312  11.459  -0.414  0.00  0.00    +0.044 C 
ATOM     11  C   UNL     1       7.782  11.556  -1.822  0.00  0.00    -0.049 C 
ATOM     12  C   UNL     1       8.496  12.207  -2.771  0.00  0.00    +0.011 C 
BRANCH  12  13
ATOM     13  C   UNL     1       9.728  12.920  -2.404  0.00  0.00    -0.025 A 
ATOM     14  C   UNL     1       9.814  13.591  -1.179  0.00  0.00    +0.008 A 
ATOM     15  C   UNL     1      10.976  14.252  -0.840  0.00  0.00    +0.001 A 
ATOM     16  C   UNL     1      12.050  14.264  -1.713  0.00  0.00    +0.000 A 
ATOM     17  C   UNL     1      11.971  13.607  -2.929  0.00  0.00    +0.001 A 
ATOM     18  C   UNL     1      10.819  12.936  -3.280  0.00  0.00    +0.008 A 
ENDBRANCH  12  13
ENDBRANCH   2  11
ENDBRANCH   1   6
BRANCH   1  19
ATOM     19  C   UNL     1       3.072   6.978  -0.289  0.00  0.00    +0.247 C 
ATOM     20  O   UNL     1       4.231   6.621  -0.307  0.00  0.00    -0.273 OA
ATOM     21  N   UNL     1       2.084   6.062  -0.344  0.00  0.00    -0.233 N 
ATOM     22  H   UNL     1       1.157   6.348  -0.329  0.00  0.00    +0.173 HD
BRANCH  21  23
ATOM     23  N   UNL     1       2.397   4.699  -0.423  0.00  0.00    -0.230 N 
ATOM     24  C   UNL     1       1.409   3.784  -0.479  0.00  0.00    +0.260 C 
ATOM     25  O   UNL     1       0.247   4.141  -0.460  0.00  0.00    -0.269 OA
ATOM     26  H   UNL     1       3.323   4.413  -0.438  0.00  0.00    +0.173 HD
BRANCH  24  27
ATOM     27  C   UNL     1       1.738   2.345  -0.562  0.00  0.00    +0.040 A 
ATOM     28  C   UNL     1       3.071   1.931  -0.584  0.00  0.00    +0.013 A 
ATOM     29  C   UNL     1       3.371   0.587  -0.662  0.00  0.00    +0.003 A 
ATOM     30  C   UNL     1       2.355  -0.350  -0.718  0.00  0.00    +0.033 A 
ATOM     31  C   UNL     1       1.032   0.053  -0.702  0.00  0.00    +0.127 A 
ATOM     32  C   UNL     1       0.718   1.394  -0.620  0.00  0.00    +0.045 A 
BRANCH  31  33
ATOM     33  N   UNL     1      -0.049  -0.956  -0.768  0.00  0.00    +0.056 N 
ATOM     34  O   UNL     1       0.226  -2.140  -0.837  0.00  0.00    -0.126 OA
ATOM     35  O   UNL     1      -1.215  -0.602  -0.754  0.00  0.00    -0.126 OA
ENDBRANCH  31  33
ENDBRANCH  24  27
ENDBRANCH  21  23
ENDBRANCH   1  19
TORSDOF 7
