REMARK  Name = ZINC08880761
REMARK  8 active torsions:
REMARK  status: ('A' for Active; 'I' for Inactive)
REMARK    1  A    between atoms: C_1  and  C_2
REMARK    2  A    between atoms: C_3  and  C_15
REMARK    3  A    between atoms: C_4  and  C_14
REMARK    4  A    between atoms: N_5  and  C_7
REMARK    5  A    between atoms: C_7  and  C_8
REMARK    6  A    between atoms: C_15  and  N_16
REMARK    7  A    between atoms: C_17  and  C_19
REMARK    8  A    between atoms: C_19  and  N_20
REMARK                            x       y       z     vdW  Elec       q    Type
REMARK                         _______ _______ _______ _____ _____    ______ ____
ROOT
ATOM      1  N   UNL     1      -1.639   2.493   1.405  0.00  0.00    -0.310 N 
ATOM      2  C   UNL     1      -2.719   3.257   1.661  0.00  0.00    +0.231 C 
ATOM      3  O   UNL     1      -3.367   3.717   0.745  0.00  0.00    -0.274 OA
ATOM      4  H   UNL     1      -1.120   2.125   2.138  0.00  0.00    +0.149 HD
ENDROOT
BRANCH   1   5
ATOM      5  C   UNL     1      -1.247   2.219   0.020  0.00  0.00    +0.143 C 
BRANCH   5   8
ATOM      6  C   UNL     1       1.754   3.237   0.003  0.00  0.00    +0.068 C 
ATOM      7  C   UNL     1       1.308   1.797  -0.001  0.00  0.00    +0.065 A 
ATOM      8  C   UNL     1      -0.016   1.349   0.009  0.00  0.00    +0.013 A 
ATOM      9  C   UNL     1       0.002  -0.004   0.002  0.00  0.00    +0.041 A 
ATOM     10  N   UNL     1       1.293  -0.398  -0.012  0.00  0.00    -0.264 N 
ATOM     11  N   UNL     1       2.094   0.751  -0.014  0.00  0.00    -0.176 NA
ATOM     12  C   UNL     1      -1.203  -0.909   0.009  0.00  0.00    +0.065 C 
BRANCH  10  13
ATOM     13  C   UNL     1       1.771  -1.782  -0.024  0.00  0.00    +0.178 C 
BRANCH  13  14
ATOM     14  C   UNL     1       1.922  -2.250  -1.449  0.00  0.00    -0.026 A 
ATOM     15  C   UNL     1       0.861  -2.861  -2.091  0.00  0.00    +0.005 A 
ATOM     16  C   UNL     1       0.998  -3.285  -3.400  0.00  0.00    +0.000 A 
ATOM     17  C   UNL     1       2.198  -3.109  -4.062  0.00  0.00    +0.000 A 
ATOM     18  C   UNL     1       3.260  -2.503  -3.418  0.00  0.00    +0.000 A 
ATOM     19  C   UNL     1       3.122  -2.073  -2.111  0.00  0.00    +0.005 A 
ENDBRANCH  13  14
ENDBRANCH  10  13
ENDBRANCH   5   8
ENDBRANCH   1   5
BRANCH   2  20
ATOM     20  C   UNL     1      -3.122   3.539   3.085  0.00  0.00    +0.213 C 
BRANCH  20  21
ATOM     21  N   UNL     1      -4.319   4.385   3.096  0.00  0.00    -0.215 N 
ATOM     22  C   UNL     1      -5.582   3.912   3.099  0.00  0.00    +0.252 C 
ATOM     23  O   UNL     1      -5.931   2.750   3.096  0.00  0.00    -0.272 OA
ATOM     24  C   UNL     1      -6.471   5.134   3.110  0.00  0.00    +0.144 C 
ATOM     25  C   UNL     1      -7.343   5.169   1.858  0.00  0.00    +0.081 C 
ATOM     26  C   UNL     1      -8.398   6.269   2.037  0.00  0.00    +0.232 C 
ATOM     27  O   UNL     1      -9.239   5.915   3.135  0.00  0.00    -0.492 OA
ATOM     28  C   UNL     1      -8.649   5.545   4.301  0.00  0.00    +0.126 A 
ATOM     29  C   UNL     1      -7.320   5.155   4.350  0.00  0.00    +0.027 A 
ATOM     30  C   UNL     1      -6.758   4.778   5.558  0.00  0.00    +0.010 A 
ATOM     31  C   UNL     1      -7.515   4.793   6.714  0.00  0.00    +0.001 A 
ATOM     32  C   UNL     1      -8.839   5.186   6.668  0.00  0.00    +0.004 A 
ATOM     33  C   UNL     1      -9.406   5.561   5.466  0.00  0.00    +0.046 A 
ATOM     34  N   UNL     1      -5.529   6.260   3.112  0.00  0.00    -0.281 N 
ATOM     35  C   UNL     1      -4.294   5.723   3.109  0.00  0.00    +0.310 C 
ATOM     36  O   UNL     1      -3.271   6.380   3.113  0.00  0.00    -0.252 OA
ATOM     37  H   UNL     1      -5.752   7.204   3.119  0.00  0.00    +0.152 HD
ENDBRANCH  20  21
ENDBRANCH   2  20
TORSDOF 6
