REMARK  Name = ZINC36969836
REMARK  3 active torsions:
REMARK  status: ('A' for Active; 'I' for Inactive)
REMARK    1  A    between atoms: C_3  and  C_9
REMARK    2  A    between atoms: C_9  and  N_10
REMARK    3  A    between atoms: N_10  and  C_11
REMARK                            x       y       z     vdW  Elec       q    Type
REMARK                         _______ _______ _______ _____ _____    ______ ____
ROOT
ATOM      1  N   UNL     1       4.287   2.122   1.305  0.00  0.00    -0.338 N 
ATOM      2  H   UNL     1       3.851   1.631   2.019  0.00  0.00    +0.146 HD
ENDROOT
BRANCH   1   3
ATOM      3  C   UNL     1       5.506   2.769   1.543  0.00  0.00    +0.050 A 
ATOM      4  C   UNL     1       6.128   3.476   0.523  0.00  0.00    +0.074 A 
ATOM      5  C   UNL     1       7.332   4.116   0.759  0.00  0.00    +0.168 A 
ATOM      6  C   UNL     1       7.919   4.050   2.020  0.00  0.00    +0.168 A 
ATOM      7  C   UNL     1       7.296   3.345   3.037  0.00  0.00    +0.071 A 
ATOM      8  C   UNL     1       6.090   2.709   2.802  0.00  0.00    +0.065 A 
ATOM      9 CL   UNL     1       5.309   1.831   4.080  0.00  0.00    -0.082 Cl
ATOM     10  O   UNL     1       9.089   4.755   1.995  0.00  0.00    -0.453 OA
ATOM     11  C   UNL     1       9.414   4.910   0.601  0.00  0.00    +0.466 C 
ATOM     12  O   UNL     1       8.134   4.863  -0.057  0.00  0.00    -0.453 OA
ENDBRANCH   1   3
BRANCH   1  13
ATOM     13  C   UNL     1       3.671   2.185  -0.023  0.00  0.00    +0.138 C 
BRANCH  13  16
ATOM     14  C   UNL     1      -0.017   1.379   0.010  0.00  0.00    +0.020 A 
ATOM     15  C   UNL     1       1.171   2.087   0.002  0.00  0.00    +0.008 A 
ATOM     16  C   UNL     1       2.377   1.413  -0.013  0.00  0.00    -0.012 A 
ATOM     17  C   UNL     1       2.397   0.029  -0.021  0.00  0.00    +0.047 A 
ATOM     18  C   UNL     1       1.210  -0.679  -0.013  0.00  0.00    +0.040 A 
ATOM     19  C   UNL     1       0.002  -0.004   0.002  0.00  0.00    +0.042 A 
ATOM     20 CL   UNL     1      -1.489  -0.893   0.012  0.00  0.00    -0.083 Cl
ATOM     21 CL   UNL     1       3.913  -0.817  -0.041  0.00  0.00    -0.083 Cl
ENDBRANCH  13  16
ENDBRANCH   1  13
TORSDOF 3
