REMARK  Name = ZINC45446769
REMARK  9 active torsions:
REMARK  status: ('A' for Active; 'I' for Inactive)
REMARK    1  A    between atoms: C_1  and  C_2
REMARK    2  A    between atoms: C_2  and  C_3
REMARK    3  A    between atoms: C_3  and  C_27
REMARK    4  A    between atoms: N_6  and  N_10
REMARK    5  A    between atoms: C_11  and  C_13
REMARK    6  A    between atoms: C_13  and  S_14
REMARK    7  A    between atoms: S_14  and  C_15
REMARK    8  A    between atoms: C_16  and  C_25
REMARK    9  A    between atoms: C_17  and  C_24
REMARK                            x       y       z     vdW  Elec       q    Type
REMARK                         _______ _______ _______ _____ _____    ______ ____
ROOT
ATOM      1  N   UNL     1       0.872   1.536  -4.285  0.00  0.00    -0.223 N 
ATOM      2  C   UNL     1       0.759   2.878  -4.253  0.00  0.00    +0.240 C 
ATOM      3  O   UNL     1       0.810   3.466  -3.194  0.00  0.00    -0.273 OA
ATOM      4  H   UNL     1       0.832   1.066  -5.133  0.00  0.00    +0.174 HD
ENDROOT
BRANCH   1   8
ATOM      5  C   UNL     1       0.718  -0.497  -1.257  0.00  0.00    +0.139 C 
ATOM      6  C   UNL     1       0.081   0.093  -2.499  0.00  0.00    +0.268 C 
ATOM      7  O   UNL     1      -1.061  -0.057  -2.878  0.00  0.00    -0.271 OA
ATOM      8  N   UNL     1       1.047   0.819  -3.095  0.00  0.00    -0.137 N 
ATOM      9  C   UNL     1       2.195   0.770  -2.408  0.00  0.00    +0.327 C 
ATOM     10  O   UNL     1       3.210   1.345  -2.748  0.00  0.00    -0.251 OA
ATOM     11  N   UNL     1       2.099   0.013  -1.301  0.00  0.00    -0.280 N 
ATOM     12  H   UNL     1       2.803  -0.163  -0.657  0.00  0.00    +0.152 HD
BRANCH   5  13
ATOM     13  C   UNL     1       0.707  -2.003  -1.315  0.00  0.00    -0.015 A 
ATOM     14  C   UNL     1      -0.340  -2.709  -0.752  0.00  0.00    +0.006 A 
ATOM     15  C   UNL     1      -0.350  -4.090  -0.806  0.00  0.00    +0.000 A 
ATOM     16  C   UNL     1       0.686  -4.766  -1.424  0.00  0.00    +0.000 A 
ATOM     17  C   UNL     1       1.732  -4.060  -1.988  0.00  0.00    +0.000 A 
ATOM     18  C   UNL     1       1.740  -2.679  -1.938  0.00  0.00    +0.006 A 
ENDBRANCH   5  13
BRANCH   5  20
ATOM     19  C   UNL     1      -0.019   1.526   0.010  0.00  0.00    +0.007 C 
ATOM     20  C   UNL     1       0.002  -0.004   0.002  0.00  0.00    +0.037 C 
ENDBRANCH   5  20
ENDBRANCH   1   8
BRANCH   2  21
ATOM     21  C   UNL     1       0.571   3.650  -5.535  0.00  0.00    +0.173 C 
BRANCH  21  22
ATOM     22  S   UNL     1       0.454   5.421  -5.162  0.00  0.00    -0.095 S 
BRANCH  22  23
ATOM     23  C   UNL     1       0.239   6.175  -6.740  0.00  0.00    +0.115 A 
ATOM     24  C   UNL     1       0.115   7.573  -6.837  0.00  0.00    +0.087 A 
ATOM     25  C   UNL     1      -0.054   8.143  -8.102  0.00  0.00    -0.026 A 
ATOM     26  C   UNL     1      -0.093   7.308  -9.206  0.00  0.00    -0.022 A 
ATOM     27  C   UNL     1       0.036   5.941  -9.036  0.00  0.00    +0.046 A 
ATOM     28  N   UNL     1       0.200   5.424  -7.828  0.00  0.00    -0.244 NA
ATOM     29  C   UNL     1      -0.037   5.253 -10.384  0.00  0.00    +0.056 C 
ATOM     30  C   UNL     1      -0.660   6.294 -11.337  0.00  0.00    +0.011 C 
ATOM     31  C   UNL     1      -0.262   7.630 -10.675  0.00  0.00    +0.037 C 
ATOM     32  C   UNL     1      -0.193   9.636  -8.261  0.00  0.00    +0.045 C 
BRANCH  24  33
ATOM     33  C   UNL     1       0.161   8.394  -5.664  0.00  0.00    +0.102 C 
ATOM     34  N   UNL     1       0.198   9.045  -4.734  0.00  0.00    -0.191 NA
ENDBRANCH  24  33
ENDBRANCH  22  23
ENDBRANCH  21  22
ENDBRANCH   2  21
TORSDOF 7
