REMARK  Name = ZINC12042736
REMARK  7 active torsions:
REMARK  status: ('A' for Active; 'I' for Inactive)
REMARK    1  A    between atoms: C_1  and  C_2
REMARK    2  A    between atoms: C_3  and  C_29
REMARK    3  A    between atoms: C_5  and  N_21
REMARK    4  A    between atoms: C_6  and  C_7
REMARK    5  A    between atoms: C_7  and  C_9
REMARK    6  A    between atoms: C_7  and  N_54
REMARK    7  A    between atoms: C_22  and  C_24
REMARK                            x       y       z     vdW  Elec       q    Type
REMARK                         _______ _______ _______ _____ _____    ______ ____
ROOT
ATOM      1  C   UNL     1      -1.781  -0.703  -1.517  0.00  0.00    +0.045 C 
ATOM      2  C   UNL     1      -1.566   0.729  -1.934  0.00  0.00    -0.037 A 
ATOM      3  C   UNL     1      -2.177   1.222  -3.038  0.00  0.00    -0.008 A 
ATOM      4  S   UNL     1      -1.588   2.907  -3.069  0.00  0.00    -0.078 S 
ATOM      5  C   UNL     1      -0.572   2.847  -1.602  0.00  0.00    +0.074 A 
ATOM      6  C   UNL     1      -0.747   1.559  -1.191  0.00  0.00    -0.025 A 
ATOM      7  C   UNL     1      -3.108   0.525  -3.997  0.00  0.00    +0.052 C 
ENDROOT
BRANCH   5   8
ATOM      8  N   UNL     1       0.202   3.856  -1.026  0.00  0.00    -0.273 N 
ATOM      9  C   UNL     1       0.149   5.110  -1.520  0.00  0.00    +0.284 C 
ATOM     10  O   UNL     1      -0.572   5.361  -2.467  0.00  0.00    -0.266 OA
ATOM     11  H   UNL     1       0.777   3.656  -0.272  0.00  0.00    +0.156 HD
BRANCH   9  12
ATOM     12  C   UNL     1       0.962   6.170  -0.915  0.00  0.00    +0.189 A 
ATOM     13  C   UNL     1       1.004   7.475  -1.314  0.00  0.00    +0.054 A 
ATOM     14  C   UNL     1       1.907   8.129  -0.461  0.00  0.00    +0.042 A 
ATOM     15  C   UNL     1       2.370   7.206   0.410  0.00  0.00    +0.196 A 
ATOM     16  O   UNL     1       1.795   6.028   0.137  0.00  0.00    -0.458 OA
ENDBRANCH   9  12
ENDBRANCH   5   8
BRANCH   6  17
ATOM     17  C   UNL     1      -0.056   1.048   0.046  0.00  0.00    -0.004 C 
BRANCH  17  18
ATOM     18  C   UNL     1      -0.781   1.549   1.269  0.00  0.00    -0.057 A 
ATOM     19  C   UNL     1      -0.485   2.797   1.785  0.00  0.00    +0.004 A 
ATOM     20  C   UNL     1      -1.154   3.259   2.903  0.00  0.00    +0.020 A 
ATOM     21  C   UNL     1      -2.111   2.467   3.513  0.00  0.00    +0.041 A 
ATOM     22  C   UNL     1      -2.402   1.216   3.000  0.00  0.00    +0.020 A 
ATOM     23  C   UNL     1      -1.737   0.757   1.878  0.00  0.00    +0.004 A 
ATOM     24 CL   UNL     1      -2.945   3.043   4.922  0.00  0.00    -0.084 Cl
ENDBRANCH  17  18
BRANCH  17  30
ATOM     25  C   UNL     1       2.041   1.147  -1.159  0.00  0.00    -0.078 C 
ATOM     26  C   UNL     1       3.431   1.787  -1.168  0.00  0.00    -0.019 C 
ATOM     27  C   UNL     1       4.211   1.320   0.064  0.00  0.00    -0.004 C 
ATOM     28  C   UNL     1       3.427   1.690   1.326  0.00  0.00    -0.019 C 
ATOM     29  C   UNL     1       2.037   1.052   1.262  0.00  0.00    -0.078 C 
ATOM     30  N   UNL     1       1.329   1.562   0.069  0.00  0.00    +0.387 N 
ATOM     31  H   UNL     1       1.304   2.587   0.109  0.00  0.00    -0.080 HD
ENDBRANCH  17  30
ENDBRANCH   6  17
TORSDOF 5
