REMARK  Name = ZINC63271895
REMARK  7 active torsions:
REMARK  status: ('A' for Active; 'I' for Inactive)
REMARK    1  A    between atoms: C_1  and  C_2
REMARK    2  A    between atoms: C_2  and  C_4
REMARK    3  A    between atoms: C_2  and  S_19
REMARK    4  A    between atoms: N_6  and  C_7
REMARK    5  A    between atoms: C_7  and  C_8
REMARK    6  A    between atoms: C_8  and  C_9
REMARK    7  A    between atoms: S_19  and  C_20
REMARK                            x       y       z     vdW  Elec       q    Type
REMARK                         _______ _______ _______ _____ _____    ______ ____
ROOT
ATOM      1  C   UNL     1       0.731  -0.503   1.223  0.00  0.00    +0.226 C 
ATOM      2  O   UNL     1       0.105  -0.891   2.187  0.00  0.00    -0.275 OA
ATOM      3  N   UNL     1       2.079  -0.519   1.244  0.00  0.00    -0.314 N 
ATOM      4  H   UNL     1       2.579  -0.208   0.473  0.00  0.00    +0.149 HD
ENDROOT
BRANCH   1   6
ATOM      5  C   UNL     1      -0.019   1.526   0.010  0.00  0.00    +0.029 C 
ATOM      6  C   UNL     1       0.002  -0.004   0.002  0.00  0.00    +0.131 C 
BRANCH   6   7
ATOM      7  S   UNL     1      -1.700  -0.632   0.015  0.00  0.00    -0.116 S 
BRANCH   7   8
ATOM      8  C   UNL     1      -2.384  -0.077  -1.571  0.00  0.00    +0.218 C 
ATOM      9  C   UNL     1      -3.193  -1.208  -2.158  0.00  0.00    +0.121 C 
ATOM     10  N   UNL     1      -4.212  -1.927  -1.810  0.00  0.00    -0.234 NA
ATOM     11  C   UNL     1      -4.485  -2.813  -2.787  0.00  0.00    +0.224 C 
ATOM     12  N   UNL     1      -3.654  -2.693  -3.793  0.00  0.00    -0.215 NA
ATOM     13  C   UNL     1      -2.780  -1.694  -3.503  0.00  0.00    +0.182 C 
ATOM     14  N   UNL     1      -1.761  -1.132  -4.093  0.00  0.00    -0.197 NA
ATOM     15  C   UNL     1      -1.051  -0.130  -3.561  0.00  0.00    +0.222 C 
ATOM     16  N   UNL     1      -1.271   0.409  -2.410  0.00  0.00    -0.235 NA
ATOM     17 CL   UNL     1       0.274   0.492  -4.495  0.00  0.00    -0.041 Cl
ENDBRANCH   7   8
ENDBRANCH   6   7
ENDBRANCH   1   6
BRANCH   3  18
ATOM     18  C   UNL     1       2.787  -1.004   2.431  0.00  0.00    +0.108 C 
BRANCH  18  19
ATOM     19  C   UNL     1       4.296  -0.916   2.195  0.00  0.00    +0.052 C 
BRANCH  19  20
ATOM     20  C   UNL     1       5.025  -1.415   3.416  0.00  0.00    -0.040 C 
ATOM     21  C   UNL     1       5.500  -2.664   3.625  0.00  0.00    +0.002 A 
ATOM     22  C   UNL     1       5.481  -3.884   2.810  0.00  0.00    +0.048 A 
ATOM     23  C   UNL     1       6.052  -5.010   3.300  0.00  0.00    +0.124 A 
ATOM     24  C   UNL     1       6.660  -5.038   4.565  0.00  0.00    +0.040 A 
ATOM     25  C   UNL     1       6.716  -3.957   5.371  0.00  0.00    +0.029 A 
ATOM     26  C   UNL     1       6.148  -2.721   4.956  0.00  0.00    +0.043 A 
ATOM     27  N   UNL     1       6.075  -1.552   5.546  0.00  0.00    -0.380 N 
ATOM     28  C   UNL     1       5.379  -0.620   4.653  0.00  0.00    +0.144 C 
ATOM     29  F   UNL     1       6.036  -6.135   2.552  0.00  0.00    -0.205 F 
ATOM     30  H   UNL     1       6.427  -1.339   6.424  0.00  0.00    +0.160 HD
ENDBRANCH  19  20
ENDBRANCH  18  19
ENDBRANCH   3  18
TORSDOF 6
