REMARK  Name = ZINC10000991
REMARK  9 active torsions:
REMARK  status: ('A' for Active; 'I' for Inactive)
REMARK    1  A    between atoms: C_1  and  C_2
REMARK    2  A    between atoms: C_2  and  C_3
REMARK    3  A    between atoms: C_2  and  C_4
REMARK    4  A    between atoms: C_4  and  C_6
REMARK    5  A    between atoms: C_4  and  N_19
REMARK    6  A    between atoms: N_8  and  N_9
REMARK    7  A    between atoms: C_10  and  C_11
REMARK    8  A    between atoms: C_14  and  O_18
REMARK    9  A    between atoms: C_20  and  C_22
REMARK                            x       y       z     vdW  Elec       q    Type
REMARK                         _______ _______ _______ _____ _____    ______ ____
ROOT
ATOM      1  C   UNL     1      -0.687   1.690  -1.508  0.00  0.00    +0.163 C 
ENDROOT
BRANCH   1   2
ATOM      2  C   UNL     1      -2.131   1.268  -1.414  0.00  0.00    +0.253 C 
ATOM      3  O   UNL     1      -3.011   2.044  -1.722  0.00  0.00    -0.272 OA
ATOM      4  N   UNL     1      -2.444   0.029  -0.987  0.00  0.00    -0.205 N 
ATOM      5  H   UNL     1      -1.740  -0.615  -0.809  0.00  0.00    +0.177 HD
BRANCH   4   6
ATOM      6  N   UNL     1      -3.785  -0.331  -0.802  0.00  0.00    -0.188 NA
ATOM      7  C   UNL     1      -4.087  -1.524  -0.391  0.00  0.00    +0.138 C 
BRANCH   7   8
ATOM      8  C   UNL     1      -5.498  -1.902  -0.196  0.00  0.00    -0.004 A 
ATOM      9  C   UNL     1      -6.513  -0.974  -0.447  0.00  0.00    +0.013 A 
ATOM     10  C   UNL     1      -7.832  -1.333  -0.267  0.00  0.00    +0.047 A 
ATOM     11  C   UNL     1      -8.152  -2.611   0.172  0.00  0.00    +0.131 A 
ATOM     12  C   UNL     1      -7.147  -3.535   0.427  0.00  0.00    +0.060 A 
ATOM     13  C   UNL     1      -5.825  -3.186   0.246  0.00  0.00    +0.028 A 
ATOM     14 BR   UNL     1      -7.592  -5.273   1.025  0.00  0.00    -0.047 Br
BRANCH  11  15
ATOM     15  O   UNL     1      -9.454  -2.958   0.352  0.00  0.00    -0.506 OA
ATOM     16  H   UNL     1      -9.788  -2.781   1.242  0.00  0.00    +0.292 HD
ENDBRANCH  11  15
ENDBRANCH   7   8
ENDBRANCH   4   6
ENDBRANCH   1   2
BRANCH   1  17
ATOM     17  N   UNL     1      -0.577   2.863  -2.378  0.00  0.00    -0.300 N 
ATOM     18  C   UNL     1       0.582   3.122  -3.017  0.00  0.00    +0.245 C 
ATOM     19  O   UNL     1       1.535   2.383  -2.870  0.00  0.00    -0.270 OA
ATOM     20  H   UNL     1      -1.338   3.453  -2.496  0.00  0.00    +0.150 HD
BRANCH  18  21
ATOM     21  C   UNL     1       0.693   4.305  -3.895  0.00  0.00    +0.037 A 
ATOM     22  C   UNL     1      -0.403   5.153  -4.070  0.00  0.00    +0.016 A 
ATOM     23  C   UNL     1      -0.292   6.259  -4.885  0.00  0.00    +0.039 A 
ATOM     24  C   UNL     1       0.901   6.523  -5.541  0.00  0.00    +0.123 A 
ATOM     25  C   UNL     1       1.990   5.681  -5.376  0.00  0.00    +0.039 A 
ATOM     26  C   UNL     1       1.892   4.576  -4.558  0.00  0.00    +0.016 A 
ATOM     27  F   UNL     1       1.003   7.605  -6.344  0.00  0.00    -0.205 F 
ENDBRANCH  18  21
ENDBRANCH   1  17
BRANCH   1  29
ATOM     28  C   UNL     1       1.325   2.373  -0.193  0.00  0.00    +0.009 C 
ATOM     29  C   UNL     1      -0.166   2.041  -0.112  0.00  0.00    +0.012 C 
ATOM     30  C   UNL     1      -0.930   3.252   0.428  0.00  0.00    +0.009 C 
ENDBRANCH   1  29
TORSDOF 7
