REMARK  Name = ZINC50648847
REMARK  6 active torsions:
REMARK  status: ('A' for Active; 'I' for Inactive)
REMARK    1  A    between atoms: C_1  and  C_2
REMARK    2  A    between atoms: C_2  and  C_3
REMARK    3  A    between atoms: C_8  and  N_9
REMARK    4  A    between atoms: N_9  and  S_10
REMARK    5  A    between atoms: S_10  and  C_13
REMARK    6  A    between atoms: C_18  and  N_19
REMARK                            x       y       z     vdW  Elec       q    Type
REMARK                         _______ _______ _______ _____ _____    ______ ____
ROOT
ATOM      1  S   UNL     1      -2.343  -0.478  -3.810  0.00  0.00    +0.095 S 
ATOM      2  O   UNL     1      -2.556  -1.870  -3.998  0.00  0.00    -0.148 OA
ATOM      3  O   UNL     1      -3.413   0.456  -3.760  0.00  0.00    -0.148 OA
ENDROOT
BRANCH   1   4
ATOM      4  C   UNL     1      -1.274   0.048  -5.107  0.00  0.00    +0.148 A 
ATOM      5  C   UNL     1      -0.842  -0.849  -6.068  0.00  0.00    +0.034 A 
ATOM      6  C   UNL     1       0.000  -0.391  -7.072  0.00  0.00    +0.019 A 
ATOM      7  C   UNL     1       0.379   0.937  -7.083  0.00  0.00    +0.084 A 
ATOM      8  N   UNL     1      -0.048   1.770  -6.154  0.00  0.00    -0.348 N 
ATOM      9  C   UNL     1      -0.856   1.373  -5.183  0.00  0.00    +0.121 A 
ATOM     10  H   UNL     1       0.234   2.698  -6.185  0.00  0.00    +0.167 HD
BRANCH   9  11
ATOM     11  N   UNL     1      -1.287   2.287  -4.228  0.00  0.00    -0.343 N 
ATOM     12  H   UNL     1      -1.876   2.000  -3.513  0.00  0.00    +0.144 HD
ATOM     13  H   UNL     1      -0.999   3.212  -4.277  0.00  0.00    +0.144 HD
ENDBRANCH   9  11
ENDBRANCH   1   4
BRANCH   1  14
ATOM     14  N   UNL     1      -1.507  -0.315  -2.390  0.00  0.00    -0.097 NA
BRANCH  14  20
ATOM     15  C   UNL     1      -1.412  -0.526   0.013  0.00  0.00    -0.023 A 
ATOM     16  C   UNL     1      -2.015  -0.864   1.208  0.00  0.00    +0.005 A 
ATOM     17  C   UNL     1      -3.312  -1.343   1.219  0.00  0.00    +0.000 A 
ATOM     18  C   UNL     1      -4.010  -1.485   0.034  0.00  0.00    +0.002 A 
ATOM     19  C   UNL     1      -3.413  -1.148  -1.165  0.00  0.00    +0.027 A 
ATOM     20  C   UNL     1      -2.112  -0.662  -1.179  0.00  0.00    +0.077 A 
BRANCH  15  22
ATOM     21  C   UNL     1      -0.019   1.526   0.010  0.00  0.00    +0.009 C 
ATOM     22  C   UNL     1       0.002  -0.004   0.002  0.00  0.00    +0.034 C 
ENDBRANCH  15  22
ENDBRANCH  14  20
ENDBRANCH   1  14
TORSDOF 5
