REMARK  Name = ZINC33595816
REMARK  14 active torsions:
REMARK  status: ('A' for Active; 'I' for Inactive)
REMARK    1  A    between atoms: C_1  and  C_2
REMARK    2  A    between atoms: C_2  and  C_3
REMARK    3  A    between atoms: C_3  and  C_5
REMARK    4  A    between atoms: C_3  and  C_11
REMARK    5  A    between atoms: N_13  and  C_14
REMARK    6  A    between atoms: N_13  and  C_21
REMARK    7  A    between atoms: C_14  and  C_15
REMARK    8  A    between atoms: C_15  and  C_16
REMARK    9  A    between atoms: C_16  and  C_17
REMARK   10  A    between atoms: C_17  and  C_18
REMARK   11  A    between atoms: C_18  and  C_19
REMARK   12  A    between atoms: C_19  and  N_20
REMARK   13  A    between atoms: C_21  and  C_23
REMARK   14  A    between atoms: C_21  and  C_24
REMARK                            x       y       z     vdW  Elec       q    Type
REMARK                         _______ _______ _______ _____ _____    ______ ____
ROOT
ATOM      1  C   UNL     1      -2.796  -0.009   0.038  0.00  0.00    +0.224 C 
ATOM      2  O   UNL     1      -2.495  -0.395   1.148  0.00  0.00    -0.275 OA
ATOM      3  N   UNL     1      -2.346   1.181  -0.406  0.00  0.00    -0.291 N 
ENDROOT
BRANCH   3   4
ATOM      4  C   UNL     1      -1.411   1.961   0.409  0.00  0.00    +0.139 C 
ATOM      5  C   UNL     1      -2.004   2.175   1.803  0.00  0.00    +0.036 C 
BRANCH   4   6
ATOM      6  C   UNL     1      -0.106   1.217   0.526  0.00  0.00    +0.131 A 
ATOM      7  N   UNL     1       1.011   1.923   0.773  0.00  0.00    -0.232 NA
ATOM      8  H   UNL     1      -1.067  -0.602   0.185  0.00  0.00    +0.170 HD
ATOM      9  C   UNL     1       2.232   1.288   0.884  0.00  0.00    +0.078 A 
ATOM     10  C   UNL     1       3.403   1.987   1.143  0.00  0.00    +0.028 A 
ATOM     11  C   UNL     1       4.596   1.304   1.253  0.00  0.00    +0.002 A 
ATOM     12  C   UNL     1       4.638  -0.076   1.111  0.00  0.00    +0.001 A 
ATOM     13  C   UNL     1       3.485  -0.788   0.857  0.00  0.00    +0.015 A 
ATOM     14  C   UNL     1       2.273  -0.111   0.744  0.00  0.00    +0.065 A 
ATOM     15  C   UNL     1       1.006  -0.814   0.474  0.00  0.00    +0.259 A 
ATOM     16  O   UNL     1       0.977  -2.025   0.339  0.00  0.00    -0.267 OA
ATOM     17  N   UNL     1      -0.119  -0.080   0.384  0.00  0.00    -0.309 N 
ENDBRANCH   4   6
ENDBRANCH   3   4
BRANCH   1  18
ATOM     18  C   UNL     1      -3.673  -0.859  -0.844  0.00  0.00    +0.105 C 
BRANCH  18  19
ATOM     19  C   UNL     1      -5.059  -0.930  -0.256  0.00  0.00    -0.036 A 
ATOM     20  C   UNL     1      -5.239  -1.379   1.039  0.00  0.00    +0.004 A 
ATOM     21  C   UNL     1      -6.509  -1.439   1.580  0.00  0.00    +0.000 A 
ATOM     22  C   UNL     1      -7.601  -1.059   0.823  0.00  0.00    +0.000 A 
ATOM     23  C   UNL     1      -7.423  -0.615  -0.474  0.00  0.00    +0.000 A 
ATOM     24  C   UNL     1      -6.151  -0.550  -1.013  0.00  0.00    +0.004 A 
ENDBRANCH  18  19
BRANCH  18  26
ATOM     25  C   UNL     1      -1.752  -2.218  -1.683  0.00  0.00    +0.005 C 
ATOM     26  C   UNL     1      -3.087  -2.270  -0.938  0.00  0.00    +0.014 C 
ENDBRANCH  18  26
ENDBRANCH   1  18
BRANCH   3  27
ATOM     27  C   UNL     1      -2.792   1.696  -1.703  0.00  0.00    +0.108 C 
BRANCH  27  28
ATOM     28  C   UNL     1      -1.780   1.306  -2.782  0.00  0.00    +0.019 C 
BRANCH  28  29
ATOM     29  C   UNL     1      -2.179   1.949  -4.112  0.00  0.00    +0.001 C 
BRANCH  29  30
ATOM     30  C   UNL     1      -1.167   1.560  -5.191  0.00  0.00    -0.002 C 
BRANCH  30  31
ATOM     31  C   UNL     1      -1.566   2.203  -6.520  0.00  0.00    -0.020 C 
BRANCH  31  32
ATOM     32  C   UNL     1      -0.553   1.813  -7.599  0.00  0.00    -0.086 C 
BRANCH  32  33
ATOM     33  N   UNL     1      -0.936   2.430  -8.876  0.00  0.00    +0.378 N 
ATOM     34  H   UNL     1      -0.208   2.150  -9.652  0.00  0.00    -0.090 HD
ATOM     35  H   UNL     1      -0.950   3.525  -8.764  0.00  0.00    -0.090 HD
ATOM     36  H   UNL     1      -1.937   2.079  -9.168  0.00  0.00    -0.090 HD
ENDBRANCH  32  33
ENDBRANCH  31  32
ENDBRANCH  30  31
ENDBRANCH  29  30
ENDBRANCH  28  29
ENDBRANCH  27  28
ENDBRANCH   3  27
TORSDOF 12
