REMARK  Name = ZINC04556992
REMARK  11 active torsions:
REMARK  status: ('A' for Active; 'I' for Inactive)
REMARK    1  A    between atoms: C_4  and  C_7
REMARK    2  A    between atoms: C_7  and  C_8
REMARK    3  A    between atoms: C_8  and  C_10
REMARK    4  A    between atoms: C_8  and  N_21
REMARK    5  A    between atoms: C_16  and  C_18
REMARK    6  A    between atoms: C_22  and  C_24
REMARK    7  A    between atoms: C_30  and  C_32
REMARK    8  A    between atoms: C_32  and  C_34
REMARK    9  A    between atoms: C_32  and  N_73
REMARK   10  A    between atoms: C_34  and  C_35
REMARK   11  A    between atoms: C_38  and  O_41
REMARK                            x       y       z     vdW  Elec       q    Type
REMARK                         _______ _______ _______ _____ _____    ______ ____
ROOT
ATOM      1  N   UNL     1      -2.338  -3.098  -0.198  0.00  0.00    -0.302 N 
ATOM      2  C   UNL     1      -2.925  -3.305  -1.393  0.00  0.00    +0.234 C 
ATOM      3  O   UNL     1      -2.388  -2.916  -2.409  0.00  0.00    -0.274 OA
ATOM      4  H   UNL     1      -2.767  -3.409   0.614  0.00  0.00    +0.150 HD
ENDROOT
BRANCH   2   5
ATOM      5  C   UNL     1      -4.250  -4.020  -1.468  0.00  0.00    +0.162 C 
ATOM      6  C   UNL     1      -4.031  -5.540  -1.671  0.00  0.00    +0.033 C 
ATOM      7  C   UNL     1      -5.369  -5.962  -2.334  0.00  0.00    +0.021 C 
ATOM      8  C   UNL     1      -5.718  -4.743  -3.214  0.00  0.00    +0.108 C 
ATOM      9  N   UNL     1      -5.002  -3.585  -2.659  0.00  0.00    -0.291 N 
ATOM     10  C   UNL     1      -5.029  -2.333  -3.156  0.00  0.00    +0.202 C 
ATOM     11  O   UNL     1      -4.331  -1.470  -2.666  0.00  0.00    -0.277 OA
BRANCH  10  12
ATOM     12  C   UNL     1      -5.927  -2.003  -4.320  0.00  0.00    +0.017 C 
BRANCH  12  15
ATOM     13  H   UNL     1      -6.000  -0.569  -5.795  0.00  0.00    -0.089 HD
ATOM     14  H   UNL     1      -5.460   0.001  -4.330  0.00  0.00    -0.089 HD
ATOM     15  N   UNL     1      -5.429  -0.783  -4.979  0.00  0.00    +0.386 N 
ATOM     16  H   UNL     1      -4.459  -0.933  -5.278  0.00  0.00    -0.089 HD
ENDBRANCH  12  15
BRANCH  12  17
ATOM     17  C   UNL     1      -7.357  -1.794  -3.818  0.00  0.00    +0.028 C 
BRANCH  17  18
ATOM     18  C   UNL     1      -8.277  -1.587  -4.994  0.00  0.00    -0.048 A 
ATOM     19  C   UNL     1      -8.510  -0.310  -5.471  0.00  0.00    +0.007 A 
ATOM     20  C   UNL     1      -9.348  -0.118  -6.552  0.00  0.00    +0.045 A 
ATOM     21  C   UNL     1      -9.965  -1.206  -7.152  0.00  0.00    +0.117 A 
ATOM     22  C   UNL     1      -9.735  -2.486  -6.668  0.00  0.00    +0.045 A 
ATOM     23  C   UNL     1      -8.891  -2.673  -5.590  0.00  0.00    +0.007 A 
BRANCH  21  24
ATOM     24  O   UNL     1     -10.794  -1.019  -8.213  0.00  0.00    -0.507 OA
ATOM     25  H   UNL     1     -11.720  -0.880  -7.969  0.00  0.00    +0.292 HD
ENDBRANCH  21  24
ENDBRANCH  17  18
ENDBRANCH  12  17
ENDBRANCH  10  12
ENDBRANCH   2   5
BRANCH   1  26
ATOM     26  C   UNL     1      -1.050  -2.402  -0.126  0.00  0.00    +0.163 C 
BRANCH  26  27
ATOM     27  C   UNL     1      -1.284  -0.914  -0.107  0.00  0.00    +0.237 C 
ATOM     28  O   UNL     1      -2.385  -0.476   0.153  0.00  0.00    -0.274 OA
ATOM     29  N   UNL     1      -0.270  -0.069  -0.379  0.00  0.00    -0.288 N 
ATOM     30  C   UNL     1      -0.368   1.401  -0.441  0.00  0.00    +0.109 C 
ATOM     31  C   UNL     1       0.804   1.839  -1.353  0.00  0.00    +0.021 C 
ATOM     32  C   UNL     1       1.912   0.834  -0.940  0.00  0.00    +0.033 C 
ATOM     33  C   UNL     1       1.119  -0.460  -0.663  0.00  0.00    +0.162 C 
BRANCH  33  34
ATOM     34  C   UNL     1       1.161  -1.357  -1.874  0.00  0.00    +0.231 C 
ATOM     35  O   UNL     1       0.133  -1.646  -2.450  0.00  0.00    -0.274 OA
ATOM     36  N   UNL     1       2.340  -1.837  -2.317  0.00  0.00    -0.328 N 
ATOM     37  H   UNL     1       3.161  -1.606  -1.855  0.00  0.00    +0.145 HD
ATOM     38  H   UNL     1       2.367  -2.414  -3.096  0.00  0.00    +0.145 HD
ENDBRANCH  33  34
ENDBRANCH  26  27
BRANCH  26  39
ATOM     39  C   UNL     1      -0.316  -2.820   1.150  0.00  0.00    +0.067 C 
BRANCH  39  43
ATOM     40  C   UNL     1       0.741  -6.951   0.899  0.00  0.00    +0.000 A 
ATOM     41  C   UNL     1       1.615  -5.984   0.436  0.00  0.00    +0.000 A 
ATOM     42  C   UNL     1       1.272  -4.647   0.517  0.00  0.00    +0.004 A 
ATOM     43  C   UNL     1       0.057  -4.277   1.061  0.00  0.00    -0.045 A 
ATOM     44  C   UNL     1      -0.814  -5.243   1.529  0.00  0.00    +0.004 A 
ATOM     45  C   UNL     1      -0.474  -6.580   1.444  0.00  0.00    +0.000 A 
ENDBRANCH  39  43
ENDBRANCH  26  39
ENDBRANCH   1  26
TORSDOF 11
