REMARK  Name = ZINC20999598
REMARK  11 active torsions:
REMARK  status: ('A' for Active; 'I' for Inactive)
REMARK    1  A    between atoms: C_1  and  C_2
REMARK    2  A    between atoms: C_2  and  C_4
REMARK    3  A    between atoms: C_2  and  N_7
REMARK    4  A    between atoms: C_4  and  O_5
REMARK    5  A    between atoms: O_5  and  C_6
REMARK    6  A    between atoms: N_7  and  C_8
REMARK    7  A    between atoms: C_8  and  C_9
REMARK    8  A    between atoms: C_12  and  O_27
REMARK    9  A    between atoms: C_13  and  C_15
REMARK   10  A    between atoms: C_19  and  C_21
REMARK   11  A    between atoms: O_27  and  C_28
REMARK                            x       y       z     vdW  Elec       q    Type
REMARK                         _______ _______ _______ _____ _____    ______ ____
ROOT
ATOM      1  C   UNL     1      -7.379   3.961  -0.419  0.00  0.00    -0.064 A 
ATOM      2  C   UNL     1      -8.082   4.691   0.524  0.00  0.00    +0.005 A 
ATOM      3  C   UNL     1      -7.422   5.577   1.353  0.00  0.00    +0.046 A 
ATOM      4  C   UNL     1      -6.049   5.735   1.248  0.00  0.00    +0.128 A 
ATOM      5  C   UNL     1      -5.338   5.003   0.293  0.00  0.00    +0.024 A 
ATOM      6  C   UNL     1      -6.013   4.112  -0.538  0.00  0.00    +0.014 A 
ENDROOT
BRANCH   5   7
ATOM      7  C   UNL     1      -3.869   5.170   0.169  0.00  0.00    -0.014 A 
ATOM      8  C   UNL     1      -3.317   6.447   0.065  0.00  0.00    +0.008 A 
ATOM      9  C   UNL     1      -1.950   6.603  -0.050  0.00  0.00    +0.001 A 
ATOM     10  C   UNL     1      -1.122   5.498  -0.064  0.00  0.00    +0.010 A 
ATOM     11  C   UNL     1      -1.662   4.217   0.040  0.00  0.00    +0.003 A 
ATOM     12  C   UNL     1      -3.039   4.053   0.152  0.00  0.00    +0.018 A 
BRANCH  11  13
ATOM     13  C   UNL     1      -0.770   3.031   0.026  0.00  0.00    +0.092 A 
ATOM     14  C   UNL     1       0.638   3.052   0.012  0.00  0.00    +0.049 A 
ATOM     15  C   UNL     1       1.071   1.773   0.001  0.00  0.00    +0.105 A 
ATOM     16  N   UNL     1      -0.011   0.966   0.007  0.00  0.00    -0.284 N 
ATOM     17  H   UNL     1       0.117  -0.127   0.005  0.00  0.00    +0.188 HD
ATOM     18  N   UNL     1      -1.156   1.772   0.017  0.00  0.00    -0.174 NA
ENDBRANCH  11  13
ENDBRANCH   5   7
BRANCH   4  19
ATOM     19  O   UNL     1      -5.398   6.602   2.067  0.00  0.00    -0.495 OA
ATOM     20  C   UNL     1      -6.191   7.315   3.019  0.00  0.00    +0.277 C 
ENDBRANCH   4  19
BRANCH   1  21
ATOM     21  C   UNL     1      -8.109   2.996  -1.318  0.00  0.00    -0.046 C 
BRANCH  21  22
ATOM     22  N   UNL     1      -8.153   1.672  -0.683  0.00  0.00    +0.385 N 
ATOM     23  H   UNL     1      -8.674   1.761   0.281  0.00  0.00    -0.085 HD
ATOM     24  H   UNL     1      -7.122   1.328  -0.513  0.00  0.00    -0.085 HD
BRANCH  22  26
ATOM     25  C   UNL     1      -7.881   0.111  -2.550  0.00  0.00    -0.011 C 
ATOM     26  C   UNL     1      -8.858   0.704  -1.533  0.00  0.00    -0.048 C 
BRANCH  26  27
ATOM     27  C   UNL     1      -9.431  -0.416  -0.663  0.00  0.00    +0.143 C 
BRANCH  27  28
ATOM     28  O   UNL     1      -8.360  -1.149  -0.064  0.00  0.00    -0.385 OA
ATOM     29  C   UNL     1      -8.789  -2.224   0.774  0.00  0.00    +0.193 C 
ENDBRANCH  27  28
ENDBRANCH  26  27
ENDBRANCH  22  26
ENDBRANCH  21  22
ENDBRANCH   1  21
TORSDOF 8
