REMARK  Name = ZINC36290278
REMARK  5 active torsions:
REMARK  status: ('A' for Active; 'I' for Inactive)
REMARK    1  A    between atoms: C_1  and  O_2
REMARK    2  A    between atoms: O_2  and  C_3
REMARK    3  A    between atoms: C_6  and  C_9
REMARK    4  A    between atoms: C_14  and  N_22
REMARK    5  A    between atoms: C_15  and  C_17
REMARK                            x       y       z     vdW  Elec       q    Type
REMARK                         _______ _______ _______ _____ _____    ______ ____
ROOT
ATOM      1  C   UNL     1       2.493  -2.493  -4.364  0.00  0.00    +0.064 A 
ATOM      2  C   UNL     1       3.818  -2.348  -4.552  0.00  0.00    +0.075 A 
ATOM      3  S   UNL     1       4.092  -3.309  -6.031  0.00  0.00    -0.057 S 
ATOM      4  C   UNL     1       2.415  -3.837  -6.292  0.00  0.00    +0.180 A 
ATOM      5  N   UNL     1       1.743  -3.260  -5.241  0.00  0.00    -0.274 N 
ATOM      6  C   UNL     1       0.417  -3.649  -5.397  0.00  0.00    +0.132 A 
ATOM      7  C   UNL     1       0.348  -4.434  -6.510  0.00  0.00    +0.147 A 
ATOM      8  N   UNL     1       1.599  -4.519  -7.038  0.00  0.00    -0.216 NA
ENDROOT
BRANCH   1  12
ATOM      9  C   UNL     1       0.606  -0.607  -1.056  0.00  0.00    +0.120 A 
ATOM     10  C   UNL     1       1.173   0.164  -2.062  0.00  0.00    +0.046 A 
ATOM     11  C   UNL     1       1.786  -0.444  -3.136  0.00  0.00    +0.013 A 
ATOM     12  C   UNL     1       1.837  -1.837  -3.212  0.00  0.00    -0.000 A 
ATOM     13  C   UNL     1       1.266  -2.609  -2.199  0.00  0.00    +0.013 A 
ATOM     14  C   UNL     1       0.659  -1.993  -1.125  0.00  0.00    +0.046 A 
BRANCH   9  16
ATOM     15  C   UNL     1      -0.017   1.425   0.010  0.00  0.00    +0.277 C 
ATOM     16  O   UNL     1       0.002  -0.004   0.002  0.00  0.00    -0.495 OA
ENDBRANCH   9  16
ENDBRANCH   1  12
BRANCH   7  17
ATOM     17  C   UNL     1      -0.869  -5.068  -7.052  0.00  0.00    +0.156 A 
ATOM     18  C   UNL     1      -1.149  -5.264  -8.370  0.00  0.00    +0.051 A 
ATOM     19  C   UNL     1      -2.407  -5.900  -8.428  0.00  0.00    +0.042 A 
ATOM     20  C   UNL     1      -2.828  -6.059  -7.159  0.00  0.00    +0.196 A 
ATOM     21  O   UNL     1      -1.894  -5.560  -6.329  0.00  0.00    -0.461 OA
ENDBRANCH   7  17
BRANCH   6  22
ATOM     22  N   UNL     1      -0.649  -3.301  -4.565  0.00  0.00    -0.342 N 
ATOM     23  H   UNL     1      -0.496  -2.735  -3.793  0.00  0.00    +0.144 HD
ATOM     24  H   UNL     1      -1.542  -3.626  -4.760  0.00  0.00    +0.144 HD
ENDBRANCH   6  22
TORSDOF 4
