REMARK  Name = ZINC36047426
REMARK  4 active torsions:
REMARK  status: ('A' for Active; 'I' for Inactive)
REMARK    1  A    between atoms: C_3  and  N_8
REMARK    2  A    between atoms: C_12  and  C_13
REMARK    3  A    between atoms: C_16  and  O_22
REMARK    4  A    between atoms: C_17  and  N_19
REMARK                            x       y       z     vdW  Elec       q    Type
REMARK                         _______ _______ _______ _____ _____    ______ ____
ROOT
ATOM      1  N   UNL     1       3.753   1.857   1.244  0.00  0.00    -0.197 N 
ATOM      2  C   UNL     1       4.851   1.295   0.769  0.00  0.00    +0.265 C 
ATOM      3  O   UNL     1       4.898   0.108   0.501  0.00  0.00    -0.269 OA
ATOM      4  C   UNL     1       6.018   2.179   0.579  0.00  0.00    +0.080 C 
ATOM      5  C   UNL     1       7.259   1.886   0.115  0.00  0.00    +0.028 C 
ATOM      6  S   UNL     1       5.347   3.742   1.129  0.00  0.00    -0.025 S 
ATOM      7  C   UNL     1       3.703   3.173   1.534  0.00  0.00    +0.290 C 
ATOM      8  O   UNL     1       2.767   3.817   1.967  0.00  0.00    -0.262 OA
ENDROOT
BRANCH   1  11
ATOM      9  C   UNL     1       0.344   0.516   0.893  0.00  0.00    +0.003 A 
ATOM     10  C   UNL     1       1.467   1.295   0.693  0.00  0.00    +0.024 A 
ATOM     11  C   UNL     1       2.612   1.068   1.445  0.00  0.00    +0.046 A 
ATOM     12  C   UNL     1       2.624   0.057   2.397  0.00  0.00    +0.044 A 
ATOM     13  C   UNL     1       1.498  -0.719   2.593  0.00  0.00    +0.043 A 
ATOM     14  C   UNL     1       0.359  -0.490   1.842  0.00  0.00    +0.020 A 
ATOM     15 CL   UNL     1       1.512  -1.983   3.783  0.00  0.00    -0.083 Cl
ENDBRANCH   1  11
BRANCH   5  16
ATOM     16  C   UNL     1       8.329   2.889   0.194  0.00  0.00    -0.021 A 
ATOM     17  C   UNL     1       8.125   4.079   0.904  0.00  0.00    +0.011 A 
ATOM     18  C   UNL     1       9.131   5.016   0.976  0.00  0.00    +0.048 A 
ATOM     19  C   UNL     1      10.348   4.782   0.344  0.00  0.00    +0.147 A 
ATOM     20  C   UNL     1      10.555   3.603  -0.362  0.00  0.00    +0.168 A 
ATOM     21  C   UNL     1       9.558   2.657  -0.435  0.00  0.00    +0.044 A 
BRANCH  20  22
ATOM     22  N   UNL     1      11.853   3.363  -1.032  0.00  0.00    +0.060 N 
ATOM     23  O   UNL     1      12.035   2.337  -1.647  0.00  0.00    -0.126 OA
ATOM     24  O   UNL     1      12.731   4.191  -0.965  0.00  0.00    -0.126 OA
ENDBRANCH  20  22
BRANCH  19  25
ATOM     25  O   UNL     1      11.336   5.710   0.417  0.00  0.00    -0.504 OA
ATOM     26  H   UNL     1      11.930   5.594   1.172  0.00  0.00    +0.292 HD
ENDBRANCH  19  25
ENDBRANCH   5  16
TORSDOF 4
