REMARK  Name = ZINC67287779
REMARK  8 active torsions:
REMARK  status: ('A' for Active; 'I' for Inactive)
REMARK    1  A    between atoms: C_1  and  C_2
REMARK    2  A    between atoms: C_2  and  C_3
REMARK    3  A    between atoms: C_3  and  C_4
REMARK    4  A    between atoms: C_3  and  C_5
REMARK    5  A    between atoms: C_3  and  O_22
REMARK    6  A    between atoms: C_5  and  N_6
REMARK    7  A    between atoms: N_9  and  C_10
REMARK    8  A    between atoms: C_13  and  N_17
REMARK                            x       y       z     vdW  Elec       q    Type
REMARK                         _______ _______ _______ _____ _____    ______ ____
ROOT
ATOM      1  N   UNL     1       1.296  -2.495  -2.545  0.00  0.00    -0.296 N 
ATOM      2  C   UNL     1       1.359  -3.815  -2.811  0.00  0.00    +0.304 C 
ATOM      3  O   UNL     1       0.840  -4.613  -2.056  0.00  0.00    -0.253 OA
ATOM      4  N   UNL     1       1.998  -4.249  -3.916  0.00  0.00    -0.269 N 
ATOM      5  H   UNL     1       1.711  -1.858  -3.147  0.00  0.00    +0.150 HD
ATOM      6  H   UNL     1       2.358  -3.610  -4.551  0.00  0.00    +0.156 HD
ENDROOT
BRANCH   4   7
ATOM      7  C   UNL     1       2.143  -5.623  -4.146  0.00  0.00    +0.036 A 
ATOM      8  C   UNL     1       3.297  -6.109  -4.747  0.00  0.00    +0.025 A 
ATOM      9  C   UNL     1       3.440  -7.463  -4.974  0.00  0.00    +0.031 A 
ATOM     10  C   UNL     1       2.429  -8.340  -4.603  0.00  0.00    +0.084 A 
ATOM     11  C   UNL     1       1.275  -7.854  -4.002  0.00  0.00    +0.068 A 
ATOM     12  C   UNL     1       1.134  -6.500  -3.769  0.00  0.00    +0.045 A 
ATOM     13 CL   UNL     1       0.011  -8.951  -3.538  0.00  0.00    -0.081 Cl
BRANCH  10  14
ATOM     14  N   UNL     1       2.575  -9.716  -4.835  0.00  0.00    -0.238 N 
ATOM     15  C   UNL     1       3.646 -10.470  -4.503  0.00  0.00    +0.114 A 
ATOM     16  C   UNL     1       3.394 -11.740  -4.896  0.00  0.00    +0.041 A 
ATOM     17  C   UNL     1       2.127 -11.764  -5.488  0.00  0.00    +0.135 A 
ATOM     18  N   UNL     1       1.632 -10.553  -5.447  0.00  0.00    -0.175 NA
ENDBRANCH  10  14
ENDBRANCH   4   7
BRANCH   1  19
ATOM     19  C   UNL     1       0.602  -2.023  -1.344  0.00  0.00    +0.140 C 
BRANCH  19  20
ATOM     20  C   UNL     1       0.678  -0.496  -1.279  0.00  0.00    +0.078 C 
ATOM     21  C   UNL     1       0.013   0.101  -2.521  0.00  0.00    +0.043 C 
BRANCH  20  23
ATOM     22  C   UNL     1      -0.081   1.527  -0.024  0.00  0.00    +0.007 C 
ATOM     23  C   UNL     1      -0.048  -0.003  -0.025  0.00  0.00    +0.032 C 
ENDBRANCH  20  23
BRANCH  20  24
ATOM     24  O   UNL     1       2.046  -0.088  -1.229  0.00  0.00    -0.387 OA
ATOM     25  H   UNL     1       2.531  -0.431  -0.466  0.00  0.00    +0.210 HD
ENDBRANCH  20  24
ENDBRANCH  19  20
ENDBRANCH   1  19
TORSDOF 6
