REMARK  Name = ZINC54390507
REMARK  7 active torsions:
REMARK  status: ('A' for Active; 'I' for Inactive)
REMARK    1  A    between atoms: C_1  and  C_2
REMARK    2  A    between atoms: C_4  and  C_7
REMARK    3  A    between atoms: C_7  and  O_8
REMARK    4  A    between atoms: O_8  and  N_9
REMARK    5  A    between atoms: C_10  and  C_11
REMARK    6  A    between atoms: C_12  and  N_22
REMARK    7  A    between atoms: N_18  and  C_21
REMARK                            x       y       z     vdW  Elec       q    Type
REMARK                         _______ _______ _______ _____ _____    ______ ____
ROOT
ATOM      1  C   UNL     1       2.841  -6.426  -3.972  0.00  0.00    +0.098 C 
ATOM      2  C   UNL     1       4.023  -6.911  -4.462  0.00  0.00    +0.041 C 
ATOM      3  C   UNL     1       3.665  -8.110  -5.292  0.00  0.00    +0.076 C 
ATOM      4  C   UNL     1       4.384  -9.374  -4.790  0.00  0.00    +0.032 C 
ATOM      5  C   UNL     1       4.410 -10.307  -6.021  0.00  0.00    +0.003 C 
ATOM      6  C   UNL     1       4.265  -9.405  -7.261  0.00  0.00    +0.003 C 
ATOM      7  C   UNL     1       4.157  -7.954  -6.742  0.00  0.00    +0.032 C 
ATOM      8  N   UNL     1       2.217  -8.257  -5.231  0.00  0.00    -0.289 N 
ATOM      9  C   UNL     1       1.741  -7.267  -4.449  0.00  0.00    +0.252 C 
ATOM     10  O   UNL     1       0.567  -7.095  -4.181  0.00  0.00    -0.270 OA
ATOM     11  C   UNL     1       1.423  -9.295  -5.893  0.00  0.00    +0.133 C 
ENDROOT
BRANCH   1  13
ATOM     12  N   UNL     1       3.757  -4.636  -2.648  0.00  0.00    -0.068 NA
ATOM     13  C   UNL     1       2.697  -5.246  -3.098  0.00  0.00    +0.169 C 
ATOM     14  N   UNL     1       1.436  -4.787  -2.755  0.00  0.00    -0.340 N 
ATOM     15  H   UNL     1       1.341  -3.970  -2.241  0.00  0.00    +0.144 HD
ATOM     16  H   UNL     1       0.649  -5.283  -3.029  0.00  0.00    +0.144 HD
BRANCH  12  17
ATOM     17  O   UNL     1       3.620  -3.503  -1.808  0.00  0.00    -0.384 OA
BRANCH  17  18
ATOM     18  C   UNL     1       4.863  -2.935  -1.391  0.00  0.00    +0.339 C 
BRANCH  18  22
ATOM     19  C   UNL     1       4.014  -0.018   2.699  0.00  0.00    +0.069 C 
ATOM     20  C   UNL     1       4.226  -0.451   1.271  0.00  0.00    +0.081 A 
ATOM     21  C   UNL     1       4.461  -1.766   0.833  0.00  0.00    +0.074 A 
ATOM     22  C   UNL     1       4.598  -1.744  -0.507  0.00  0.00    +0.177 A 
ATOM     23  O   UNL     1       4.458  -0.474  -0.916  0.00  0.00    -0.356 OA
ATOM     24  N   UNL     1       4.218   0.328   0.226  0.00  0.00    -0.083 NA
ENDBRANCH  18  22
ENDBRANCH  17  18
ENDBRANCH  12  17
ENDBRANCH   1  13
BRANCH   2  25
ATOM     25  N   UNL     1       5.268  -6.409  -4.242  0.00  0.00    -0.359 N 
ATOM     26  H   UNL     1       5.391  -5.670  -3.627  0.00  0.00    +0.142 HD
ATOM     27  H   UNL     1       6.033  -6.791  -4.700  0.00  0.00    +0.142 HD
ENDBRANCH   2  25
TORSDOF 5
