REMARK  Name = ZINC49472689
REMARK  7 active torsions:
REMARK  status: ('A' for Active; 'I' for Inactive)
REMARK    1  A    between atoms: C_1  and  C_2
REMARK    2  A    between atoms: C_2  and  C_3
REMARK    3  A    between atoms: C_2  and  C_4
REMARK    4  A    between atoms: C_2  and  C_5
REMARK    5  A    between atoms: C_15  and  N_17
REMARK    6  A    between atoms: C_18  and  C_20
REMARK    7  A    between atoms: C_20  and  N_21
REMARK                            x       y       z     vdW  Elec       q    Type
REMARK                         _______ _______ _______ _____ _____    ______ ____
ROOT
ATOM      1  C   UNL     1       0.666  -0.407  -1.257  0.00  0.00    -0.028 A 
ATOM      2  C   UNL     1       1.296   0.458  -2.092  0.00  0.00    +0.075 A 
ATOM      3  C   UNL     1       1.889  -0.009  -3.283  0.00  0.00    +0.249 A 
ATOM      4  O   UNL     1       2.450   0.785  -4.019  0.00  0.00    -0.268 OA
ATOM      5  N   UNL     1       1.852  -1.308  -3.628  0.00  0.00    -0.322 N 
ATOM      6  H   UNL     1       2.270  -1.595  -4.455  0.00  0.00    +0.169 HD
ATOM      7  C   UNL     1       1.228  -2.238  -2.823  0.00  0.00    +0.051 A 
ATOM      8  C   UNL     1       0.624  -1.823  -1.619  0.00  0.00    +0.002 A 
ATOM      9  C   UNL     1      -0.007  -2.761  -0.794  0.00  0.00    +0.012 A 
ATOM     10  C   UNL     1      -0.031  -4.076  -1.157  0.00  0.00    +0.024 A 
ATOM     11  C   UNL     1       0.569  -4.494  -2.345  0.00  0.00    +0.035 A 
ATOM     12  C   UNL     1       1.190  -3.579  -3.180  0.00  0.00    +0.049 A 
ENDROOT
BRANCH   1  14
ATOM     13  C   UNL     1       0.224   1.594   0.140  0.00  0.00    +0.015 C 
ATOM     14  C   UNL     1       0.029   0.081   0.019  0.00  0.00    -0.012 C 
ATOM     15  C   UNL     1       0.683  -0.615   1.214  0.00  0.00    +0.015 C 
ATOM     16  C   UNL     1      -1.466  -0.240  -0.003  0.00  0.00    +0.015 C 
ENDBRANCH   1  14
BRANCH  11  17
ATOM     17  N   UNL     1       0.535  -5.843  -2.700  0.00  0.00    -0.284 N 
ATOM     18  C   UNL     1       0.416  -6.196  -3.995  0.00  0.00    +0.237 C 
ATOM     19  O   UNL     1       0.418  -5.345  -4.859  0.00  0.00    -0.274 OA
ATOM     20  H   UNL     1       0.598  -6.527  -2.015  0.00  0.00    +0.155 HD
BRANCH  18  21
ATOM     21  C   UNL     1       0.279  -7.649  -4.371  0.00  0.00    +0.224 C 
BRANCH  21  22
ATOM     22  N   UNL     1       0.166  -7.769  -5.826  0.00  0.00    -0.265 N 
ATOM     23  C   UNL     1      -1.016  -7.746  -6.566  0.00  0.00    +0.091 A 
ATOM     24  C   UNL     1      -2.353  -7.617  -6.222  0.00  0.00    +0.030 A 
ATOM     25  C   UNL     1      -3.321  -7.632  -7.207  0.00  0.00    +0.002 A 
ATOM     26  C   UNL     1      -2.960  -7.776  -8.535  0.00  0.00    +0.004 A 
ATOM     27  C   UNL     1      -1.630  -7.906  -8.886  0.00  0.00    +0.048 A 
ATOM     28  C   UNL     1      -0.651  -7.891  -7.905  0.00  0.00    +0.157 A 
ATOM     29  O   UNL     1       0.700  -7.995  -7.944  0.00  0.00    -0.407 OA
ATOM     30  C   UNL     1       1.185  -7.916  -6.696  0.00  0.00    +0.422 A 
ATOM     31  O   UNL     1       2.362  -7.971  -6.395  0.00  0.00    -0.223 OA
ENDBRANCH  21  22
ENDBRANCH  18  21
ENDBRANCH  11  17
TORSDOF 4
