REMARK  Name = ZINC09434690
REMARK  8 active torsions:
REMARK  status: ('A' for Active; 'I' for Inactive)
REMARK    1  A    between atoms: C_1  and  C_2
REMARK    2  A    between atoms: C_2  and  C_4
REMARK    3  A    between atoms: C_2  and  N_12
REMARK    4  A    between atoms: C_4  and  C_5
REMARK    5  A    between atoms: C_5  and  C_6
REMARK    6  A    between atoms: C_13  and  N_23
REMARK    7  A    between atoms: N_23  and  C_24
REMARK    8  A    between atoms: C_29  and  N_30
REMARK                            x       y       z     vdW  Elec       q    Type
REMARK                         _______ _______ _______ _____ _____    ______ ____
ROOT
ATOM      1  N   UNL     1       1.454   1.452   0.118  0.00  0.00    -0.272 N 
ATOM      2  C   UNL     1       0.032   1.103   0.035  0.00  0.00    +0.194 C 
ATOM      3  C   UNL     1      -0.498   1.786  -1.201  0.00  0.00    +0.003 A 
ATOM      4  C   UNL     1      -1.739   1.832  -1.794  0.00  0.00    +0.008 A 
ATOM      5  C   UNL     1      -1.924   2.562  -2.956  0.00  0.00    +0.000 A 
ATOM      6  C   UNL     1      -0.864   3.247  -3.523  0.00  0.00    +0.001 A 
ATOM      7  C   UNL     1       0.385   3.208  -2.937  0.00  0.00    +0.013 A 
ATOM      8  C   UNL     1       0.579   2.474  -1.765  0.00  0.00    +0.043 A 
ATOM      9  C   UNL     1       1.767   2.244  -0.922  0.00  0.00    +0.249 C 
ATOM     10  O   UNL     1       2.872   2.704  -1.138  0.00  0.00    -0.270 OA
ENDROOT
BRANCH   1  12
ATOM     11  C   UNL     1       2.950   2.231   1.890  0.00  0.00    +0.028 C 
ATOM     12  C   UNL     1       2.381   1.011   1.164  0.00  0.00    +0.076 C 
BRANCH  12  13
ATOM     13  C   UNL     1       3.524   0.216   0.529  0.00  0.00    +0.027 C 
BRANCH  13  14
ATOM     14  C   UNL     1       2.970  -1.069  -0.090  0.00  0.00    +0.037 C 
BRANCH  14  15
ATOM     15  C   UNL     1       4.096  -1.851  -0.715  0.00  0.00    -0.047 A 
ATOM     16  C   UNL     1       4.434  -1.640  -2.038  0.00  0.00    +0.003 A 
ATOM     17  C   UNL     1       5.470  -2.355  -2.610  0.00  0.00    +0.000 A 
ATOM     18  C   UNL     1       6.162  -3.288  -1.861  0.00  0.00    +0.000 A 
ATOM     19  C   UNL     1       5.821  -3.503  -0.539  0.00  0.00    +0.000 A 
ATOM     20  C   UNL     1       4.788  -2.785   0.034  0.00  0.00    +0.003 A 
ENDBRANCH  14  15
ENDBRANCH  13  14
ENDBRANCH  12  13
ENDBRANCH   1  12
BRANCH   2  21
ATOM     21  N   UNL     1      -0.677   1.588   1.222  0.00  0.00    -0.320 N 
ATOM     22  H   UNL     1      -0.889   2.531   1.309  0.00  0.00    +0.148 HD
BRANCH  21  23
ATOM     23  C   UNL     1      -1.046   0.694   2.229  0.00  0.00    +0.059 A 
ATOM     24  C   UNL     1      -0.621  -0.628   2.176  0.00  0.00    +0.025 A 
ATOM     25  C   UNL     1      -0.983  -1.509   3.176  0.00  0.00    +0.002 A 
ATOM     26  C   UNL     1      -1.779  -1.079   4.223  0.00  0.00    +0.002 A 
ATOM     27  C   UNL     1      -2.208   0.234   4.275  0.00  0.00    +0.034 A 
ATOM     28  C   UNL     1      -1.845   1.121   3.281  0.00  0.00    +0.147 A 
BRANCH  28  29
ATOM     29  N   UNL     1      -2.305   2.527   3.338  0.00  0.00    +0.058 N 
ATOM     30  O   UNL     1      -2.904   2.932   4.318  0.00  0.00    -0.126 OA
ATOM     31  O   UNL     1      -2.084   3.278   2.406  0.00  0.00    -0.126 OA
ENDBRANCH  28  29
ENDBRANCH  21  23
ENDBRANCH   2  21
TORSDOF 7
