REMARK  Name = ZINC44790189
REMARK  9 active torsions:
REMARK  status: ('A' for Active; 'I' for Inactive)
REMARK    1  A    between atoms: C_1  and  C_2
REMARK    2  A    between atoms: C_2  and  C_3
REMARK    3  A    between atoms: C_3  and  C_4
REMARK    4  A    between atoms: C_4  and  C_6
REMARK    5  A    between atoms: C_4  and  N_7
REMARK    6  A    between atoms: C_8  and  C_10
REMARK    7  A    between atoms: N_13  and  S_22
REMARK    8  A    between atoms: C_16  and  C_21
REMARK    9  A    between atoms: S_22  and  C_25
REMARK                            x       y       z     vdW  Elec       q    Type
REMARK                         _______ _______ _______ _____ _____    ______ ____
ROOT
ATOM      1  C   UNL     1      -2.363  -4.316  -1.067  0.00  0.00    +0.277 C 
ATOM      2  C   UNL     1      -3.275  -3.434  -0.203  0.00  0.00    +0.185 C 
ATOM      3  N   UNL     1      -4.631  -4.007  -0.258  0.00  0.00    -0.200 N 
ATOM      4  C   UNL     1      -4.754  -5.403  -0.177  0.00  0.00    +0.093 A 
ATOM      5  C   UNL     1      -5.991  -5.979   0.063  0.00  0.00    +0.031 A 
ATOM      6  C   UNL     1      -6.107  -7.355   0.139  0.00  0.00    -0.048 A 
ATOM      7  C   UNL     1      -4.991  -8.154  -0.025  0.00  0.00    +0.007 A 
ATOM      8  C   UNL     1      -3.754  -7.585  -0.264  0.00  0.00    +0.048 A 
ATOM      9  C   UNL     1      -3.628  -6.206  -0.339  0.00  0.00    +0.144 A 
ATOM     10  O   UNL     1      -2.406  -5.655  -0.569  0.00  0.00    -0.476 OA
ATOM     11  C   UNL     1      -7.451  -7.984   0.401  0.00  0.00    +0.044 C 
ENDROOT
BRANCH   1  13
ATOM     12  N   UNL     1      -0.653  -2.584  -1.510  0.00  0.00    -0.310 N 
ATOM     13  C   UNL     1      -0.950  -3.797  -1.002  0.00  0.00    +0.256 C 
ATOM     14  O   UNL     1      -0.080  -4.471  -0.493  0.00  0.00    -0.272 OA
ATOM     15  H   UNL     1      -1.349  -2.046  -1.917  0.00  0.00    +0.149 HD
BRANCH  12  16
ATOM     16  C   UNL     1       0.721  -2.080  -1.446  0.00  0.00    +0.070 C 
ATOM     17  C   UNL     1       1.516  -2.612  -2.641  0.00  0.00    +0.028 C 
BRANCH  16  18
ATOM     18  C   UNL     1       0.706  -0.551  -1.485  0.00  0.00    +0.022 C 
BRANCH  18  20
ATOM     19  C   UNL     1       0.004   1.514  -0.265  0.00  0.00    +0.004 C 
ATOM     20  C   UNL     1       0.019  -0.016  -0.226  0.00  0.00    -0.002 C 
ENDBRANCH  18  20
ENDBRANCH  16  18
ENDBRANCH  12  16
ENDBRANCH   1  13
BRANCH   3  21
ATOM     21  S   UNL     1      -5.965  -3.038  -0.411  0.00  0.00    +0.043 S 
ATOM     22  O   UNL     1      -5.462  -1.802  -0.901  0.00  0.00    -0.155 OA
ATOM     23  O   UNL     1      -6.883  -3.802  -1.181  0.00  0.00    -0.155 OA
ATOM     24  C   UNL     1      -6.588  -2.832   1.280  0.00  0.00    +0.218 C 
ENDBRANCH   3  21
TORSDOF 5
