REMARK  Name = ZINC36504536
REMARK  13 active torsions:
REMARK  status: ('A' for Active; 'I' for Inactive)
REMARK    1  A    between atoms: C_1  and  C_2
REMARK    2  A    between atoms: C_2  and  C_3
REMARK    3  A    between atoms: C_3  and  C_4
REMARK    4  A    between atoms: C_4  and  N_5
REMARK    5  A    between atoms: C_6  and  C_8
REMARK    6  A    between atoms: C_8  and  C_10
REMARK    7  A    between atoms: C_8  and  N_19
REMARK    8  A    between atoms: C_11  and  O_18
REMARK    9  A    between atoms: C_13  and  O_17
REMARK   10  A    between atoms: C_15  and  O_16
REMARK   11  A    between atoms: N_19  and  C_20
REMARK   12  A    between atoms: C_20  and  C_21
REMARK   13  A    between atoms: C_26  and  C_28
REMARK                            x       y       z     vdW  Elec       q    Type
REMARK                         _______ _______ _______ _____ _____    ______ ____
ROOT
ATOM      1  C   UNL     1      -4.080  -4.855  -0.807  0.00  0.00    +0.200 C 
ENDROOT
BRANCH   1   2
ATOM      2  C   UNL     1      -5.107  -4.105   0.002  0.00  0.00    +0.065 A 
ATOM      3  C   UNL     1      -5.241  -4.358   1.359  0.00  0.00    +0.129 A 
ATOM      4  C   UNL     1      -6.186  -3.668   2.102  0.00  0.00    +0.091 A 
ATOM      5  C   UNL     1      -6.997  -2.724   1.489  0.00  0.00    +0.124 A 
ATOM      6  C   UNL     1      -6.862  -2.471   0.132  0.00  0.00    +0.091 A 
ATOM      7  C   UNL     1      -5.914  -3.158  -0.610  0.00  0.00    +0.129 A 
BRANCH   7   8
ATOM      8  O   UNL     1      -5.779  -2.906  -1.939  0.00  0.00    -0.506 OA
ATOM      9  H   UNL     1      -6.337  -3.459  -2.503  0.00  0.00    +0.292 HD
ENDBRANCH   7   8
BRANCH   5  10
ATOM     10  O   UNL     1      -7.924  -2.049   2.218  0.00  0.00    -0.507 OA
ATOM     11  H   UNL     1      -7.596  -1.226   2.606  0.00  0.00    +0.292 HD
ENDBRANCH   5  10
BRANCH   3  12
ATOM     12  O   UNL     1      -4.447  -5.283   1.959  0.00  0.00    -0.506 OA
ATOM     13  H   UNL     1      -3.618  -4.924   2.304  0.00  0.00    +0.292 HD
ENDBRANCH   3  12
ENDBRANCH   1   2
BRANCH   1  15
ATOM     14  N   UNL     1      -2.196  -3.253  -0.857  0.00  0.00    -0.313 N 
ATOM     15  C   UNL     1      -2.698  -4.415  -0.396  0.00  0.00    +0.238 C 
ATOM     16  O   UNL     1      -2.038  -5.107   0.350  0.00  0.00    -0.273 OA
ATOM     17  H   UNL     1      -2.724  -2.699  -1.454  0.00  0.00    +0.149 HD
BRANCH  14  18
ATOM     18  C   UNL     1      -0.853  -2.825  -0.458  0.00  0.00    +0.104 C 
BRANCH  18  19
ATOM     19  C   UNL     1      -0.529  -1.482  -1.116  0.00  0.00    +0.018 C 
BRANCH  19  21
ATOM     20  C   UNL     1       1.198   0.307  -1.358  0.00  0.00    +0.004 C 
ATOM     21  C   UNL     1       0.874  -1.036  -0.699  0.00  0.00    -0.002 C 
ENDBRANCH  19  21
ENDBRANCH  18  19
ENDBRANCH  14  18
ENDBRANCH   1  15
BRANCH   1  22
ATOM     22  N   UNL     1      -4.225  -6.293  -0.568  0.00  0.00    -0.277 N 
ATOM     23  C   UNL     1      -5.454  -6.844  -0.499  0.00  0.00    +0.237 C 
ATOM     24  O   UNL     1      -6.438  -6.149  -0.636  0.00  0.00    -0.274 OA
BRANCH  23  25
ATOM     25  C   UNL     1      -5.603  -8.323  -0.254  0.00  0.00    +0.159 C 
ATOM     26  C   UNL     1      -5.409  -9.107  -1.571  0.00  0.00    +0.041 C 
ATOM     27  C   UNL     1      -6.864  -9.244  -2.074  0.00  0.00    +0.098 C 
ATOM     28  C   UNL     1      -7.702  -9.143  -0.819  0.00  0.00    +0.214 C 
ATOM     29  O   UNL     1      -8.864  -9.476  -0.730  0.00  0.00    -0.276 OA
ATOM     30  N   UNL     1      -6.969  -8.629   0.187  0.00  0.00    -0.304 N 
ATOM     31  H   UNL     1      -7.300  -8.480   1.087  0.00  0.00    +0.149 HD
ENDBRANCH  23  25
BRANCH  22  32
ATOM     32  C   UNL     1      -3.036  -7.133  -0.403  0.00  0.00    +0.183 C 
BRANCH  32  33
ATOM     33  C   UNL     1      -2.841  -7.447   1.058  0.00  0.00    +0.122 A 
ATOM     34  C   UNL     1      -3.253  -8.564   1.684  0.00  0.00    +0.046 A 
ATOM     35  C   UNL     1      -2.864  -8.441   3.038  0.00  0.00    +0.041 A 
ATOM     36  C   UNL     1      -2.239  -7.257   3.158  0.00  0.00    +0.195 A 
ATOM     37  O   UNL     1      -2.223  -6.661   1.955  0.00  0.00    -0.466 OA
ENDBRANCH  32  33
ENDBRANCH  22  32
ENDBRANCH   1  22
TORSDOF 12
