REMARK  Name = ZINC34132282
REMARK  3 active torsions:
REMARK  status: ('A' for Active; 'I' for Inactive)
REMARK    1  A    between atoms: C_3  and  O_21
REMARK    2  A    between atoms: C_4  and  C_8
REMARK    3  A    between atoms: C_16  and  O_20
REMARK                            x       y       z     vdW  Elec       q    Type
REMARK                         _______ _______ _______ _____ _____    ______ ____
ROOT
ATOM      1  C   UNL     1       3.711  -0.716  -0.038  0.00  0.00    -0.031 C 
ATOM      2  C   UNL     1       4.263  -0.741  -1.463  0.00  0.00    +0.011 C 
ATOM      3  C   UNL     1       4.481   0.686  -1.969  0.00  0.00    +0.005 C 
ATOM      4  C   UNL     1       5.023   0.635  -3.400  0.00  0.00    +0.000 C 
ATOM      5  C   UNL     1       6.348  -0.128  -3.423  0.00  0.00    +0.003 C 
ATOM      6  C   UNL     1       6.133  -1.552  -2.902  0.00  0.00    +0.035 C 
ATOM      7  C   UNL     1       5.601  -1.486  -1.470  0.00  0.00    +0.066 C 
ATOM      8  C   UNL     1       5.386  -2.899  -0.924  0.00  0.00    +0.016 C 
ATOM      9  C   UNL     1       4.787  -2.804   0.482  0.00  0.00    -0.079 C 
ATOM     10  N   UNL     1       3.505  -2.093   0.430  0.00  0.00    +0.384 N 
ATOM     11  H   UNL     1       3.094  -2.075   1.351  0.00  0.00    -0.085 HD
ATOM     12  H   UNL     1       2.882  -2.572  -0.204  0.00  0.00    -0.085 HD
ENDROOT
BRANCH   1  16
ATOM     13  C   UNL     1      -0.017   1.379   0.010  0.00  0.00    +0.019 A 
ATOM     14  C   UNL     1       1.170   2.087   0.002  0.00  0.00    +0.047 A 
ATOM     15  C   UNL     1       2.380   1.410  -0.013  0.00  0.00    +0.119 A 
ATOM     16  C   UNL     1       2.397   0.022  -0.021  0.00  0.00    -0.019 A 
ATOM     17  C   UNL     1       1.208  -0.681  -0.013  0.00  0.00    +0.020 A 
ATOM     18  C   UNL     1       0.002  -0.004   0.002  0.00  0.00    +0.018 A 
ATOM     19 BR   UNL     1      -1.623  -0.971   0.012  0.00  0.00    -0.050 Br
BRANCH  15  20
ATOM     20  O   UNL     1       3.548   2.104  -0.021  0.00  0.00    -0.507 OA
ATOM     21  H   UNL     1       3.895   2.301   0.860  0.00  0.00    +0.292 HD
ENDBRANCH  15  20
ENDBRANCH   1  16
BRANCH   7  22
ATOM     22  O   UNL     1       6.538  -0.791  -0.643  0.00  0.00    -0.388 OA
ATOM     23  H   UNL     1       7.409  -1.208  -0.601  0.00  0.00    +0.210 HD
ENDBRANCH   7  22
TORSDOF 3
