REMARK  Name = ZINC22216197
REMARK  6 active torsions:
REMARK  status: ('A' for Active; 'I' for Inactive)
REMARK    1  A    between atoms: C_1  and  O_2
REMARK    2  A    between atoms: O_2  and  C_3
REMARK    3  A    between atoms: C_7  and  C_11
REMARK    4  A    between atoms: C_8  and  O_9
REMARK    5  A    between atoms: O_9  and  C_10
REMARK    6  A    between atoms: N_18  and  C_21
REMARK                            x       y       z     vdW  Elec       q    Type
REMARK                         _______ _______ _______ _____ _____    ______ ____
ROOT
ATOM      1  C   UNL     1       6.038   1.719  -0.250  0.00  0.00    +0.030 C 
ATOM      2  C   UNL     1       4.854   1.081   0.067  0.00  0.00    +0.102 C 
ATOM      3  C   UNL     1       4.834  -0.318   0.540  0.00  0.00    +0.274 C 
ATOM      4  O   UNL     1       5.866  -0.950   0.664  0.00  0.00    -0.268 OA
ATOM      5  N   UNL     1       3.640  -0.875   0.829  0.00  0.00    -0.153 NA
ATOM      6  C   UNL     1       2.497  -0.188   0.701  0.00  0.00    +0.171 C 
ATOM      7  S   UNL     1       1.030  -0.976   1.099  0.00  0.00    -0.016 S 
ATOM      8  N   UNL     1       2.438   1.081   0.273  0.00  0.00    -0.216 N 
ATOM      9  C   UNL     1       3.553   1.767  -0.053  0.00  0.00    +0.262 C 
ATOM     10  O   UNL     1       3.487   2.920  -0.436  0.00  0.00    -0.269 OA
ENDROOT
BRANCH   8  11
ATOM     11  C   UNL     1       1.191   1.710   0.167  0.00  0.00    +0.043 A 
ATOM     12  C   UNL     1       0.394   1.492  -0.949  0.00  0.00    +0.025 A 
ATOM     13  C   UNL     1      -0.832   2.119  -1.054  0.00  0.00    +0.017 A 
ATOM     14  C   UNL     1      -1.272   2.955  -0.042  0.00  0.00    +0.018 A 
ATOM     15  C   UNL     1      -0.480   3.174   1.071  0.00  0.00    +0.017 A 
ATOM     16  C   UNL     1       0.750   2.554   1.178  0.00  0.00    +0.025 A 
ATOM     17 BR   UNL     1      -2.954   3.806  -0.185  0.00  0.00    -0.050 Br
ENDBRANCH   8  11
BRANCH   1  22
ATOM     18  C   UNL     1       9.629   0.669   0.102  0.00  0.00    +0.162 A 
ATOM     19  C   UNL     1       9.621  -0.522  -0.605  0.00  0.00    +0.049 A 
ATOM     20  C   UNL     1       8.453  -0.982  -1.194  0.00  0.00    +0.004 A 
ATOM     21  C   UNL     1       7.285  -0.265  -1.078  0.00  0.00    +0.012 A 
ATOM     22  C   UNL     1       7.274   0.948  -0.371  0.00  0.00    +0.021 A 
ATOM     23  C   UNL     1       8.460   1.413   0.226  0.00  0.00    +0.169 A 
BRANCH  18  25
ATOM     24  C   UNL     1      11.942   0.297   0.509  0.00  0.00    +0.277 C 
ATOM     25  O   UNL     1      10.780   1.111   0.675  0.00  0.00    -0.491 OA
ENDBRANCH  18  25
BRANCH  23  26
ATOM     26  O   UNL     1       8.464   2.580   0.917  0.00  0.00    -0.491 OA
ATOM     27  C   UNL     1       8.177   2.507   2.315  0.00  0.00    +0.277 C 
ENDBRANCH  23  26
ENDBRANCH   1  22
TORSDOF 4
