REMARK  Name = ZINC39887577
REMARK  7 active torsions:
REMARK  status: ('A' for Active; 'I' for Inactive)
REMARK    1  A    between atoms: C_1  and  O_2
REMARK    2  A    between atoms: O_2  and  C_3
REMARK    3  A    between atoms: C_8  and  N_9
REMARK    4  A    between atoms: C_10  and  C_20
REMARK    5  A    between atoms: C_15  and  C_18
REMARK    6  A    between atoms: C_23  and  C_25
REMARK    7  A    between atoms: C_27  and  C_32
REMARK                            x       y       z     vdW  Elec       q    Type
REMARK                         _______ _______ _______ _____ _____    ______ ____
ROOT
ATOM      1  N   UNL     1       0.096  -2.777  -0.113  0.00  0.00    -0.264 N 
ATOM      2  C   UNL     1      -1.303  -3.209  -0.194  0.00  0.00    +0.234 C 
ATOM      3  N   UNL     1      -1.402  -4.630   0.144  0.00  0.00    -0.286 N 
ATOM      4  C   UNL     1      -0.538  -5.191   1.013  0.00  0.00    +0.258 C 
ATOM      5  O   UNL     1      -0.653  -6.364   1.321  0.00  0.00    -0.269 OA
ATOM      6  C   UNL     1       0.541  -4.382   1.584  0.00  0.00    +0.142 C 
ATOM      7  C   UNL     1       0.843  -3.155   0.975  0.00  0.00    +0.104 C 
ATOM      8  S   UNL     1       2.138  -2.131   1.591  0.00  0.00    -0.033 SA
ATOM      9  H   UNL     1      -2.097  -5.173  -0.261  0.00  0.00    +0.151 HD
ENDROOT
BRANCH   1  15
ATOM     10  C   UNL     1       0.606  -0.607  -1.056  0.00  0.00    +0.141 A 
ATOM     11  C   UNL     1       1.173   0.159  -2.062  0.00  0.00    +0.047 A 
ATOM     12  C   UNL     1       1.786  -0.456  -3.137  0.00  0.00    +0.004 A 
ATOM     13  C   UNL     1       1.837  -1.836  -3.213  0.00  0.00    +0.002 A 
ATOM     14  C   UNL     1       1.274  -2.607  -2.214  0.00  0.00    +0.027 A 
ATOM     15  C   UNL     1       0.662  -1.998  -1.129  0.00  0.00    +0.078 A 
BRANCH  10  17
ATOM     16  C   UNL     1      -0.017   1.425   0.010  0.00  0.00    +0.277 C 
ATOM     17  O   UNL     1       0.002  -0.004   0.002  0.00  0.00    -0.493 OA
ENDBRANCH  10  17
ENDBRANCH   1  15
BRANCH   2  18
ATOM     18  C   UNL     1      -2.133  -2.406   0.773  0.00  0.00    +0.144 A 
ATOM     19  C   UNL     1      -3.245  -2.837   1.401  0.00  0.00    +0.049 A 
ATOM     20  C   UNL     1      -3.701  -1.775   2.208  0.00  0.00    +0.050 A 
ATOM     21  C   UNL     1      -2.833  -0.745   2.027  0.00  0.00    +0.137 A 
ATOM     22  O   UNL     1      -1.884  -1.143   1.159  0.00  0.00    -0.456 OA
BRANCH  21  23
ATOM     23  C   UNL     1      -2.914   0.581   2.675  0.00  0.00    +0.036 A 
ATOM     24  C   UNL     1      -1.792   1.123   3.304  0.00  0.00    +0.025 A 
ATOM     25  C   UNL     1      -1.874   2.361   3.907  0.00  0.00    +0.056 A 
ATOM     26  C   UNL     1      -3.065   3.066   3.889  0.00  0.00    +0.014 A 
ATOM     27  C   UNL     1      -4.181   2.536   3.268  0.00  0.00    +0.021 A 
ATOM     28  C   UNL     1      -4.111   1.300   2.655  0.00  0.00    +0.052 A 
ATOM     29 CL   UNL     1      -5.510   0.639   1.868  0.00  0.00    -0.083 Cl
BRANCH  25  30
ATOM     30  C   UNL     1      -0.664   2.948   4.588  0.00  0.00    +0.417 C 
ATOM     31  F   UNL     1       0.068   3.704   3.666  0.00  0.00    -0.166 F 
ATOM     32  F   UNL     1      -1.075   3.769   5.643  0.00  0.00    -0.166 F 
ATOM     33  F   UNL     1       0.138   1.915   5.085  0.00  0.00    -0.166 F 
ENDBRANCH  25  30
ENDBRANCH  21  23
ENDBRANCH   2  18
BRANCH   6  34
ATOM     34  C   UNL     1       1.271  -4.834   2.730  0.00  0.00    +0.107 C 
ATOM     35  N   UNL     1       1.849  -5.192   3.640  0.00  0.00    -0.191 NA
ENDBRANCH   6  34
TORSDOF 6
