REMARK  Name = ZINC39659799
REMARK  3 active torsions:
REMARK  status: ('A' for Active; 'I' for Inactive)
REMARK    1  A    between atoms: C_5  and  N_9
REMARK    2  A    between atoms: C_10  and  C_12
REMARK    3  A    between atoms: C_23  and  C_25
REMARK                            x       y       z     vdW  Elec       q    Type
REMARK                         _______ _______ _______ _____ _____    ______ ____
ROOT
ATOM      1  C   UNL     1      -1.033   1.401  -6.317  0.00  0.00    +0.100 C 
ATOM      2  C   UNL     1      -0.560   2.788  -6.807  0.00  0.00    +0.121 C 
ATOM      3  N   UNL     1      -1.516   3.151  -7.880  0.00  0.00    -0.300 N 
ATOM      4  C   UNL     1      -2.830   2.682  -7.378  0.00  0.00    +0.115 C 
ATOM      5  C   UNL     1      -2.523   1.336  -6.692  0.00  0.00    -0.004 C 
ATOM      6  C   UNL     1      -3.377   1.176  -5.439  0.00  0.00    -0.010 C 
ATOM      7  C   UNL     1      -4.850   1.054  -5.842  0.00  0.00    -0.082 C 
ATOM      8  N   UNL     1      -5.023  -0.103  -6.727  0.00  0.00    +0.379 N 
ATOM      9  C   UNL     1      -4.271   0.101  -7.971  0.00  0.00    -0.082 C 
ATOM     10  C   UNL     1      -2.774   0.182  -7.659  0.00  0.00    -0.010 C 
ATOM     11  C   UNL     1      -1.251   3.768  -9.048  0.00  0.00    +0.219 C 
ATOM     12  O   UNL     1      -2.149   3.999  -9.830  0.00  0.00    -0.275 OA
ATOM     13  H   UNL     1      -4.684  -0.933  -6.264  0.00  0.00    -0.086 HD
ATOM     14  H   UNL     1      -6.002  -0.217  -6.942  0.00  0.00    -0.086 HD
ENDROOT
BRANCH   1  16
ATOM     15  N   UNL     1      -0.637   0.082  -4.262  0.00  0.00    -0.312 N 
ATOM     16  C   UNL     1      -0.863   1.286  -4.824  0.00  0.00    +0.218 C 
ATOM     17  O   UNL     1      -0.929   2.277  -4.128  0.00  0.00    -0.275 OA
ATOM     18  H   UNL     1      -0.584  -0.711  -4.819  0.00  0.00    +0.149 HD
BRANCH  15  23
ATOM     19  C   UNL     1       0.325   0.704  -0.092  0.00  0.00    +0.000 C 
ATOM     20  C   UNL     1       1.034  -0.649  -0.165  0.00  0.00    +0.000 C 
ATOM     21  C   UNL     1       0.199  -1.619  -1.003  0.00  0.00    +0.002 C 
ATOM     22  C   UNL     1       0.355  -1.276  -2.486  0.00  0.00    +0.022 C 
ATOM     23  C   UNL     1      -0.471  -0.029  -2.811  0.00  0.00    +0.073 C 
ATOM     24  C   UNL     1      -1.845  -0.141  -2.148  0.00  0.00    +0.022 C 
ATOM     25  C   UNL     1      -1.971   0.921  -1.053  0.00  0.00    +0.002 C 
ATOM     26  C   UNL     1      -1.166   0.485   0.173  0.00  0.00    +0.000 C 
ENDBRANCH  15  23
ENDBRANCH   1  16
BRANCH  11  27
ATOM     27  C   UNL     1       0.162   4.172  -9.384  0.00  0.00    +0.075 C 
ATOM     28  C   UNL     1       0.587   5.508  -8.753  0.00  0.00    +0.013 C 
ATOM     29  C   UNL     1       1.300   5.818 -10.080  0.00  0.00    +0.001 C 
ATOM     30  C   UNL     1       0.297   4.864 -10.750  0.00  0.00    +0.013 C 
ENDBRANCH  11  27
TORSDOF 3
