REMARK  Name = ZINC14332901
REMARK  9 active torsions:
REMARK  status: ('A' for Active; 'I' for Inactive)
REMARK    1  A    between atoms: C_1  and  C_2
REMARK    2  A    between atoms: C_3  and  C_16
REMARK    3  A    between atoms: C_16  and  C_17
REMARK    4  A    between atoms: C_17  and  C_18
REMARK    5  A    between atoms: N_20  and  N_21
REMARK    6  A    between atoms: N_21  and  C_22
REMARK    7  A    between atoms: C_22  and  N_24
REMARK    8  A    between atoms: N_24  and  C_25
REMARK    9  A    between atoms: C_25  and  C_26
REMARK                            x       y       z     vdW  Elec       q    Type
REMARK                         _______ _______ _______ _____ _____    ______ ____
ROOT
ATOM      1  C   UNL     1      -0.013   1.086   0.008  0.00  0.00    +0.102 C 
ENDROOT
BRANCH   1   2
ATOM      2  C   UNL     1      -0.742   1.585  -1.213  0.00  0.00    +0.229 C 
ATOM      3  O   UNL     1      -1.736   2.268  -1.088  0.00  0.00    -0.274 OA
ATOM      4  N   UNL     1      -0.288   1.272  -2.443  0.00  0.00    -0.235 N 
ATOM      5  H   UNL     1       0.507   0.726  -2.543  0.00  0.00    +0.173 HD
BRANCH   4   6
ATOM      6  N   UNL     1      -0.966   1.736  -3.578  0.00  0.00    -0.246 N 
ATOM      7  H   UNL     1      -1.761   2.283  -3.479  0.00  0.00    +0.172 HD
BRANCH   6   8
ATOM      8  C   UNL     1      -0.513   1.424  -4.808  0.00  0.00    +0.147 C 
ATOM      9  S   UNL     1      -1.341   1.991  -6.195  0.00  0.00    -0.017 S 
BRANCH   8  10
ATOM     10  N   UNL     1       0.592   0.664  -4.947  0.00  0.00    -0.323 N 
ATOM     11  H   UNL     1       1.061   0.343  -4.161  0.00  0.00    +0.148 HD
BRANCH  10  12
ATOM     12  C   UNL     1       1.085   0.325  -6.284  0.00  0.00    +0.134 C 
BRANCH  12  13
ATOM     13  C   UNL     1       2.342  -0.539  -6.160  0.00  0.00    +0.135 C 
ATOM     14  C   UNL     1       2.950  -0.805  -7.555  0.00  0.00    +0.035 C 
ATOM     15  C   UNL     1       3.464  -2.260  -7.468  0.00  0.00    +0.031 C 
ATOM     16  C   UNL     1       3.105  -2.700  -6.031  0.00  0.00    +0.160 C 
ATOM     17  O   UNL     1       2.005  -1.847  -5.648  0.00  0.00    -0.375 OA
ENDBRANCH  12  13
ENDBRANCH  10  12
ENDBRANCH   8  10
ENDBRANCH   6   8
ENDBRANCH   4   6
ENDBRANCH   1   2
BRANCH   1  18
ATOM     18  C   UNL     1      -0.729   1.579   1.267  0.00  0.00    +0.051 C 
BRANCH  18  21
ATOM     19  C   UNL     1       1.235   3.237   2.573  0.00  0.00    +0.066 C 
ATOM     20  C   UNL     1       0.930   1.862   3.109  0.00  0.00    +0.050 A 
ATOM     21  C   UNL     1       0.000   1.080   2.488  0.00  0.00    +0.038 A 
ATOM     22  C   UNL     1      -0.271  -0.197   3.010  0.00  0.00    +0.256 A 
ATOM     23  O   UNL     1      -1.100  -0.921   2.483  0.00  0.00    -0.267 OA
ATOM     24  N   UNL     1       0.408  -0.610   4.101  0.00  0.00    -0.295 N 
ATOM     25  H   UNL     1       0.240  -1.489   4.476  0.00  0.00    +0.172 HD
ATOM     26  C   UNL     1       1.324   0.214   4.678  0.00  0.00    +0.199 A 
ATOM     27  N   UNL     1       1.569   1.412   4.186  0.00  0.00    -0.221 NA
ATOM     28  N   UNL     1       2.004  -0.209   5.789  0.00  0.00    -0.297 N 
ATOM     29  C   UNL     1       1.077  -0.703   6.817  0.00  0.00    +0.136 C 
ATOM     30  C   UNL     1       1.880  -1.220   8.014  0.00  0.00    +0.179 C 
ATOM     31  O   UNL     1       2.724  -0.174   8.503  0.00  0.00    -0.377 OA
ATOM     32  C   UNL     1       3.639   0.331   7.527  0.00  0.00    +0.179 C 
ATOM     33  C   UNL     1       2.854   0.863   6.326  0.00  0.00    +0.136 C 
ENDBRANCH  18  21
ENDBRANCH   1  18
TORSDOF 8
