REMARK  Name = ZINC03301521
REMARK  9 active torsions:
REMARK  status: ('A' for Active; 'I' for Inactive)
REMARK    1  A    between atoms: C_2  and  C_3
REMARK    2  A    between atoms: C_2  and  N_29
REMARK    3  A    between atoms: C_3  and  C_5
REMARK    4  A    between atoms: C_3  and  C_7
REMARK    5  A    between atoms: C_7  and  C_9
REMARK    6  A    between atoms: C_9  and  S_10
REMARK    7  A    between atoms: S_10  and  C_11
REMARK    8  A    between atoms: C_14  and  C_17
REMARK    9  A    between atoms: N_15  and  N_16
REMARK                            x       y       z     vdW  Elec       q    Type
REMARK                         _______ _______ _______ _____ _____    ______ ____
ROOT
ATOM      1  S   UNL     1       1.968  -1.995  -0.027  0.00  0.00    -0.077 S 
ENDROOT
BRANCH   1   2
ATOM      2  C   UNL     1       1.321  -0.356  -0.013  0.00  0.00    +0.209 A 
ATOM      3  N   UNL     1       2.016   0.758  -0.013  0.00  0.00    -0.121 NA
ATOM      4  N   UNL     1       1.222   1.768  -0.000  0.00  0.00    -0.123 NA
ATOM      5  C   UNL     1      -0.017   1.363   0.009  0.00  0.00    +0.255 A 
ATOM      6  N   UNL     1       0.002  -0.004   0.002  0.00  0.00    -0.220 N 
BRANCH   5   7
ATOM      7  C   UNL     1      -1.242   2.240   0.020  0.00  0.00    +0.454 C 
ATOM      8  F   UNL     1      -0.882   3.549  -0.316  0.00  0.00    -0.163 F 
ATOM      9  F   UNL     1      -2.169   1.757  -0.910  0.00  0.00    -0.163 F 
ATOM     10  F   UNL     1      -1.814   2.226   1.297  0.00  0.00    -0.163 F 
ENDBRANCH   5   7
BRANCH   6  11
ATOM     11  N   UNL     1      -1.075  -0.844   0.008  0.00  0.00    -0.295 N 
ATOM     12  H   UNL     1      -1.370  -1.061  -0.933  0.00  0.00    +0.163 HD
ATOM     13  H   UNL     1      -0.875  -1.685   0.527  0.00  0.00    +0.163 HD
ENDBRANCH   6  11
ENDBRANCH   1   2
BRANCH   1  14
ATOM     14  C   UNL     1       3.742  -1.632  -0.042  0.00  0.00    +0.153 C 
BRANCH  14  15
ATOM     15  C   UNL     1       4.518  -2.924  -0.056  0.00  0.00    +0.166 C 
ATOM     16  O   UNL     1       3.933  -3.980  -0.056  0.00  0.00    -0.295 OA
BRANCH  15  17
ATOM     17  C   UNL     1       6.025  -2.897  -0.071  0.00  0.00    +0.200 C 
BRANCH  17  19
ATOM     18  C   UNL     1       7.288  -3.975  -1.872  0.00  0.00    +0.028 C 
ATOM     19  C   UNL     1       6.542  -4.115  -0.792  0.00  0.00    +0.003 C 
BRANCH  19  22
ATOM     20  H   UNL     1       5.685  -5.487   0.473  0.00  0.00    +0.120 HD
ATOM     21  H   UNL     1       6.566  -6.168  -0.785  0.00  0.00    +0.120 HD
ATOM     22  N   UNL     1       6.462  -5.385  -0.161  0.00  0.00    -0.419 NA
ATOM     23  H   UNL     1       7.283  -5.453   0.451  0.00  0.00    +0.120 HD
ENDBRANCH  19  22
ENDBRANCH  17  19
BRANCH  17  24
ATOM     24  C   UNL     1       6.529  -2.895   1.312  0.00  0.00    +0.079 C 
ATOM     25  N   UNL     1       6.918  -2.894   2.380  0.00  0.00    -0.195 NA
ENDBRANCH  17  24
ENDBRANCH  15  17
ENDBRANCH  14  15
ENDBRANCH   1  14
TORSDOF 9
