REMARK  Name = ZINC51992851
REMARK  5 active torsions:
REMARK  status: ('A' for Active; 'I' for Inactive)
REMARK    1  A    between atoms: C_3  and  S_9
REMARK    2  A    between atoms: C_4  and  N_8
REMARK    3  A    between atoms: S_9  and  N_12
REMARK    4  A    between atoms: N_12  and  C_13
REMARK    5  A    between atoms: C_19  and  O_21
REMARK                            x       y       z     vdW  Elec       q    Type
REMARK                         _______ _______ _______ _____ _____    ______ ____
ROOT
ATOM      1  S   UNL     1       3.810   2.345   0.096  0.00  0.00    +0.060 S 
ATOM      2  O   UNL     1       4.641   1.765  -0.899  0.00  0.00    -0.153 OA
ATOM      3  O   UNL     1       3.329   3.680   0.005  0.00  0.00    -0.153 OA
ENDROOT
BRANCH   1   6
ATOM      4  C   UNL     1       1.146  -0.608  -0.479  0.00  0.00    +0.040 A 
ATOM      5  C   UNL     1       2.258   0.207  -0.587  0.00  0.00    +0.033 A 
ATOM      6  C   UNL     1       2.392   1.308   0.236  0.00  0.00    +0.126 A 
ATOM      7  C   UNL     1       1.409   1.598   1.174  0.00  0.00    +0.054 A 
ATOM      8  C   UNL     1       0.293   0.778   1.282  0.00  0.00    +0.063 A 
ATOM      9  C   UNL     1       0.164  -0.323   0.455  0.00  0.00    +0.125 A 
ATOM     10  F   UNL     1      -0.921  -1.122   0.558  0.00  0.00    -0.205 F 
BRANCH   7  11
ATOM     11  N   UNL     1       1.542   2.711   2.007  0.00  0.00    -0.356 N 
ATOM     12  H   UNL     1       2.292   3.316   1.892  0.00  0.00    +0.142 HD
ATOM     13  H   UNL     1       0.886   2.879   2.701  0.00  0.00    +0.142 HD
ENDBRANCH   7  11
ENDBRANCH   1   6
BRANCH   1  14
ATOM     14  N   UNL     1       4.638   2.237   1.526  0.00  0.00    -0.184 NA
ATOM     15  H   UNL     1       4.716   3.015   2.101  0.00  0.00    +0.148 HD
BRANCH  14  16
ATOM     16  C   UNL     1       5.252   0.968   1.923  0.00  0.00    +0.105 C 
ATOM     17  C   UNL     1       6.725   0.963   1.511  0.00  0.00    +0.023 C 
ATOM     18  C   UNL     1       7.366  -0.363   1.925  0.00  0.00    +0.002 C 
ATOM     19  C   UNL     1       7.261  -0.528   3.443  0.00  0.00    +0.003 C 
ATOM     20  C   UNL     1       5.787  -0.523   3.855  0.00  0.00    +0.033 C 
ATOM     21  C   UNL     1       5.146   0.803   3.441  0.00  0.00    +0.133 C 
BRANCH  21  22
ATOM     22  O   UNL     1       3.770   0.808   3.826  0.00  0.00    -0.390 OA
ATOM     23  H   UNL     1       3.627   0.707   4.777  0.00  0.00    +0.210 HD
ENDBRANCH  21  22
ENDBRANCH  14  16
ENDBRANCH   1  14
TORSDOF 5
