REMARK  Name = ZINC39977947
REMARK  6 active torsions:
REMARK  status: ('A' for Active; 'I' for Inactive)
REMARK    1  A    between atoms: C_4  and  C_7
REMARK    2  A    between atoms: N_9  and  C_10
REMARK    3  A    between atoms: C_10  and  C_21
REMARK    4  A    between atoms: C_11  and  C_12
REMARK    5  A    between atoms: N_23  and  N_24
REMARK    6  A    between atoms: C_25  and  C_26
REMARK                            x       y       z     vdW  Elec       q    Type
REMARK                         _______ _______ _______ _____ _____    ______ ____
ROOT
ATOM      1  C   UNL     1       4.890  -2.682  -0.041  0.00  0.00    +0.098 C 
ATOM      2  C   UNL     1       6.027  -1.955  -0.153  0.00  0.00    +0.036 C 
ENDROOT
BRANCH   2   3
ATOM      3  C   UNL     1       7.295  -2.620  -0.487  0.00  0.00    -0.019 A 
ATOM      4  C   UNL     1       7.297  -3.763  -1.295  0.00  0.00    +0.012 A 
ATOM      5  C   UNL     1       8.486  -4.383  -1.607  0.00  0.00    +0.050 A 
ATOM      6  C   UNL     1       9.686  -3.879  -1.123  0.00  0.00    +0.166 A 
ATOM      7  C   UNL     1       9.693  -2.740  -0.316  0.00  0.00    +0.167 A 
ATOM      8  C   UNL     1       8.505  -2.109  -0.003  0.00  0.00    +0.057 A 
ATOM      9  O   UNL     1      10.984  -2.454   0.024  0.00  0.00    -0.453 OA
ATOM     10  C   UNL     1      11.726  -3.659  -0.241  0.00  0.00    +0.466 C 
ATOM     11  O   UNL     1      10.973  -4.303  -1.286  0.00  0.00    -0.453 OA
ENDBRANCH   2   3
BRANCH   1  14
ATOM     12  C   UNL     1       2.545  -2.761   0.350  0.00  0.00    +0.248 C 
ATOM     13  O   UNL     1       2.588  -3.975   0.298  0.00  0.00    -0.270 OA
ATOM     14  N   UNL     1       3.662  -2.037   0.139  0.00  0.00    -0.277 N 
ATOM     15  H   UNL     1       3.615  -1.069   0.111  0.00  0.00    +0.155 HD
BRANCH  12  19
ATOM     16  C   UNL     1      -1.126  -0.802   1.200  0.00  0.00    +0.000 A 
ATOM     17  C   UNL     1      -1.080  -2.183   1.141  0.00  0.00    +0.001 A 
ATOM     18  C   UNL     1       0.109  -2.826   0.865  0.00  0.00    +0.013 A 
ATOM     19  C   UNL     1       1.268  -2.079   0.646  0.00  0.00    +0.037 A 
ATOM     20  C   UNL     1       1.214  -0.685   0.707  0.00  0.00    +0.013 A 
ATOM     21  C   UNL     1       0.019  -0.055   0.984  0.00  0.00    +0.001 A 
ENDBRANCH  12  19
ENDBRANCH   1  14
BRANCH   1  22
ATOM     22  C   UNL     1       4.947  -4.148  -0.108  0.00  0.00    +0.277 C 
ATOM     23  O   UNL     1       4.472  -4.732  -1.064  0.00  0.00    -0.267 OA
ATOM     24  N   UNL     1       5.524  -4.846   0.890  0.00  0.00    -0.202 N 
ATOM     25  H   UNL     1       5.838  -4.387   1.685  0.00  0.00    +0.178 HD
BRANCH  24  26
ATOM     26  N   UNL     1       5.672  -6.235   0.779  0.00  0.00    -0.190 NA
ATOM     27  C   UNL     1       6.132  -6.911   1.764  0.00  0.00    +0.134 C 
BRANCH  27  28
ATOM     28  C   UNL     1       6.397  -8.386   1.607  0.00  0.00    +0.170 C 
ATOM     29  C   UNL     1       7.865  -8.680   1.829  0.00  0.00    +0.006 C 
ATOM     30  C   UNL     1       8.309  -9.203   0.687  0.00  0.00    +0.017 C 
ATOM     31  C   UNL     1       7.212  -9.270  -0.279  0.00  0.00    +0.106 C 
ATOM     32  N   UNL     1       6.116  -8.810   0.230  0.00  0.00    -0.279 NA
ENDBRANCH  27  28
ENDBRANCH  24  26
ENDBRANCH   1  22
TORSDOF 6
