REMARK  Name = ZINC65336905
REMARK  2 active torsions:
REMARK  status: ('A' for Active; 'I' for Inactive)
REMARK    1  A    between atoms: C_2  and  N_12
REMARK    2  A    between atoms: C_6  and  N_7
REMARK                            x       y       z     vdW  Elec       q    Type
REMARK                         _______ _______ _______ _____ _____    ______ ____
ROOT
ATOM      1  C   UNL     1      -0.017   1.377   0.010  0.00  0.00    +0.058 A 
ATOM      2  C   UNL     1       1.177   2.087   0.002  0.00  0.00    +0.045 A 
ATOM      3  C   UNL     1       2.388   1.404  -0.013  0.00  0.00    +0.063 A 
ATOM      4  C   UNL     1       2.400   0.022  -0.021  0.00  0.00    +0.039 A 
ATOM      5  C   UNL     1       1.209  -0.681  -0.013  0.00  0.00    +0.050 A 
ATOM      6  C   UNL     1       0.002  -0.004   0.002  0.00  0.00    +0.142 A 
ATOM      7 BR   UNL     1       1.229  -2.572  -0.024  0.00  0.00    -0.048 Br
ATOM      8 CL   UNL     1       3.883   2.287  -0.023  0.00  0.00    -0.082 Cl
ENDROOT
BRANCH   6   9
ATOM      9  N   UNL     1      -1.270  -0.761   0.010  0.00  0.00    +0.058 N 
ATOM     10  O   UNL     1      -2.325  -0.170   0.023  0.00  0.00    -0.126 OA
ATOM     11  O   UNL     1      -1.255  -1.969   0.004  0.00  0.00    -0.126 OA
ENDBRANCH   6   9
BRANCH   2  12
ATOM     12  N   UNL     1       1.161   3.484   0.009  0.00  0.00    -0.357 N 
ATOM     13  H   UNL     1       0.316   3.960   0.019  0.00  0.00    +0.142 HD
ATOM     14  H   UNL     1       1.995   3.979   0.004  0.00  0.00    +0.142 HD
ENDBRANCH   2  12
TORSDOF 2
