REMARK  Name = ZINC37696433
REMARK  5 active torsions:
REMARK  status: ('A' for Active; 'I' for Inactive)
REMARK    1  A    between atoms: C_1  and  C_2
REMARK    2  A    between atoms: C_5  and  N_17
REMARK    3  A    between atoms: C_6  and  O_8
REMARK    4  A    between atoms: O_8  and  C_9
REMARK    5  A    between atoms: C_14  and  O_16
REMARK                            x       y       z     vdW  Elec       q    Type
REMARK                         _______ _______ _______ _____ _____    ______ ____
ROOT
ATOM      1  C   UNL     1      -0.829   1.463   0.104  0.00  0.00    +0.044 C 
ATOM      2  C   UNL     1      -0.591  -0.024   0.066  0.00  0.00    -0.047 A 
ATOM      3  C   UNL     1      -0.584  -0.692  -1.145  0.00  0.00    +0.006 A 
ATOM      4  C   UNL     1      -0.365  -2.057  -1.184  0.00  0.00    +0.037 A 
ATOM      5  C   UNL     1      -0.152  -2.756  -0.012  0.00  0.00    +0.168 A 
ATOM      6  C   UNL     1      -0.158  -2.089   1.204  0.00  0.00    +0.151 A 
ATOM      7  C   UNL     1      -0.373  -0.719   1.240  0.00  0.00    +0.051 A 
ENDROOT
BRANCH   5   8
ATOM      8  N   UNL     1       0.082  -4.217  -0.053  0.00  0.00    +0.060 N 
ATOM      9  O   UNL     1       0.087  -4.799  -1.114  0.00  0.00    -0.126 OA
ATOM     10  O   UNL     1       0.268  -4.829   0.972  0.00  0.00    -0.126 OA
ENDBRANCH   5   8
BRANCH   6  11
ATOM     11  O   UNL     1       0.051  -2.776   2.358  0.00  0.00    -0.484 OA
BRANCH  11  12
ATOM     12  C   UNL     1       0.157  -2.008   3.559  0.00  0.00    +0.202 C 
ATOM     13  C   UNL     1      -1.240  -1.803   4.197  0.00  0.00    +0.047 C 
ATOM     14  C   UNL     1      -0.901  -1.536   5.684  0.00  0.00    +0.006 C 
ATOM     15  C   UNL     1       0.278  -2.487   5.980  0.00  0.00    +0.035 C 
ATOM     16  C   UNL     1       0.954  -2.785   4.628  0.00  0.00    +0.155 C 
BRANCH  16  17
ATOM     17  O   UNL     1       2.311  -2.340   4.646  0.00  0.00    -0.388 OA
ATOM     18  H   UNL     1       2.864  -2.791   5.298  0.00  0.00    +0.210 HD
ENDBRANCH  16  17
ENDBRANCH  11  12
ENDBRANCH   6  11
TORSDOF 4
