REMARK  Name = ZINC12887722
REMARK  12 active torsions:
REMARK  status: ('A' for Active; 'I' for Inactive)
REMARK    1  A    between atoms: C_1  and  C_2
REMARK    2  A    between atoms: C_2  and  C_3
REMARK    3  A    between atoms: C_2  and  C_4
REMARK    4  A    between atoms: C_4  and  C_5
REMARK    5  A    between atoms: C_5  and  N_6
REMARK    6  A    between atoms: C_7  and  C_9
REMARK    7  A    between atoms: C_9  and  C_11
REMARK    8  A    between atoms: C_9  and  N_15
REMARK    9  A    between atoms: C_11  and  C_12
REMARK   10  A    between atoms: C_12  and  C_13
REMARK   11  A    between atoms: C_12  and  C_14
REMARK   12  A    between atoms: C_16  and  C_18
REMARK                            x       y       z     vdW  Elec       q    Type
REMARK                         _______ _______ _______ _____ _____    ______ ____
ROOT
ATOM      1  C   UNL     1       2.552   0.246   0.324  0.00  0.00    +0.167 C 
ATOM      2  C   UNL     1       2.522   1.740  -0.029  0.00  0.00    +0.069 C 
ATOM      3  C   UNL     1       1.106   2.256   0.004  0.00  0.00    -0.015 A 
ATOM      4  C   UNL     1       0.678   3.643   0.028  0.00  0.00    +0.003 A 
ATOM      5  C   UNL     1       1.386   4.849   0.035  0.00  0.00    +0.010 A 
ATOM      6  C   UNL     1       0.643   6.004   0.058  0.00  0.00    +0.001 A 
ATOM      7  C   UNL     1      -0.742   5.987   0.075  0.00  0.00    +0.002 A 
ATOM      8  C   UNL     1      -1.468   4.809   0.068  0.00  0.00    +0.026 A 
ATOM      9  C   UNL     1      -0.740   3.620   0.043  0.00  0.00    +0.047 A 
ATOM     10  N   UNL     1      -1.124   2.311   0.031  0.00  0.00    -0.356 N 
ATOM     11  H   UNL     1      -2.042   1.999   0.035  0.00  0.00    +0.166 HD
ATOM     12  C   UNL     1      -0.018   1.505   0.010  0.00  0.00    +0.046 A 
ATOM     13  C   UNL     1       0.002  -0.004   0.002  0.00  0.00    +0.155 C 
ATOM     14  N   UNL     1       1.395  -0.388  -0.320  0.00  0.00    -0.273 N 
ATOM     15  C   UNL     1       1.374  -1.302  -1.299  0.00  0.00    +0.248 C 
ATOM     16  O   UNL     1       2.332  -1.950  -1.673  0.00  0.00    -0.270 OA
ATOM     17  C   UNL     1       0.020  -1.402  -1.852  0.00  0.00    +0.042 A 
ATOM     18  C   UNL     1      -0.836  -0.584  -1.086  0.00  0.00    -0.009 A 
ATOM     19  C   UNL     1      -2.169  -0.443  -1.400  0.00  0.00    +0.006 A 
ATOM     20  C   UNL     1      -2.640  -1.156  -2.499  0.00  0.00    +0.000 A 
ATOM     21  C   UNL     1      -1.813  -1.970  -3.246  0.00  0.00    +0.001 A 
ATOM     22  C   UNL     1      -0.466  -2.117  -2.948  0.00  0.00    +0.013 A 
ENDROOT
BRANCH   1  24
ATOM     23  N   UNL     1       3.427   0.578   2.614  0.00  0.00    -0.302 N 
ATOM     24  C   UNL     1       2.464   0.071   1.818  0.00  0.00    +0.235 C 
ATOM     25  O   UNL     1       1.527  -0.526   2.305  0.00  0.00    -0.274 OA
ATOM     26  H   UNL     1       4.176   1.055   2.224  0.00  0.00    +0.150 HD
BRANCH  23  27
ATOM     27  C   UNL     1       3.342   0.407   4.066  0.00  0.00    +0.159 C 
BRANCH  27  29
ATOM     28  N   UNL     1       4.174   1.556   6.093  0.00  0.00    -0.314 N 
ATOM     29  C   UNL     1       4.112   1.509   4.747  0.00  0.00    +0.233 C 
ATOM     30  O   UNL     1       4.677   2.353   4.084  0.00  0.00    -0.274 OA
ATOM     31  H   UNL     1       3.723   0.881   6.623  0.00  0.00    +0.149 HD
BRANCH  28  32
ATOM     32  C   UNL     1       4.923   2.628   6.754  0.00  0.00    +0.104 C 
BRANCH  32  33
ATOM     33  C   UNL     1       4.834   2.450   8.271  0.00  0.00    +0.022 C 
BRANCH  33  35
ATOM     34  C   UNL     1       5.425   3.464  10.477  0.00  0.00    +0.007 C 
ATOM     35  C   UNL     1       5.616   3.569   8.963  0.00  0.00    -0.016 C 
ATOM     36  C   UNL     1       7.103   3.435   8.626  0.00  0.00    +0.007 C 
ENDBRANCH  33  35
ENDBRANCH  32  33
ENDBRANCH  28  32
ENDBRANCH  27  29
BRANCH  27  37
ATOM     37  C   UNL     1       3.937  -0.947   4.457  0.00  0.00    +0.034 C 
BRANCH  37  38
ATOM     38  C   UNL     1       3.080  -2.069   3.867  0.00  0.00    -0.015 C 
ATOM     39  C   UNL     1       3.742  -3.419   4.151  0.00  0.00    +0.007 C 
ATOM     40  C   UNL     1       1.690  -2.039   4.505  0.00  0.00    +0.007 C 
ENDBRANCH  37  38
ENDBRANCH  27  37
ENDBRANCH  23  27
ENDBRANCH   1  24
TORSDOF 8
