REMARK  Name = ZINC08552275
REMARK  14 active torsions:
REMARK  status: ('A' for Active; 'I' for Inactive)
REMARK    1  A    between atoms: C_1  and  C_2
REMARK    2  A    between atoms: C_2  and  C_3
REMARK    3  A    between atoms: C_3  and  C_4
REMARK    4  A    between atoms: C_7  and  C_12
REMARK    5  A    between atoms: N_9  and  C_11
REMARK    6  A    between atoms: N_14  and  C_15
REMARK    7  A    between atoms: C_15  and  C_17
REMARK    8  A    between atoms: C_15  and  C_33
REMARK    9  A    between atoms: C_19  and  O_32
REMARK   10  A    between atoms: C_21  and  O_31
REMARK   11  A    between atoms: C_23  and  O_30
REMARK   12  A    between atoms: C_25  and  S_28
REMARK   13  A    between atoms: S_28  and  C_29
REMARK   14  A    between atoms: C_33  and  C_35
REMARK                            x       y       z     vdW  Elec       q    Type
REMARK                         _______ _______ _______ _____ _____    ______ ____
ROOT
ATOM      1  C   UNL     1       1.394  -6.402  -1.360  0.00  0.00    +0.122 C 
ENDROOT
BRANCH   1   2
ATOM      2  C   UNL     1       2.346  -5.614  -2.262  0.00  0.00    +0.172 C 
ATOM      3  C   UNL     1       3.631  -6.418  -2.474  0.00  0.00    +0.176 C 
ATOM      4  C   UNL     1       4.328  -6.617  -1.125  0.00  0.00    +0.177 C 
ATOM      5  C   UNL     1       4.597  -5.247  -0.494  0.00  0.00    +0.184 C 
ATOM      6  C   UNL     1       3.274  -4.488  -0.359  0.00  0.00    +0.207 C 
ATOM      7  O   UNL     1       2.663  -4.365  -1.645  0.00  0.00    -0.356 OA
BRANCH   6   8
ATOM      8  S   UNL     1       3.590  -2.837   0.322  0.00  0.00    -0.131 S 
ATOM      9  C   UNL     1       1.937  -2.195   0.703  0.00  0.00    +0.087 C 
ENDBRANCH   6   8
BRANCH   5  10
ATOM     10  O   UNL     1       5.491  -4.505  -1.327  0.00  0.00    -0.386 OA
ATOM     11  H   UNL     1       5.705  -3.625  -0.987  0.00  0.00    +0.210 HD
ENDBRANCH   5  10
BRANCH   4  12
ATOM     12  O   UNL     1       3.489  -7.386  -0.262  0.00  0.00    -0.386 OA
ATOM     13  H   UNL     1       3.834  -7.487   0.635  0.00  0.00    +0.210 HD
ENDBRANCH   4  12
BRANCH   3  14
ATOM     14  O   UNL     1       3.311  -7.690  -3.040  0.00  0.00    -0.387 OA
ATOM     15  H   UNL     1       4.070  -8.281  -3.134  0.00  0.00    +0.210 HD
ENDBRANCH   3  14
ENDBRANCH   1   2
BRANCH   1  18
ATOM     16  C   UNL     1      -0.464  -5.757   0.079  0.00  0.00    +0.200 C 
ATOM     17  O   UNL     1      -0.028  -6.502   0.930  0.00  0.00    -0.278 OA
ATOM     18  N   UNL     1       0.204  -5.595  -1.081  0.00  0.00    -0.310 N 
ATOM     19  H   UNL     1      -0.103  -4.943  -1.730  0.00  0.00    +0.149 HD
BRANCH  16  22
ATOM     20  C   UNL     1      -1.415  -3.296   1.992  0.00  0.00    -0.029 C 
ATOM     21  C   UNL     1      -1.468  -3.502   0.456  0.00  0.00    -0.005 C 
ATOM     22  C   UNL     1      -1.752  -5.012   0.317  0.00  0.00    +0.019 C 
ATOM     23  N   UNL     1      -2.368  -5.459   1.580  0.00  0.00    +0.386 N 
ATOM     24  C   UNL     1      -2.496  -4.293   2.480  0.00  0.00    -0.075 C 
ATOM     25  C   UNL     1      -3.696  -6.024   1.309  0.00  0.00    -0.095 C 
ATOM     26  H   UNL     1      -1.784  -6.159   2.013  0.00  0.00    -0.081 HD
BRANCH  20  27
ATOM     27  C   UNL     1      -1.785  -1.860   2.366  0.00  0.00    +0.001 C 
BRANCH  27  29
ATOM     28  C   UNL     1      -1.043   0.525   2.285  0.00  0.00    +0.004 C 
ATOM     29  C   UNL     1      -0.673  -0.912   1.911  0.00  0.00    -0.003 C 
ENDBRANCH  27  29
ENDBRANCH  20  27
ENDBRANCH  16  22
ENDBRANCH   1  18
BRANCH   1  30
ATOM     30  C   UNL     1       0.979  -7.696  -2.063  0.00  0.00    +0.100 C 
ATOM     31  C   UNL     1      -0.522  -7.922  -1.871  0.00  0.00    +0.026 C 
ATOM     32 CL   UNL     1       1.891  -9.082  -1.358  0.00  0.00    -0.120 Cl
ENDBRANCH   1  30
TORSDOF 10
