REMARK  Name = ZINC60205694
REMARK  7 active torsions:
REMARK  status: ('A' for Active; 'I' for Inactive)
REMARK    1  A    between atoms: C_1  and  C_2
REMARK    2  A    between atoms: C_2  and  C_3
REMARK    3  A    between atoms: C_2  and  C_4
REMARK    4  A    between atoms: C_2  and  C_24
REMARK    5  A    between atoms: C_4  and  N_5
REMARK    6  A    between atoms: C_6  and  C_8
REMARK    7  A    between atoms: C_8  and  N_9
REMARK                            x       y       z     vdW  Elec       q    Type
REMARK                         _______ _______ _______ _____ _____    ______ ____
ROOT
ATOM      1  C   UNL     1      -4.108   0.081   2.682  0.00  0.00    +0.213 C 
ENDROOT
BRANCH   1   2
ATOM      2  N   UNL     1      -5.482  -0.426   2.692  0.00  0.00    -0.215 N 
ATOM      3  C   UNL     1      -6.534   0.219   2.143  0.00  0.00    +0.251 C 
ATOM      4  O   UNL     1      -6.524   1.286   1.568  0.00  0.00    -0.272 OA
ATOM      5  C   UNL     1      -7.722  -0.672   2.396  0.00  0.00    +0.138 C 
ATOM      6  C   UNL     1      -8.794   0.050   3.222  0.00  0.00    +0.045 C 
ATOM      7  C   UNL     1     -10.100  -0.570   2.675  0.00  0.00    +0.038 C 
ATOM      8  C   UNL     1      -9.764  -1.028   1.271  0.00  0.00    -0.042 A 
ATOM      9  C   UNL     1      -8.389  -1.088   1.113  0.00  0.00    -0.012 A 
ATOM     10  C   UNL     1      -7.855  -1.488  -0.101  0.00  0.00    +0.006 A 
ATOM     11  C   UNL     1      -8.686  -1.824  -1.151  0.00  0.00    +0.000 A 
ATOM     12  C   UNL     1     -10.058  -1.763  -0.993  0.00  0.00    +0.000 A 
ATOM     13  C   UNL     1     -10.594  -1.366   0.216  0.00  0.00    +0.004 A 
ATOM     14  N   UNL     1      -7.175  -1.820   3.120  0.00  0.00    -0.281 N 
ATOM     15  C   UNL     1      -5.852  -1.590   3.243  0.00  0.00    +0.310 C 
ATOM     16  O   UNL     1      -5.082  -2.352   3.795  0.00  0.00    -0.252 OA
ATOM     17  H   UNL     1      -7.665  -2.592   3.443  0.00  0.00    +0.152 HD
ENDBRANCH   1   2
BRANCH   1  19
ATOM     18  N   UNL     1      -2.119  -0.061   1.218  0.00  0.00    -0.313 N 
ATOM     19  C   UNL     1      -3.403  -0.406   1.442  0.00  0.00    +0.231 C 
ATOM     20  O   UNL     1      -3.990  -1.106   0.645  0.00  0.00    -0.274 OA
ATOM     21  H   UNL     1      -1.649   0.499   1.855  0.00  0.00    +0.149 HD
BRANCH  18  22
ATOM     22  C   UNL     1      -1.433  -0.534   0.013  0.00  0.00    +0.115 C 
BRANCH  22  24
ATOM     23  C   UNL     1      -0.019   1.526   0.010  0.00  0.00    +0.017 C 
ATOM     24  C   UNL     1       0.002  -0.004   0.002  0.00  0.00    +0.006 C 
ATOM     25  C   UNL     1       0.742  -0.511   1.242  0.00  0.00    +0.017 C 
BRANCH  24  26
ATOM     26  C   UNL     1       0.707  -0.490  -1.238  0.00  0.00    -0.039 A 
ATOM     27  C   UNL     1       0.036  -1.284  -2.149  0.00  0.00    +0.004 A 
ATOM     28  C   UNL     1       0.682  -1.731  -3.286  0.00  0.00    +0.002 A 
ATOM     29  C   UNL     1       2.001  -1.383  -3.513  0.00  0.00    +0.020 A 
ATOM     30  C   UNL     1       2.673  -0.588  -2.603  0.00  0.00    +0.041 A 
ATOM     31  C   UNL     1       2.024  -0.137  -1.467  0.00  0.00    +0.024 A 
ATOM     32 CL   UNL     1       4.329  -0.151  -2.888  0.00  0.00    -0.084 Cl
ENDBRANCH  24  26
ENDBRANCH  22  24
ENDBRANCH  18  22
ENDBRANCH   1  19
TORSDOF 5
