REMARK  Name = ZINC63823112
REMARK  11 active torsions:
REMARK  status: ('A' for Active; 'I' for Inactive)
REMARK    1  A    between atoms: C_1  and  C_2
REMARK    2  A    between atoms: C_2  and  C_3
REMARK    3  A    between atoms: C_6  and  C_9
REMARK    4  A    between atoms: C_9  and  C_10
REMARK    5  A    between atoms: C_9  and  N_13
REMARK    6  A    between atoms: C_10  and  C_11
REMARK    7  A    between atoms: C_10  and  C_12
REMARK    8  A    between atoms: C_14  and  C_16
REMARK    9  A    between atoms: N_18  and  C_19
REMARK   10  A    between atoms: C_21  and  C_26
REMARK   11  A    between atoms: C_24  and  C_25
REMARK                            x       y       z     vdW  Elec       q    Type
REMARK                         _______ _______ _______ _____ _____    ______ ____
ROOT
ATOM      1  N   UNL     1       3.730  -2.850  -4.387  0.00  0.00    -0.301 N 
ATOM      2  C   UNL     1       4.126  -3.777  -5.282  0.00  0.00    +0.300 C 
ATOM      3  O   UNL     1       3.652  -3.783  -6.398  0.00  0.00    -0.265 OA
ATOM      4  H   UNL     1       4.110  -2.845  -3.494  0.00  0.00    +0.150 HD
ENDROOT
BRANCH   2   5
ATOM      5  C   UNL     1       5.149  -4.795  -4.899  0.00  0.00    +0.303 C 
ATOM      6  O   UNL     1       5.624  -4.789  -3.782  0.00  0.00    -0.265 OA
ATOM      7  N   UNL     1       5.545  -5.722  -5.794  0.00  0.00    -0.277 N 
ATOM      8  H   UNL     1       5.109  -5.778  -6.659  0.00  0.00    +0.155 HD
BRANCH   7   9
ATOM      9  C   UNL     1       6.583  -6.602  -5.476  0.00  0.00    +0.037 A 
ATOM     10  C   UNL     1       7.531  -6.243  -4.529  0.00  0.00    +0.036 A 
ATOM     11  C   UNL     1       8.565  -7.125  -4.215  0.00  0.00    +0.038 A 
ATOM     12  C   UNL     1       8.639  -8.363  -4.856  0.00  0.00    +0.013 A 
ATOM     13  C   UNL     1       7.691  -8.711  -5.796  0.00  0.00    +0.006 A 
ATOM     14  C   UNL     1       6.663  -7.840  -6.104  0.00  0.00    -0.029 A 
ATOM     15  C   UNL     1       5.628  -8.230  -7.128  0.00  0.00    +0.045 C 
BRANCH  11  16
ATOM     16  C   UNL     1       9.580  -6.749  -3.208  0.00  0.00    +0.242 C 
ATOM     17  O   UNL     1       9.514  -5.670  -2.651  0.00  0.00    -0.270 OA
ATOM     18  N   UNL     1      10.578  -7.603  -2.906  0.00  0.00    -0.325 N 
ATOM     19  H   UNL     1      10.630  -8.464  -3.349  0.00  0.00    +0.145 HD
ATOM     20  H   UNL     1      11.244  -7.357  -2.245  0.00  0.00    +0.145 HD
ENDBRANCH  11  16
ENDBRANCH   7   9
ENDBRANCH   2   5
BRANCH   1  21
ATOM     21  C   UNL     1       2.727  -1.851  -4.762  0.00  0.00    +0.106 C 
BRANCH  21  25
ATOM     22  C   UNL     1       0.720  -0.463  -1.256  0.00  0.00    -0.048 A 
ATOM     23  C   UNL     1       0.006  -0.685  -2.419  0.00  0.00    +0.004 A 
ATOM     24  C   UNL     1       0.656  -1.134  -3.553  0.00  0.00    +0.006 A 
ATOM     25  C   UNL     1       2.019  -1.360  -3.525  0.00  0.00    -0.027 A 
ATOM     26  C   UNL     1       2.733  -1.137  -2.363  0.00  0.00    +0.006 A 
ATOM     27  C   UNL     1       2.084  -0.684  -1.230  0.00  0.00    +0.004 A 
BRANCH  22  29
ATOM     28  C   UNL     1       0.001   1.557  -0.009  0.00  0.00    +0.009 C 
ATOM     29  C   UNL     1       0.012   0.027  -0.019  0.00  0.00    +0.032 C 
ENDBRANCH  22  29
ENDBRANCH  21  25
BRANCH  21  30
ATOM     30  C   UNL     1       3.415  -0.673  -5.457  0.00  0.00    +0.008 C 
ATOM     31  C   UNL     1       4.134  -1.171  -6.712  0.00  0.00    +0.009 C 
ATOM     32  C   UNL     1       2.367   0.370  -5.849  0.00  0.00    +0.009 C 
ENDBRANCH  21  30
ENDBRANCH   1  21
TORSDOF 7
