REMARK  Name = ZINC64713827
REMARK  7 active torsions:
REMARK  status: ('A' for Active; 'I' for Inactive)
REMARK    1  A    between atoms: C_1  and  N_2
REMARK    2  A    between atoms: N_2  and  C_3
REMARK    3  A    between atoms: C_3  and  C_4
REMARK    4  A    between atoms: C_14  and  C_16
REMARK    5  A    between atoms: C_16  and  N_17
REMARK    6  A    between atoms: C_20  and  C_25
REMARK    7  A    between atoms: C_25  and  C_26
REMARK                            x       y       z     vdW  Elec       q    Type
REMARK                         _______ _______ _______ _____ _____    ______ ____
ROOT
ATOM      1  N   UNL     1      -0.020  -0.857  -3.588  0.00  0.00    -0.216 N 
ATOM      2  C   UNL     1       1.096  -1.335  -4.174  0.00  0.00    +0.244 C 
ATOM      3  O   UNL     1       2.244  -1.073  -3.885  0.00  0.00    -0.273 OA
ATOM      4  C   UNL     1       0.617  -2.268  -5.268  0.00  0.00    +0.165 C 
ATOM      5  N   UNL     1      -0.851  -2.202  -5.162  0.00  0.00    -0.287 N 
ATOM      6  C   UNL     1      -1.126  -1.358  -4.152  0.00  0.00    +0.310 C 
ATOM      7  O   UNL     1      -2.253  -1.078  -3.792  0.00  0.00    -0.252 OA
ATOM      8  H   UNL     1      -1.493  -2.677  -5.712  0.00  0.00    +0.151 HD
ENDROOT
BRANCH   1   9
ATOM      9  C   UNL     1      -0.023   0.089  -2.470  0.00  0.00    +0.213 C 
BRANCH   9  12
ATOM     10  C   UNL     1      -0.018   1.461   0.010  0.00  0.00    +0.132 C 
ATOM     11  N   UNL     1       0.002  -0.004   0.002  0.00  0.00    -0.301 N 
ATOM     12  C   UNL     1       0.000  -0.672  -1.169  0.00  0.00    +0.233 C 
ATOM     13  O   UNL     1       0.017  -1.884  -1.175  0.00  0.00    -0.274 OA
BRANCH  11  14
ATOM     14  C   UNL     1       0.024  -0.743   1.267  0.00  0.00    +0.141 C 
BRANCH  14  15
ATOM     15  C   UNL     1      -1.411  -1.020   1.720  0.00  0.00    +0.151 C 
ATOM     16  N   UNL     1      -2.176   0.228   1.843  0.00  0.00    -0.330 N 
ATOM     17  C   UNL     1      -3.291   0.383   1.021  0.00  0.00    +0.042 A 
ATOM     18  C   UNL     1      -4.141   1.503   0.998  0.00  0.00    +0.024 A 
ATOM     19  C   UNL     1      -5.220   1.562   0.146  0.00  0.00    +0.002 A 
ATOM     20  C   UNL     1      -5.505   0.520  -0.717  0.00  0.00    +0.001 A 
ATOM     21  C   UNL     1      -4.685  -0.596  -0.717  0.00  0.00    +0.016 A 
ATOM     22  C   UNL     1      -3.606  -0.653   0.137  0.00  0.00    +0.031 A 
ATOM     23  S   UNL     1      -2.361  -1.894   0.413  0.00  0.00    -0.099 S 
ATOM     24  H   UNL     1      -1.916   0.917   2.474  0.00  0.00    +0.147 HD
ENDBRANCH  14  15
ENDBRANCH  11  14
ENDBRANCH   9  12
ENDBRANCH   1   9
BRANCH   4  25
ATOM     25  C   UNL     1       1.115  -3.693  -5.015  0.00  0.00    +0.065 C 
BRANCH  25  26
ATOM     26  C   UNL     1       0.730  -4.573  -6.177  0.00  0.00    -0.039 C 
ATOM     27  C   UNL     1       1.495  -4.887  -7.247  0.00  0.00    -0.001 A 
ATOM     28  C   UNL     1       2.861  -4.518  -7.635  0.00  0.00    +0.010 A 
ATOM     29  C   UNL     1       3.367  -5.000  -8.793  0.00  0.00    +0.001 A 
ATOM     30  C   UNL     1       2.621  -5.842  -9.630  0.00  0.00    +0.002 A 
ATOM     31  C   UNL     1       1.360  -6.225  -9.340  0.00  0.00    +0.026 A 
ATOM     32  C   UNL     1       0.728  -5.778  -8.147  0.00  0.00    +0.043 A 
ATOM     33  N   UNL     1      -0.465  -6.005  -7.653  0.00  0.00    -0.380 N 
ATOM     34  C   UNL     1      -0.587  -5.288  -6.379  0.00  0.00    +0.144 C 
ATOM     35  H   UNL     1      -1.150  -6.557  -8.060  0.00  0.00    +0.160 HD
ENDBRANCH  25  26
ENDBRANCH   4  25
TORSDOF 6
