REMARK  Name = ZINC23382696
REMARK  6 active torsions:
REMARK  status: ('A' for Active; 'I' for Inactive)
REMARK    1  A    between atoms: C_4  and  C_7
REMARK    2  A    between atoms: C_7  and  O_8
REMARK    3  A    between atoms: O_8  and  C_9
REMARK    4  A    between atoms: C_14  and  C_15
REMARK    5  A    between atoms: N_16  and  N_17
REMARK    6  A    between atoms: C_18  and  C_20
REMARK                            x       y       z     vdW  Elec       q    Type
REMARK                         _______ _______ _______ _____ _____    ______ ____
ROOT
ATOM      1  C   UNL     1       4.955  -1.467  -4.022  0.00  0.00    +0.142 C 
ATOM      2  N   UNL     1       5.398  -1.687  -5.222  0.00  0.00    -0.187 NA
ENDROOT
BRANCH   1   8
ATOM      3  C   UNL     1       5.348  -1.759  -1.578  0.00  0.00    +0.130 A 
ATOM      4  C   UNL     1       6.213  -1.871  -0.501  0.00  0.00    +0.046 A 
ATOM      5  C   UNL     1       7.579  -1.803  -0.699  0.00  0.00    +0.004 A 
ATOM      6  C   UNL     1       8.094  -1.623  -1.972  0.00  0.00    +0.001 A 
ATOM      7  C   UNL     1       7.248  -1.510  -3.055  0.00  0.00    +0.013 A 
ATOM      8  C   UNL     1       5.865  -1.581  -2.868  0.00  0.00    +0.036 A 
BRANCH   3   9
ATOM      9  O   UNL     1       4.006  -1.826  -1.384  0.00  0.00    -0.487 OA
BRANCH   9  10
ATOM     10  C   UNL     1       3.548  -1.896  -0.032  0.00  0.00    +0.264 C 
BRANCH  10  14
ATOM     11  C   UNL     1      -0.719  -1.718   0.036  0.00  0.00    +0.000 A 
ATOM     12  C   UNL     1       0.023  -0.563   0.193  0.00  0.00    +0.000 A 
ATOM     13  C   UNL     1       1.404  -0.620   0.171  0.00  0.00    +0.007 A 
ATOM     14  C   UNL     1       2.043  -1.833  -0.008  0.00  0.00    -0.010 A 
ATOM     15  C   UNL     1       1.300  -2.989  -0.164  0.00  0.00    +0.007 A 
ATOM     16  C   UNL     1      -0.081  -2.931  -0.142  0.00  0.00    +0.000 A 
ENDBRANCH  10  14
ENDBRANCH   9  10
ENDBRANCH   3   9
ENDBRANCH   1   8
BRANCH   2  17
ATOM     17  N   UNL     1       6.539  -2.477  -5.414  0.00  0.00    -0.200 N 
ATOM     18  C   UNL     1       7.081  -2.591  -6.643  0.00  0.00    +0.299 C 
ATOM     19  O   UNL     1       6.628  -1.946  -7.570  0.00  0.00    -0.265 OA
ATOM     20  H   UNL     1       6.993  -3.004  -4.562  0.00  0.00    +0.178 HD
BRANCH  18  21
ATOM     21  C   UNL     1       8.218  -3.494  -6.863  0.00  0.00    +0.192 A 
ATOM     22  C   UNL     1       8.917  -3.603  -8.023  0.00  0.00    +0.063 A 
ATOM     23  C   UNL     1       9.947  -4.613  -7.782  0.00  0.00    +0.022 A 
ATOM     24  C   UNL     1      10.966  -5.168  -8.560  0.00  0.00    +0.031 A 
ATOM     25  C   UNL     1      11.785  -6.123  -8.022  0.00  0.00    +0.042 A 
ATOM     26  C   UNL     1      11.610  -6.541  -6.709  0.00  0.00    +0.023 A 
ATOM     27  C   UNL     1      10.611  -6.004  -5.926  0.00  0.00    +0.048 A 
ATOM     28  C   UNL     1       9.766  -5.033  -6.452  0.00  0.00    +0.136 A 
ATOM     29  O   UNL     1       8.730  -4.337  -5.942  0.00  0.00    -0.450 OA
ATOM     30 CL   UNL     1      13.052  -6.815  -8.986  0.00  0.00    -0.084 Cl
ENDBRANCH  18  21
ENDBRANCH   2  17
TORSDOF 6
