REMARK  Name = ZINC12276221
REMARK  6 active torsions:
REMARK  status: ('A' for Active; 'I' for Inactive)
REMARK    1  A    between atoms: C_1  and  S_2
REMARK    2  A    between atoms: S_2  and  C_3
REMARK    3  A    between atoms: C_6  and  C_9
REMARK    4  A    between atoms: C_17  and  N_27
REMARK    5  A    between atoms: C_18  and  C_20
REMARK    6  A    between atoms: C_20  and  C_22
REMARK                            x       y       z     vdW  Elec       q    Type
REMARK                         _______ _______ _______ _____ _____    ______ ____
ROOT
ATOM      1  C   UNL     1      -7.322   3.128   0.044  0.00  0.00    +0.062 C 
ATOM      2  C   UNL     1      -7.892   4.353   0.757  0.00  0.00    +0.109 C 
ATOM      3  C   UNL     1      -7.233   5.623   0.293  0.00  0.00    +0.218 C 
ATOM      4  O   UNL     1      -7.904   6.619   0.122  0.00  0.00    -0.275 OA
ATOM      5  N   UNL     1      -5.899   5.667   0.064  0.00  0.00    -0.280 N 
ATOM      6  C   UNL     1      -5.216   4.475   0.055  0.00  0.00    +0.078 A 
ATOM      7  C   UNL     1      -5.799   3.224   0.047  0.00  0.00    +0.010 A 
ATOM      8  C   UNL     1      -4.946   2.137   0.029  0.00  0.00    +0.048 A 
ATOM      9  C   UNL     1      -3.566   2.359   0.026  0.00  0.00    +0.085 A 
ATOM     10  S   UNL     1      -3.479   4.144   0.036  0.00  0.00    -0.068 S 
ATOM     11  H   UNL     1      -5.443   6.509  -0.089  0.00  0.00    +0.155 HD
ENDROOT
BRANCH   1  15
ATOM     12  C   UNL     1      -8.537  -0.418   2.099  0.00  0.00    +0.008 A 
ATOM     13  C   UNL     1      -8.880  -0.234   0.765  0.00  0.00    +0.015 A 
ATOM     14  C   UNL     1      -8.486   0.913   0.105  0.00  0.00    +0.005 A 
ATOM     15  C   UNL     1      -7.751   1.877   0.769  0.00  0.00    -0.039 A 
ATOM     16  C   UNL     1      -7.403   1.695   2.095  0.00  0.00    +0.005 A 
ATOM     17  C   UNL     1      -7.798   0.553   2.763  0.00  0.00    +0.015 A 
BRANCH  12  19
ATOM     18  C   UNL     1      -8.370  -1.667   4.620  0.00  0.00    +0.090 C 
ATOM     19  S   UNL     1      -9.038  -1.879   2.946  0.00  0.00    -0.129 S 
ENDBRANCH  12  19
ENDBRANCH   1  15
BRANCH   8  20
ATOM     20  N   UNL     1      -5.453   0.841   0.019  0.00  0.00    -0.357 N 
ATOM     21  H   UNL     1      -4.920   0.110   0.368  0.00  0.00    +0.142 HD
ATOM     22  H   UNL     1      -6.339   0.670  -0.337  0.00  0.00    +0.142 HD
ENDBRANCH   8  20
BRANCH   9  23
ATOM     23  C   UNL     1      -2.515   1.417   0.012  0.00  0.00    +0.236 C 
ATOM     24  O   UNL     1      -2.765   0.223   0.006  0.00  0.00    -0.283 OA
BRANCH  23  25
ATOM     25  C   UNL     1      -1.119   1.875   0.004  0.00  0.00    +0.175 A 
ATOM     26  C   UNL     1      -0.013   1.076  -0.009  0.00  0.00    +0.053 A 
ATOM     27  C   UNL     1       1.103   1.930  -0.018  0.00  0.00    +0.042 A 
ATOM     28  C   UNL     1       0.634   3.196  -0.004  0.00  0.00    +0.196 A 
ATOM     29  O   UNL     1      -0.706   3.159   0.013  0.00  0.00    -0.460 OA
ENDBRANCH  23  25
ENDBRANCH   9  23
TORSDOF 5
