REMARK  Name = ZINC35520109
REMARK  10 active torsions:
REMARK  status: ('A' for Active; 'I' for Inactive)
REMARK    1  A    between atoms: C_1  and  C_2
REMARK    2  A    between atoms: C_5  and  C_8
REMARK    3  A    between atoms: C_8  and  C_9
REMARK    4  A    between atoms: C_10  and  C_25
REMARK    5  A    between atoms: N_12  and  C_17
REMARK    6  A    between atoms: C_17  and  C_18
REMARK    7  A    between atoms: C_18  and  C_19
REMARK    8  A    between atoms: C_27  and  O_33
REMARK    9  A    between atoms: C_28  and  O_32
REMARK   10  A    between atoms: O_33  and  C_34
REMARK                            x       y       z     vdW  Elec       q    Type
REMARK                         _______ _______ _______ _____ _____    ______ ____
ROOT
ATOM      1  C   UNL     1      -0.005  -5.334   1.292  0.00  0.00    +0.076 C 
ATOM      2  C   UNL     1       0.100  -4.577   2.596  0.00  0.00    +0.145 C 
ATOM      3  N   UNL     1       0.346  -5.584   3.635  0.00  0.00    -0.283 N 
ATOM      4  C   UNL     1       0.385  -6.790   3.041  0.00  0.00    +0.288 C 
ATOM      5  O   UNL     1       0.570  -7.845   3.615  0.00  0.00    -0.266 OA
ATOM      6  C   UNL     1       0.162  -6.644   1.587  0.00  0.00    +0.249 C 
ATOM      7  O   UNL     1       0.132  -7.659   0.693  0.00  0.00    -0.282 OA
ENDROOT
BRANCH   2   8
ATOM      8  C   UNL     1      -1.188  -3.847   2.876  0.00  0.00    -0.018 A 
ATOM      9  C   UNL     1      -1.234  -2.468   2.779  0.00  0.00    +0.055 A 
ATOM     10  C   UNL     1      -2.418  -1.795   3.036  0.00  0.00    +0.163 A 
ATOM     11  C   UNL     1      -3.558  -2.509   3.392  0.00  0.00    +0.173 A 
ATOM     12  C   UNL     1      -3.505  -3.890   3.487  0.00  0.00    +0.063 A 
ATOM     13  C   UNL     1      -2.321  -4.557   3.224  0.00  0.00    +0.025 A 
ATOM     14 BR   UNL     1      -5.052  -4.865   3.970  0.00  0.00    -0.046 Br
BRANCH  11  15
ATOM     15  O   UNL     1      -4.721  -1.852   3.646  0.00  0.00    -0.503 OA
ATOM     16  H   UNL     1      -5.282  -1.729   2.868  0.00  0.00    +0.292 HD
ENDBRANCH  11  15
BRANCH  10  17
ATOM     17  O   UNL     1      -2.464  -0.439   2.942  0.00  0.00    -0.491 OA
ATOM     18  C   UNL     1      -1.232   0.236   2.684  0.00  0.00    +0.277 C 
ENDBRANCH  10  17
ENDBRANCH   2   8
BRANCH   1  19
ATOM     19  C   UNL     1      -0.247  -4.760  -0.035  0.00  0.00    +0.195 C 
ATOM     20  O   UNL     1      -1.282  -5.008  -0.625  0.00  0.00    -0.287 OA
BRANCH  19  25
ATOM     21  C   UNL     1       3.694  -1.332  -2.451  0.00  0.00    +0.044 C 
ATOM     22  C   UNL     1       2.662  -2.230  -1.818  0.00  0.00    -0.050 A 
ATOM     23  C   UNL     1       1.513  -2.557  -2.517  0.00  0.00    +0.004 A 
ATOM     24  C   UNL     1       0.565  -3.378  -1.944  0.00  0.00    +0.012 A 
ATOM     25  C   UNL     1       0.766  -3.880  -0.656  0.00  0.00    +0.022 A 
ATOM     26  C   UNL     1       1.927  -3.545   0.043  0.00  0.00    +0.012 A 
ATOM     27  C   UNL     1       2.870  -2.728  -0.544  0.00  0.00    +0.004 A 
ENDBRANCH  19  25
ENDBRANCH   1  19
BRANCH   3  28
ATOM     28  C   UNL     1       0.519  -5.321   5.066  0.00  0.00    +0.114 C 
BRANCH  28  29
ATOM     29  C   UNL     1      -0.843  -5.373   5.762  0.00  0.00    +0.054 C 
BRANCH  29  30
ATOM     30  C   UNL     1      -0.665  -5.103   7.234  0.00  0.00    -0.046 A 
ATOM     31  C   UNL     1      -0.432  -6.150   8.105  0.00  0.00    +0.004 A 
ATOM     32  C   UNL     1      -0.269  -5.902   9.456  0.00  0.00    +0.000 A 
ATOM     33  C   UNL     1      -0.338  -4.607   9.934  0.00  0.00    +0.000 A 
ATOM     34  C   UNL     1      -0.569  -3.560   9.062  0.00  0.00    +0.000 A 
ATOM     35  C   UNL     1      -0.728  -3.807   7.711  0.00  0.00    +0.004 A 
ENDBRANCH  29  30
ENDBRANCH  28  29
ENDBRANCH   3  28
TORSDOF 8
