REMARK  Name = ZINC47383966
REMARK  5 active torsions:
REMARK  status: ('A' for Active; 'I' for Inactive)
REMARK    1  A    between atoms: C_1  and  C_2
REMARK    2  A    between atoms: C_2  and  C_9
REMARK    3  A    between atoms: C_13  and  N_15
REMARK    4  A    between atoms: C_16  and  C_18
REMARK    5  A    between atoms: C_18  and  C_23
REMARK                            x       y       z     vdW  Elec       q    Type
REMARK                         _______ _______ _______ _____ _____    ______ ____
ROOT
ATOM      1  C   UNL     1      -0.695  -0.389  -1.386  0.00  0.00    -0.014 A 
ATOM      2  C   UNL     1       0.263  -1.314  -1.012  0.00  0.00    +0.006 A 
ATOM      3  C   UNL     1       0.988  -1.991  -1.976  0.00  0.00    +0.002 A 
ATOM      4  C   UNL     1       0.757  -1.745  -3.315  0.00  0.00    +0.023 A 
ATOM      5  C   UNL     1      -0.205  -0.817  -3.694  0.00  0.00    +0.034 A 
ATOM      6  C   UNL     1      -0.935  -0.143  -2.723  0.00  0.00    +0.029 A 
ENDROOT
BRANCH   1   8
ATOM      7  C   UNL     1      -1.281   1.857  -0.468  0.00  0.00    +0.047 C 
ATOM      8  C   UNL     1      -1.483   0.346  -0.332  0.00  0.00    +0.135 C 
ATOM      9  C   UNL     1      -2.955  -0.006  -0.420  0.00  0.00    +0.248 C 
ATOM     10  O   UNL     1      -3.699   0.186  -1.358  0.00  0.00    -0.273 OA
ATOM     11  N   UNL     1      -3.265  -0.576   0.761  0.00  0.00    -0.238 N 
ATOM     12  C   UNL     1      -2.204  -0.633   1.575  0.00  0.00    +0.307 C 
ATOM     13  O   UNL     1      -2.236  -1.105   2.694  0.00  0.00    -0.252 OA
ATOM     14  N   UNL     1      -1.098  -0.110   1.015  0.00  0.00    -0.282 N 
ATOM     15  H   UNL     1      -4.148  -0.904   0.993  0.00  0.00    +0.159 HD
ATOM     16  H   UNL     1      -0.219  -0.046   1.419  0.00  0.00    +0.152 HD
ENDBRANCH   1   8
BRANCH   5  17
ATOM     17  N   UNL     1      -0.441  -0.565  -5.050  0.00  0.00    -0.285 N 
ATOM     18  C   UNL     1       0.566  -0.670  -5.940  0.00  0.00    +0.228 C 
ATOM     19  O   UNL     1       1.640  -1.114  -5.591  0.00  0.00    -0.275 OA
ATOM     20  H   UNL     1      -1.329  -0.316  -5.349  0.00  0.00    +0.155 HD
BRANCH  18  21
ATOM     21  C   UNL     1       0.357  -0.236  -7.368  0.00  0.00    +0.072 C 
ATOM     22  C   UNL     1      -1.017  -0.714  -7.868  0.00  0.00    +0.021 C 
ATOM     23  C   UNL     1      -0.749  -1.647  -9.067  0.00  0.00    +0.001 C 
ATOM     24  C   UNL     1       0.698  -2.150  -8.841  0.00  0.00    +0.001 C 
ATOM     25  C   UNL     1       1.412  -0.896  -8.280  0.00  0.00    +0.021 C 
BRANCH  21  26
ATOM     26  C   UNL     1       0.452   1.264  -7.470  0.00  0.00    -0.032 A 
ATOM     27  C   UNL     1       0.855   2.007  -6.376  0.00  0.00    +0.006 A 
ATOM     28  C   UNL     1       0.941   3.384  -6.469  0.00  0.00    +0.020 A 
ATOM     29  C   UNL     1       0.625   4.018  -7.658  0.00  0.00    +0.041 A 
ATOM     30  C   UNL     1       0.222   3.273  -8.752  0.00  0.00    +0.020 A 
ATOM     31  C   UNL     1       0.141   1.897  -8.659  0.00  0.00    +0.006 A 
ATOM     32 CL   UNL     1       0.734   5.746  -7.775  0.00  0.00    -0.084 Cl
ENDBRANCH  21  26
ENDBRANCH  18  21
ENDBRANCH   5  17
TORSDOF 4
