REMARK  Name = ZINC01259821
REMARK  3 active torsions:
REMARK  status: ('A' for Active; 'I' for Inactive)
REMARK    1  A    between atoms: C_5  and  C_7
REMARK    2  A    between atoms: N_8  and  N_9
REMARK    3  A    between atoms: C_10  and  C_15
REMARK                            x       y       z     vdW  Elec       q    Type
REMARK                         _______ _______ _______ _____ _____    ______ ____
ROOT
ATOM      1  N   UNL     1      -1.478   3.464   0.315  0.00  0.00    -0.186 N 
ATOM      2  C   UNL     1      -1.300   2.130   0.020  0.00  0.00    +0.187 A 
ATOM      3  N   UNL     1      -2.485   1.635  -0.256  0.00  0.00    -0.126 NA
ATOM      4  N   UNL     1      -3.380   2.551  -0.147  0.00  0.00    -0.119 NA
ATOM      5  C   UNL     1      -2.822   3.691   0.196  0.00  0.00    +0.223 A 
ATOM      6  S   UNL     1      -3.651   5.224   0.454  0.00  0.00    -0.007 SA
ENDROOT
BRANCH   2   7
ATOM      7  C   UNL     1      -0.017   1.396   0.010  0.00  0.00    +0.039 A 
ATOM      8  C   UNL     1       0.002  -0.004   0.002  0.00  0.00    +0.014 A 
ATOM      9  C   UNL     1       1.229  -0.643  -0.013  0.00  0.00    +0.020 A 
ATOM     10  C   UNL     1       2.387   0.114  -0.020  0.00  0.00    +0.111 A 
ATOM     11  N   UNL     1       2.339   1.432  -0.013  0.00  0.00    -0.263 NA
ATOM     12  C   UNL     1       1.196   2.087   0.002  0.00  0.00    +0.122 A 
ENDBRANCH   2   7
BRANCH   1  14
ATOM     13  C   UNL     1       0.108   5.083  -0.260  0.00  0.00    +0.142 C 
ATOM     14  N   UNL     1      -0.489   4.394   0.663  0.00  0.00    -0.170 NA
BRANCH  13  19
ATOM     15  C   UNL     1       2.764   7.720  -0.535  0.00  0.00    +0.001 A 
ATOM     16  C   UNL     1       3.102   7.901   0.795  0.00  0.00    +0.001 A 
ATOM     17  C   UNL     1       2.469   7.169   1.783  0.00  0.00    +0.020 A 
ATOM     18  C   UNL     1       1.494   6.250   1.448  0.00  0.00    +0.050 A 
ATOM     19  C   UNL     1       1.148   6.062   0.106  0.00  0.00    +0.013 A 
ATOM     20  C   UNL     1       1.797   6.801  -0.886  0.00  0.00    +0.011 A 
ATOM     21 CL   UNL     1       0.700   5.332   2.688  0.00  0.00    -0.083 Cl
ENDBRANCH  13  19
ENDBRANCH   1  14
TORSDOF 3
