REMARK  Name = ZINC08344072
REMARK  7 active torsions:
REMARK  status: ('A' for Active; 'I' for Inactive)
REMARK    1  A    between atoms: C_1  and  C_2
REMARK    2  A    between atoms: C_5  and  S_7
REMARK    3  A    between atoms: S_7  and  C_8
REMARK    4  A    between atoms: C_8  and  C_9
REMARK    5  A    between atoms: C_9  and  C_11
REMARK    6  A    between atoms: C_12  and  N_23
REMARK    7  A    between atoms: N_13  and  C_20
REMARK                            x       y       z     vdW  Elec       q    Type
REMARK                         _______ _______ _______ _____ _____    ______ ____
ROOT
ATOM      1  C   UNL     1      -1.550  -5.278  -0.340  0.00  0.00    +0.120 A 
ATOM      2  C   UNL     1      -1.579  -6.642  -0.002  0.00  0.00    +0.116 A 
ATOM      3  N   UNL     1      -2.773  -7.215   0.331  0.00  0.00    -0.278 N 
ATOM      4  C   UNL     1      -3.912  -6.505   0.331  0.00  0.00    +0.331 A 
ATOM      5  O   UNL     1      -4.950  -7.062   0.630  0.00  0.00    -0.246 OA
ATOM      6  N   UNL     1      -3.947  -5.201   0.011  0.00  0.00    -0.274 N 
ATOM      7  H   UNL     1      -4.820  -4.713   0.025  0.00  0.00    +0.173 HD
ATOM      8  C   UNL     1      -2.821  -4.541  -0.327  0.00  0.00    +0.266 A 
ATOM      9  O   UNL     1      -2.856  -3.359  -0.616  0.00  0.00    -0.267 OA
ENDROOT
BRANCH   3  10
ATOM     10  C   UNL     1      -2.813  -8.634   0.691  0.00  0.00    +0.094 C 
ATOM     11  C   UNL     1      -3.590  -9.023   1.950  0.00  0.00    +0.027 C 
ATOM     12  C   UNL     1      -2.060  -9.065   1.951  0.00  0.00    +0.027 C 
ENDBRANCH   3  10
BRANCH   2  13
ATOM     13  N   UNL     1      -0.435  -7.378  -0.002  0.00  0.00    -0.344 N 
ATOM     14  H   UNL     1       0.420  -6.947   0.153  0.00  0.00    +0.144 HD
ATOM     15  H   UNL     1      -0.474  -8.335  -0.156  0.00  0.00    +0.144 HD
ENDBRANCH   2  13
BRANCH   1  16
ATOM     16  C   UNL     1      -0.341  -4.639  -0.686  0.00  0.00    +0.182 C 
ATOM     17  O   UNL     1       0.713  -5.233  -0.577  0.00  0.00    -0.291 OA
BRANCH  16  18
ATOM     18  C   UNL     1      -0.356  -3.219  -1.191  0.00  0.00    +0.156 C 
BRANCH  18  19
ATOM     19  S   UNL     1       1.336  -2.686  -1.546  0.00  0.00    -0.089 S 
BRANCH  19  24
ATOM     20  C   UNL     1       1.089   2.874  -3.503  0.00  0.00    +0.075 C 
ATOM     21  C   UNL     1       0.933   1.467  -2.987  0.00  0.00    +0.100 A 
ATOM     22  N   UNL     1      -0.155   0.807  -2.645  0.00  0.00    -0.146 NA
ATOM     23  N   UNL     1      -0.115  -0.382  -2.225  0.00  0.00    -0.135 NA
ATOM     24  C   UNL     1       1.030  -1.042  -2.102  0.00  0.00    +0.159 A 
ATOM     25  S   UNL     1       2.173   0.217  -2.663  0.00  0.00    -0.044 S 
ENDBRANCH  19  24
ENDBRANCH  18  19
ENDBRANCH  16  18
ENDBRANCH   1  16
TORSDOF 6
