REMARK  Name = ZINC16736032
REMARK  8 active torsions:
REMARK  status: ('A' for Active; 'I' for Inactive)
REMARK    1  A    between atoms: C_1  and  C_2
REMARK    2  A    between atoms: C_5  and  C_8
REMARK    3  A    between atoms: C_8  and  C_10
REMARK    4  A    between atoms: C_10  and  N_12
REMARK    5  A    between atoms: C_10  and  N_25
REMARK    6  A    between atoms: N_12  and  C_13
REMARK    7  A    between atoms: C_14  and  C_22
REMARK    8  A    between atoms: C_26  and  C_28
REMARK                            x       y       z     vdW  Elec       q    Type
REMARK                         _______ _______ _______ _____ _____    ______ ____
ROOT
ATOM      1  C   UNL     1      -6.262   0.757   3.423  0.00  0.00    +0.232 C 
ENDROOT
BRANCH   1   2
ATOM      2  N   UNL     1      -6.699   2.151   3.539  0.00  0.00    -0.286 N 
ATOM      3  C   UNL     1      -5.989   3.020   4.286  0.00  0.00    +0.252 C 
ATOM      4  O   UNL     1      -4.986   2.647   4.864  0.00  0.00    -0.270 OA
ATOM      5  H   UNL     1      -7.499   2.448   3.078  0.00  0.00    +0.151 HD
BRANCH   3   6
ATOM      6  C   UNL     1      -6.426   4.414   4.401  0.00  0.00    +0.074 A 
ATOM      7  C   UNL     1      -5.848   5.455   5.110  0.00  0.00    +0.021 A 
ATOM      8  C   UNL     1      -6.470   6.677   5.046  0.00  0.00    +0.008 A 
ATOM      9  C   UNL     1      -7.602   6.807   4.306  0.00  0.00    +0.046 A 
ATOM     10  S   UNL     1      -7.838   5.215   3.660  0.00  0.00    -0.092 S 
ENDBRANCH   3   6
ENDBRANCH   1   2
BRANCH   1  11
ATOM     11  C   UNL     1      -7.449  -0.157   3.590  0.00  0.00    +0.201 C 
ATOM     12  O   UNL     1      -7.628  -1.067   2.809  0.00  0.00    -0.288 OA
BRANCH  11  17
ATOM     13  C   UNL     1     -11.126   0.671   7.931  0.00  0.00    +0.044 C 
ATOM     14  C   UNL     1     -10.162   0.454   6.793  0.00  0.00    -0.050 A 
ATOM     15  C   UNL     1     -10.439  -0.499   5.828  0.00  0.00    +0.004 A 
ATOM     16  C   UNL     1      -9.562  -0.703   4.784  0.00  0.00    +0.012 A 
ATOM     17  C   UNL     1      -8.390   0.056   4.701  0.00  0.00    +0.021 A 
ATOM     18  C   UNL     1      -8.115   1.013   5.683  0.00  0.00    +0.012 A 
ATOM     19  C   UNL     1      -9.004   1.209   6.718  0.00  0.00    +0.004 A 
ENDBRANCH  11  17
ENDBRANCH   1  11
BRANCH   1  20
ATOM     20  N   UNL     1      -5.662   0.542   2.104  0.00  0.00    -0.314 N 
ATOM     21  H   UNL     1      -6.227   0.475   1.319  0.00  0.00    +0.149 HD
BRANCH  20  22
ATOM     22  C   UNL     1      -4.289   0.433   1.979  0.00  0.00    +0.080 A 
ATOM     23  C   UNL     1      -3.541   0.230   0.827  0.00  0.00    +0.068 A 
ATOM     24  C   UNL     1      -2.096   0.152   0.970  0.00  0.00    -0.023 A 
ATOM     25  C   UNL     1      -1.635   0.289   2.232  0.00  0.00    -0.005 A 
ATOM     26  S   UNL     1      -3.085   0.518   3.222  0.00  0.00    -0.078 S 
ATOM     27  C   UNL     1      -0.204   0.251   2.683  0.00  0.00    +0.043 C 
ATOM     28  C   UNL     1       0.642  -0.339   1.546  0.00  0.00    +0.005 C 
ATOM     29  C   UNL     1       0.266   0.357   0.235  0.00  0.00    +0.005 C 
ATOM     30  C   UNL     1      -1.139  -0.067  -0.195  0.00  0.00    +0.037 C 
BRANCH  23  31
ATOM     31  C   UNL     1      -4.183   0.097  -0.483  0.00  0.00    +0.244 C 
ATOM     32  O   UNL     1      -4.519  -1.000  -0.888  0.00  0.00    -0.270 OA
ATOM     33  N   UNL     1      -4.401   1.191  -1.240  0.00  0.00    -0.325 N 
ATOM     34  H   UNL     1      -4.133   2.066  -0.917  0.00  0.00    +0.145 HD
ATOM     35  H   UNL     1      -4.826   1.103  -2.107  0.00  0.00    +0.145 HD
ENDBRANCH  23  31
ENDBRANCH  20  22
ENDBRANCH   1  20
TORSDOF 7
