REMARK  Name = ZINC02794571
REMARK  7 active torsions:
REMARK  status: ('A' for Active; 'I' for Inactive)
REMARK    1  A    between atoms: C_1  and  C_2
REMARK    2  A    between atoms: C_5  and  C_8
REMARK    3  A    between atoms: C_8  and  N_9
REMARK    4  A    between atoms: C_10  and  C_28
REMARK    5  A    between atoms: C_11  and  N_15
REMARK    6  A    between atoms: C_12  and  C_14
REMARK    7  A    between atoms: C_16  and  C_18
REMARK                            x       y       z     vdW  Elec       q    Type
REMARK                         _______ _______ _______ _____ _____    ______ ____
ROOT
ATOM      1  N   UNL     1       5.756   9.432  -0.315  0.00  0.00    -0.262 N 
ATOM      2  C   UNL     1       5.463   8.140  -0.617  0.00  0.00    +0.058 A 
ATOM      3  C   UNL     1       4.158   7.933  -0.307  0.00  0.00    +0.077 A 
ATOM      4  C   UNL     1       3.643   9.131   0.208  0.00  0.00    +0.081 A 
ATOM      5  N   UNL     1       4.598  10.026   0.203  0.00  0.00    -0.174 NA
ATOM      6  C   UNL     1       2.230   9.351   0.686  0.00  0.00    +0.069 C 
ATOM      7  C   UNL     1       6.414   7.124  -1.194  0.00  0.00    +0.067 C 
ENDROOT
BRANCH   3   8
ATOM      8  N   UNL     1       3.450   6.728  -0.468  0.00  0.00    -0.277 N 
ATOM      9  C   UNL     1       2.898   6.122   0.603  0.00  0.00    +0.270 C 
ATOM     10  O   UNL     1       3.086   6.568   1.718  0.00  0.00    -0.268 OA
ATOM     11  H   UNL     1       3.358   6.333  -1.349  0.00  0.00    +0.155 HD
BRANCH   9  12
ATOM     12  C   UNL     1       2.064   4.915   0.421  0.00  0.00    +0.168 A 
ATOM     13  C   UNL     1       1.436   4.195   1.443  0.00  0.00    +0.117 A 
ATOM     14  C   UNL     1       0.756   3.139   0.855  0.00  0.00    +0.175 A 
ATOM     15  N   UNL     1       0.000   2.156   1.364  0.00  0.00    -0.235 NA
ATOM     16  C   UNL     1      -0.553   1.260   0.583  0.00  0.00    +0.114 A 
ATOM     17  C   UNL     1      -0.352   1.309  -0.805  0.00  0.00    +0.039 A 
ATOM     18  C   UNL     1       0.409   2.297  -1.333  0.00  0.00    +0.116 A 
ATOM     19  N   UNL     1       0.971   3.224  -0.499  0.00  0.00    -0.220 N 
ATOM     20  N   UNL     1       1.786   4.336  -0.737  0.00  0.00    -0.159 NA
ATOM     21 CL   UNL     1       1.498   4.557   3.140  0.00  0.00    -0.077 Cl
ENDBRANCH   9  12
ENDBRANCH   3   8
BRANCH   1  22
ATOM     22  C   UNL     1       7.054  10.086  -0.493  0.00  0.00    +0.179 C 
BRANCH  22  27
ATOM     23  C   UNL     1      10.221   9.419   4.294  0.00  0.00    +0.044 C 
ATOM     24  C   UNL     1       9.396   9.594   3.046  0.00  0.00    -0.050 A 
ATOM     25  C   UNL     1       9.469   8.656   2.032  0.00  0.00    +0.004 A 
ATOM     26  C   UNL     1       8.711   8.816   0.887  0.00  0.00    +0.006 A 
ATOM     27  C   UNL     1       7.880   9.913   0.755  0.00  0.00    -0.026 A 
ATOM     28  C   UNL     1       7.811  10.853   1.766  0.00  0.00    +0.006 A 
ATOM     29  C   UNL     1       8.566  10.691   2.913  0.00  0.00    +0.004 A 
ENDBRANCH  22  27
ENDBRANCH   1  22
TORSDOF 4
