REMARK  Name = ZINC01461157
REMARK  10 active torsions:
REMARK  status: ('A' for Active; 'I' for Inactive)
REMARK    1  A    between atoms: C_1  and  O_2
REMARK    2  A    between atoms: O_2  and  C_3
REMARK    3  A    between atoms: C_5  and  C_12
REMARK    4  A    between atoms: C_7  and  O_10
REMARK    5  A    between atoms: C_8  and  O_9
REMARK    6  A    between atoms: O_10  and  C_11
REMARK    7  A    between atoms: C_21  and  O_26
REMARK    8  A    between atoms: C_22  and  O_24
REMARK    9  A    between atoms: O_24  and  C_25
REMARK   10  A    between atoms: O_26  and  C_27
REMARK                            x       y       z     vdW  Elec       q    Type
REMARK                         _______ _______ _______ _____ _____    ______ ____
ROOT
ATOM      1  C   UNL     1      -4.871   0.264   0.038  0.00  0.00    +0.060 C 
ATOM      2  C   UNL     1      -5.696  -0.070  -1.205  0.00  0.00    +0.109 C 
ATOM      3  C   UNL     1      -6.270  -1.456  -1.082  0.00  0.00    +0.218 C 
ATOM      4  O   UNL     1      -6.378  -2.150  -2.071  0.00  0.00    -0.275 OA
ATOM      5  N   UNL     1      -6.664  -1.935   0.113  0.00  0.00    -0.285 N 
ATOM      6  C   UNL     1      -6.532  -1.154   1.268  0.00  0.00    +0.041 A 
ATOM      7  C   UNL     1      -5.666  -0.069   1.275  0.00  0.00    -0.015 A 
ATOM      8  C   UNL     1      -5.533   0.704   2.412  0.00  0.00    +0.055 A 
ATOM      9  C   UNL     1      -6.264   0.396   3.549  0.00  0.00    +0.162 A 
ATOM     10  C   UNL     1      -7.132  -0.691   3.545  0.00  0.00    +0.163 A 
ATOM     11  C   UNL     1      -7.265  -1.464   2.405  0.00  0.00    +0.073 A 
ATOM     12  H   UNL     1      -7.042  -2.826   0.174  0.00  0.00    +0.155 HD
ENDROOT
BRANCH   1  15
ATOM     13  C   UNL     1      -1.201  -0.638   0.010  0.00  0.00    +0.165 A 
ATOM     14  C   UNL     1      -2.375   0.101   0.019  0.00  0.00    +0.054 A 
ATOM     15  C   UNL     1      -3.598  -0.543   0.028  0.00  0.00    -0.032 A 
ATOM     16  C   UNL     1      -3.657  -1.924   0.027  0.00  0.00    +0.054 A 
ATOM     17  C   UNL     1      -2.488  -2.670   0.017  0.00  0.00    +0.165 A 
ATOM     18  C   UNL     1      -1.256  -2.027   0.003  0.00  0.00    +0.201 A 
BRANCH  13  20
ATOM     19  C   UNL     1      -0.017   1.425   0.010  0.00  0.00    +0.277 C 
ATOM     20  O   UNL     1       0.002  -0.004   0.002  0.00  0.00    -0.491 OA
ENDBRANCH  13  20
BRANCH  18  21
ATOM     21  O   UNL     1      -0.106  -2.755  -0.012  0.00  0.00    -0.501 OA
ATOM     22  H   UNL     1       0.234  -2.970   0.867  0.00  0.00    +0.292 HD
ENDBRANCH  18  21
BRANCH  17  23
ATOM     23  O   UNL     1      -2.547  -4.028   0.017  0.00  0.00    -0.491 OA
ATOM     24  C   UNL     1      -3.847  -4.621   0.026  0.00  0.00    +0.277 C 
ENDBRANCH  17  23
ENDBRANCH   1  15
BRANCH  10  25
ATOM     25  O   UNL     1      -7.850  -0.993   4.660  0.00  0.00    -0.491 OA
ATOM     26  C   UNL     1      -8.722  -2.123   4.584  0.00  0.00    +0.277 C 
ENDBRANCH  10  25
BRANCH   9  27
ATOM     27  O   UNL     1      -6.131   1.158   4.669  0.00  0.00    -0.491 OA
ATOM     28  C   UNL     1      -5.222   2.258   4.602  0.00  0.00    +0.277 C 
ENDBRANCH   9  27
TORSDOF 6
