REMARK  Name = ZINC58997977
REMARK  11 active torsions:
REMARK  status: ('A' for Active; 'I' for Inactive)
REMARK    1  A    between atoms: C_1  and  O_2
REMARK    2  A    between atoms: O_2  and  C_3
REMARK    3  A    between atoms: C_6  and  O_31
REMARK    4  A    between atoms: C_7  and  C_9
REMARK    5  A    between atoms: N_10  and  N_11
REMARK    6  A    between atoms: C_14  and  S_17
REMARK    7  A    between atoms: S_17  and  C_18
REMARK    8  A    between atoms: C_18  and  C_19
REMARK    9  A    between atoms: N_21  and  C_22
REMARK   10  A    between atoms: C_22  and  C_23
REMARK   11  A    between atoms: C_23  and  C_24
REMARK                            x       y       z     vdW  Elec       q    Type
REMARK                         _______ _______ _______ _____ _____    ______ ____
ROOT
ATOM      1  N   UNL     1       1.960  -6.046  -3.392  0.00  0.00    -0.205 N 
ATOM      2  C   UNL     1       2.575  -6.654  -4.471  0.00  0.00    +0.232 A 
ATOM      3  N   UNL     1       3.152  -6.038  -5.482  0.00  0.00    -0.186 NA
ATOM      4  C   UNL     1       3.642  -6.941  -6.338  0.00  0.00    +0.211 A 
ATOM      5  N   UNL     1       3.382  -8.144  -5.884  0.00  0.00    -0.144 NA
ATOM      6  N   UNL     1       2.695  -7.984  -4.670  0.00  0.00    -0.245 N 
ATOM      7  H   UNL     1       1.565  -6.587  -2.691  0.00  0.00    +0.177 HD
ATOM      8  H   UNL     1       2.369  -8.690  -4.090  0.00  0.00    +0.192 HD
ENDROOT
BRANCH   1  10
ATOM      9  C   UNL     1       1.330  -4.077  -2.300  0.00  0.00    +0.142 C 
ATOM     10  N   UNL     1       1.908  -4.648  -3.313  0.00  0.00    -0.187 NA
BRANCH   9  15
ATOM     11  C   UNL     1       0.606  -0.608  -1.056  0.00  0.00    +0.121 A 
ATOM     12  C   UNL     1       1.173   0.164  -2.062  0.00  0.00    +0.049 A 
ATOM     13  C   UNL     1       1.789  -0.441  -3.142  0.00  0.00    +0.049 A 
ATOM     14  C   UNL     1       1.845  -1.822  -3.228  0.00  0.00    +0.126 A 
ATOM     15  C   UNL     1       1.275  -2.606  -2.216  0.00  0.00    +0.039 A 
ATOM     16  C   UNL     1       0.659  -1.988  -1.125  0.00  0.00    +0.058 A 
BRANCH  11  18
ATOM     17  C   UNL     1      -0.017   1.425   0.010  0.00  0.00    +0.277 C 
ATOM     18  O   UNL     1       0.002  -0.004   0.002  0.00  0.00    -0.495 OA
ENDBRANCH  11  18
BRANCH  14  19
ATOM     19  O   UNL     1       2.450  -2.414  -4.290  0.00  0.00    -0.506 OA
ATOM     20  H   UNL     1       3.394  -2.582  -4.162  0.00  0.00    +0.292 HD
ENDBRANCH  14  19
ENDBRANCH   9  15
ENDBRANCH   1  10
BRANCH   4  21
ATOM     21  S   UNL     1       4.495  -6.574  -7.835  0.00  0.00    -0.075 S 
BRANCH  21  22
ATOM     22  C   UNL     1       4.890  -8.204  -8.526  0.00  0.00    +0.173 C 
BRANCH  22  23
ATOM     23  C   UNL     1       5.632  -8.032  -9.827  0.00  0.00    +0.223 C 
ATOM     24  O   UNL     1       5.870  -6.920 -10.246  0.00  0.00    -0.275 OA
ATOM     25  N   UNL     1       6.030  -9.115 -10.524  0.00  0.00    -0.314 N 
ATOM     26  H   UNL     1       5.840 -10.005 -10.188  0.00  0.00    +0.149 HD
BRANCH  25  27
ATOM     27  C   UNL     1       6.751  -8.948 -11.788  0.00  0.00    +0.109 C 
BRANCH  27  28
ATOM     28  C   UNL     1       7.085 -10.323 -12.371  0.00  0.00    +0.055 C 
BRANCH  28  29
ATOM     29  C   UNL     1       7.826 -10.151 -13.671  0.00  0.00    -0.028 A 
ATOM     30  C   UNL     1       7.136 -10.171 -14.869  0.00  0.00    +0.005 A 
ATOM     31  C   UNL     1       7.816 -10.013 -16.061  0.00  0.00    +0.000 A 
ATOM     32  C   UNL     1       9.187  -9.835 -16.058  0.00  0.00    +0.001 A 
ATOM     33  C   UNL     1       9.878  -9.815 -14.862  0.00  0.00    +0.020 A 
ATOM     34  C   UNL     1       9.197  -9.967 -13.667  0.00  0.00    +0.044 A 
ATOM     35 CL   UNL     1      10.064  -9.935 -12.163  0.00  0.00    -0.083 Cl
ENDBRANCH  28  29
ENDBRANCH  27  28
ENDBRANCH  25  27
ENDBRANCH  22  23
ENDBRANCH  21  22
ENDBRANCH   4  21
TORSDOF 10
