REMARK  Name = ZINC12950908
REMARK  11 active torsions:
REMARK  status: ('A' for Active; 'I' for Inactive)
REMARK    1  A    between atoms: C_1  and  O_2
REMARK    2  A    between atoms: O_2  and  C_3
REMARK    3  A    between atoms: C_3  and  C_5
REMARK    4  A    between atoms: C_6  and  N_10
REMARK    5  A    between atoms: C_11  and  C_13
REMARK    6  A    between atoms: C_13  and  S_14
REMARK    7  A    between atoms: S_14  and  C_15
REMARK    8  A    between atoms: C_20  and  N_21
REMARK    9  A    between atoms: C_22  and  C_24
REMARK   10  A    between atoms: C_24  and  N_57
REMARK   11  A    between atoms: C_25  and  N_57
REMARK                            x       y       z     vdW  Elec       q    Type
REMARK                         _______ _______ _______ _____ _____    ______ ____
ROOT
ATOM      1  C   UNL     1      -5.207   0.968  -3.159  0.00  0.00    +0.030 A 
ATOM      2  C   UNL     1      -6.469   0.392  -3.209  0.00  0.00    +0.016 A 
ATOM      3  C   UNL     1      -6.862  -0.496  -2.227  0.00  0.00    +0.001 A 
ATOM      4  C   UNL     1      -6.002  -0.815  -1.192  0.00  0.00    +0.002 A 
ATOM      5  C   UNL     1      -4.741  -0.251  -1.137  0.00  0.00    +0.024 A 
ATOM      6  C   UNL     1      -4.339   0.646  -2.115  0.00  0.00    +0.047 A 
ENDROOT
BRANCH   6   7
ATOM      7  N   UNL     1      -3.064   1.223  -2.059  0.00  0.00    -0.286 N 
ATOM      8  C   UNL     1      -2.022   0.510  -1.588  0.00  0.00    +0.200 C 
ATOM      9  O   UNL     1      -2.202  -0.601  -1.136  0.00  0.00    -0.278 OA
ATOM     10  H   UNL     1      -2.930   2.136  -2.358  0.00  0.00    +0.155 HD
BRANCH   8  11
ATOM     11  C   UNL     1      -0.632   1.092  -1.623  0.00  0.00    +0.015 C 
BRANCH  11  12
ATOM     12  N   UNL     1       0.316   0.116  -1.054  0.00  0.00    +0.387 N 
ATOM     13  H   UNL     1       0.286  -0.748  -1.608  0.00  0.00    -0.085 HD
ATOM     14  H   UNL     1       0.049  -0.090  -0.084  0.00  0.00    -0.085 HD
BRANCH  12  15
ATOM     15  C   UNL     1       1.687   0.660  -1.076  0.00  0.00    -0.071 C 
ATOM     16  C   UNL     1       2.323   0.388  -2.441  0.00  0.00    -0.016 C 
ATOM     17  C   UNL     1       3.748   0.945  -2.460  0.00  0.00    -0.002 C 
ATOM     18  C   UNL     1       4.575   0.266  -1.367  0.00  0.00    -0.000 C 
ATOM     19  C   UNL     1       3.939   0.538  -0.002  0.00  0.00    -0.002 C 
ATOM     20  C   UNL     1       2.514  -0.019   0.017  0.00  0.00    -0.016 C 
ENDBRANCH  12  15
ENDBRANCH  11  12
ENDBRANCH   8  11
ENDBRANCH   6   7
BRANCH   1  21
ATOM     21  S   UNL     1      -4.702   2.101  -4.411  0.00  0.00    -0.114 S 
BRANCH  21  22
ATOM     22  C   UNL     1      -6.134   2.196  -5.520  0.00  0.00    +0.170 C 
BRANCH  22  24
ATOM     23  N   UNL     1      -6.756   3.375  -7.604  0.00  0.00    -0.284 N 
ATOM     24  C   UNL     1      -5.831   3.146  -6.651  0.00  0.00    +0.227 C 
ATOM     25  O   UNL     1      -4.756   3.703  -6.703  0.00  0.00    -0.275 OA
ATOM     26  H   UNL     1      -7.645   2.995  -7.519  0.00  0.00    +0.155 HD
BRANCH  23  28
ATOM     27  C   UNL     1      -7.416   4.837  -9.437  0.00  0.00    +0.117 A 
ATOM     28  C   UNL     1      -6.436   4.160  -8.712  0.00  0.00    +0.055 A 
ATOM     29  C   UNL     1      -5.134   4.308  -9.141  0.00  0.00    +0.032 A 
ATOM     30  C   UNL     1      -4.878   5.079 -10.227  0.00  0.00    +0.048 A 
ATOM     31  S   UNL     1      -6.447   5.646 -10.697  0.00  0.00    -0.088 S 
BRANCH  27  32
ATOM     32  C   UNL     1      -8.815   4.872  -9.228  0.00  0.00    +0.347 C 
ATOM     33  O   UNL     1      -9.308   4.250  -8.306  0.00  0.00    -0.244 OA
BRANCH  32  35
ATOM     34  C   UNL     1     -11.005   5.588  -9.781  0.00  0.00    +0.280 C 
ATOM     35  O   UNL     1      -9.602   5.597 -10.051  0.00  0.00    -0.464 OA
ENDBRANCH  32  35
ENDBRANCH  27  32
ENDBRANCH  23  28
ENDBRANCH  22  24
ENDBRANCH  21  22
ENDBRANCH   1  21
TORSDOF 10
