REMARK  Name = ZINC06195555
REMARK  16 active torsions:
REMARK  status: ('A' for Active; 'I' for Inactive)
REMARK    1  A    between atoms: C_1  and  C_2
REMARK    2  A    between atoms: C_5  and  C_38
REMARK    3  A    between atoms: C_6  and  N_8
REMARK    4  A    between atoms: N_8  and  C_9
REMARK    5  A    between atoms: C_9  and  C_11
REMARK    6  A    between atoms: C_9  and  C_20
REMARK    7  A    between atoms: C_14  and  N_17
REMARK    8  A    between atoms: N_17  and  C_18
REMARK    9  A    between atoms: N_17  and  C_19
REMARK   10  A    between atoms: N_22  and  C_23
REMARK   11  A    between atoms: C_23  and  C_24
REMARK   12  A    between atoms: C_24  and  O_25
REMARK   13  A    between atoms: O_25  and  C_26
REMARK   14  A    between atoms: C_27  and  C_29
REMARK   15  A    between atoms: C_30  and  N_37
REMARK   16  A    between atoms: C_31  and  C_34
REMARK                            x       y       z     vdW  Elec       q    Type
REMARK                         _______ _______ _______ _____ _____    ______ ____
ROOT
ATOM      1  N   UNL     1      -2.808   3.802  -0.099  0.00  0.00    -0.251 N 
ATOM      2  C   UNL     1      -2.641   4.767  -1.025  0.00  0.00    +0.262 C 
ATOM      3  O   UNL     1      -2.802   5.935  -0.724  0.00  0.00    -0.269 OA
ENDROOT
BRANCH   1   9
ATOM      4  C   UNL     1       0.209  -0.028  -0.726  0.00  0.00    +0.044 C 
ATOM      5  C   UNL     1      -1.170   0.577  -0.758  0.00  0.00    -0.049 A 
ATOM      6  C   UNL     1      -2.255  -0.195  -1.133  0.00  0.00    +0.004 A 
ATOM      7  C   UNL     1      -3.522   0.357  -1.165  0.00  0.00    +0.005 A 
ATOM      8  C   UNL     1      -3.708   1.683  -0.827  0.00  0.00    -0.029 A 
ATOM      9  C   UNL     1      -2.622   2.460  -0.446  0.00  0.00    +0.041 A 
ATOM     10  C   UNL     1      -1.350   1.903  -0.415  0.00  0.00    +0.027 A 
ATOM     11  C   UNL     1      -5.089   2.286  -0.868  0.00  0.00    +0.045 C 
ENDBRANCH   1   9
BRANCH   2  12
ATOM     12  C   UNL     1      -2.265   4.410  -2.395  0.00  0.00    +0.116 A 
ATOM     13  C   UNL     1      -2.044   5.238  -3.496  0.00  0.00    +0.076 A 
ATOM     14  C   UNL     1      -1.699   4.522  -4.643  0.00  0.00    +0.155 A 
ATOM     15  N   UNL     1      -1.620   3.211  -4.582  0.00  0.00    -0.203 NA
ATOM     16  S   UNL     1      -1.961   2.803  -3.099  0.00  0.00    +0.019 S 
BRANCH  14  17
ATOM     17  C   UNL     1      -1.427   5.228  -5.908  0.00  0.00    +0.262 C 
ATOM     18  O   UNL     1      -1.503   6.441  -5.957  0.00  0.00    -0.269 OA
ATOM     19  N   UNL     1      -1.095   4.529  -7.012  0.00  0.00    -0.324 N 
ATOM     20  H   UNL     1      -1.035   3.561  -6.973  0.00  0.00    +0.145 HD
ATOM     21  H   UNL     1      -0.916   4.993  -7.844  0.00  0.00    +0.145 HD
ENDBRANCH  14  17
BRANCH  13  22
ATOM     22  N   UNL     1      -2.155   6.622  -3.455  0.00  0.00    -0.355 N 
ATOM     23  H   UNL     1      -2.399   7.065  -2.628  0.00  0.00    +0.142 HD
ATOM     24  H   UNL     1      -1.988   7.146  -4.255  0.00  0.00    +0.142 HD
ENDBRANCH  13  22
ENDBRANCH   2  12
BRANCH   1  25
ATOM     25  C   UNL     1      -3.183   4.159   1.271  0.00  0.00    +0.197 C 
BRANCH  25  26
ATOM     26  C   UNL     1      -3.439   2.905   2.065  0.00  0.00    -0.018 A 
ATOM     27  C   UNL     1      -2.427   1.978   2.236  0.00  0.00    +0.008 A 
ATOM     28  C   UNL     1      -2.656   0.829   2.968  0.00  0.00    +0.023 A 
ATOM     29  C   UNL     1      -3.909   0.600   3.524  0.00  0.00    +0.029 A 
ATOM     30  C   UNL     1      -4.925   1.530   3.345  0.00  0.00    +0.023 A 
ATOM     31  C   UNL     1      -4.687   2.679   2.617  0.00  0.00    +0.008 A 
BRANCH  29  32
ATOM     32  N   UNL     1      -4.146  -0.563   4.259  0.00  0.00    -0.336 N 
ATOM     33  C   UNL     1      -5.467  -0.803   4.844  0.00  0.00    +0.129 C 
ATOM     34  C   UNL     1      -3.073  -1.543   4.446  0.00  0.00    +0.129 C 
ENDBRANCH  29  32
ENDBRANCH  25  26
BRANCH  25  35
ATOM     35  C   UNL     1      -2.065   4.940   1.911  0.00  0.00    +0.239 C 
ATOM     36  O   UNL     1      -1.053   5.175   1.285  0.00  0.00    -0.273 OA
ATOM     37  N   UNL     1      -2.188   5.377   3.180  0.00  0.00    -0.311 N 
ATOM     38  H   UNL     1      -2.997   5.189   3.681  0.00  0.00    +0.149 HD
BRANCH  37  39
ATOM     39  C   UNL     1      -1.101   6.136   3.803  0.00  0.00    +0.132 C 
BRANCH  39  40
ATOM     40  C   UNL     1      -1.493   6.509   5.234  0.00  0.00    +0.178 C 
BRANCH  40  41
ATOM     41  O   UNL     1      -1.622   5.321   6.018  0.00  0.00    -0.381 OA
ATOM     42  C   UNL     1      -1.988   5.559   7.378  0.00  0.00    +0.194 C 
ENDBRANCH  40  41
ENDBRANCH  39  40
ENDBRANCH  37  39
ENDBRANCH  25  35
ENDBRANCH   1  25
TORSDOF 11
