REMARK  Name = ZINC06631484
REMARK  15 active torsions:
REMARK  status: ('A' for Active; 'I' for Inactive)
REMARK    1  A    between atoms: C_1  and  C_2
REMARK    2  A    between atoms: C_2  and  O_3
REMARK    3  A    between atoms: O_3  and  C_4
REMARK    4  A    between atoms: C_9  and  N_10
REMARK    5  A    between atoms: N_10  and  C_11
REMARK    6  A    between atoms: C_11  and  C_13
REMARK    7  A    between atoms: C_11  and  C_19
REMARK    8  A    between atoms: C_16  and  C_18
REMARK    9  A    between atoms: N_21  and  C_22
REMARK   10  A    between atoms: C_22  and  C_23
REMARK   11  A    between atoms: C_23  and  O_24
REMARK   12  A    between atoms: O_24  and  C_25
REMARK   13  A    between atoms: C_26  and  C_28
REMARK   14  A    between atoms: C_29  and  N_36
REMARK   15  A    between atoms: C_30  and  C_33
REMARK                            x       y       z     vdW  Elec       q    Type
REMARK                         _______ _______ _______ _____ _____    ______ ____
ROOT
ATOM      1  N   UNL     1      -4.540   3.310   2.058  0.00  0.00    -0.244 N 
ATOM      2  C   UNL     1      -4.890   4.580   2.340  0.00  0.00    +0.262 C 
ATOM      3  O   UNL     1      -4.499   5.106   3.366  0.00  0.00    -0.269 OA
ENDROOT
BRANCH   1   9
ATOM      4  C   UNL     1      -4.234   2.801  -0.289  0.00  0.00    +0.142 A 
ATOM      5  C   UNL     1      -4.681   2.198  -1.453  0.00  0.00    +0.047 A 
ATOM      6  C   UNL     1      -5.881   1.510  -1.458  0.00  0.00    +0.004 A 
ATOM      7  C   UNL     1      -6.634   1.418  -0.302  0.00  0.00    +0.002 A 
ATOM      8  C   UNL     1      -6.192   2.013   0.864  0.00  0.00    +0.027 A 
ATOM      9  C   UNL     1      -4.990   2.705   0.877  0.00  0.00    +0.080 A 
BRANCH   4  10
ATOM     10  O   UNL     1      -3.057   3.482  -0.284  0.00  0.00    -0.490 OA
BRANCH  10  12
ATOM     11  C   UNL     1      -1.048   4.338  -1.320  0.00  0.00    +0.048 C 
ATOM     12  C   UNL     1      -2.387   3.631  -1.538  0.00  0.00    +0.226 C 
ENDBRANCH  10  12
ENDBRANCH   4  10
ENDBRANCH   1   9
BRANCH   2  13
ATOM     13  C   UNL     1      -5.740   5.328   1.412  0.00  0.00    +0.116 A 
ATOM     14  C   UNL     1      -6.216   6.638   1.508  0.00  0.00    +0.076 A 
ATOM     15  C   UNL     1      -7.006   6.999   0.416  0.00  0.00    +0.155 A 
ATOM     16  N   UNL     1      -7.216   6.126  -0.543  0.00  0.00    -0.203 NA
ATOM     17  S   UNL     1      -6.439   4.815  -0.143  0.00  0.00    +0.019 S 
BRANCH  15  18
ATOM     18  C   UNL     1      -7.599   8.347   0.340  0.00  0.00    +0.262 C 
ATOM     19  O   UNL     1      -7.401   9.150   1.232  0.00  0.00    -0.269 OA
ATOM     20  N   UNL     1      -8.361   8.689  -0.718  0.00  0.00    -0.324 N 
ATOM     21  H   UNL     1      -8.519   8.049  -1.429  0.00  0.00    +0.145 HD
ATOM     22  H   UNL     1      -8.751   9.576  -0.767  0.00  0.00    +0.145 HD
ENDBRANCH  15  18
BRANCH  14  23
ATOM     23  N   UNL     1      -5.935   7.485   2.571  0.00  0.00    -0.355 N 
ATOM     24  H   UNL     1      -5.378   7.176   3.303  0.00  0.00    +0.142 HD
ATOM     25  H   UNL     1      -6.294   8.386   2.581  0.00  0.00    +0.142 HD
ENDBRANCH  14  23
ENDBRANCH   2  13
BRANCH   1  26
ATOM     26  C   UNL     1      -3.689   2.561   2.986  0.00  0.00    +0.233 C 
BRANCH  26  27
ATOM     27  C   UNL     1      -4.410   2.384   4.297  0.00  0.00    +0.135 A 
ATOM     28  C   UNL     1      -4.354   1.295   5.085  0.00  0.00    +0.047 A 
ATOM     29  C   UNL     1      -5.176   1.557   6.205  0.00  0.00    +0.045 A 
ATOM     30  C   UNL     1      -5.685   2.790   6.035  0.00  0.00    +0.102 A 
ATOM     31  O   UNL     1      -5.223   3.284   4.875  0.00  0.00    -0.462 OA
ATOM     32  C   UNL     1      -6.621   3.496   6.982  0.00  0.00    +0.086 C 
ENDBRANCH  26  27
BRANCH  26  33
ATOM     33  C   UNL     1      -2.408   3.320   3.216  0.00  0.00    +0.242 C 
ATOM     34  O   UNL     1      -2.223   4.382   2.660  0.00  0.00    -0.273 OA
ATOM     35  N   UNL     1      -1.466   2.819   4.040  0.00  0.00    -0.311 N 
ATOM     36  H   UNL     1      -1.614   1.970   4.486  0.00  0.00    +0.149 HD
BRANCH  35  37
ATOM     37  C   UNL     1      -0.221   3.557   4.264  0.00  0.00    +0.132 C 
BRANCH  37  38
ATOM     38  C   UNL     1       0.668   2.775   5.234  0.00  0.00    +0.178 C 
BRANCH  38  39
ATOM     39  O   UNL     1       1.062   1.541   4.629  0.00  0.00    -0.381 OA
ATOM     40  C   UNL     1       1.900   0.731   5.456  0.00  0.00    +0.194 C 
ENDBRANCH  38  39
ENDBRANCH  37  38
ENDBRANCH  35  37
ENDBRANCH  26  33
ENDBRANCH   1  26
TORSDOF 12
