REMARK  Name = ZINC43209388
REMARK  8 active torsions:
REMARK  status: ('A' for Active; 'I' for Inactive)
REMARK    1  A    between atoms: C_1  and  C_2
REMARK    2  A    between atoms: C_2  and  C_34
REMARK    3  A    between atoms: C_7  and  C_10
REMARK    4  A    between atoms: C_15  and  O_16
REMARK    5  A    between atoms: O_16  and  C_17
REMARK    6  A    between atoms: N_21  and  C_24
REMARK    7  A    between atoms: C_24  and  C_25
REMARK    8  A    between atoms: C_28  and  N_31
REMARK                            x       y       z     vdW  Elec       q    Type
REMARK                         _______ _______ _______ _____ _____    ______ ____
ROOT
ATOM      1  C   UNL     1      -0.154   1.521   0.026  0.00  0.00    +0.002 C 
ATOM      2  C   UNL     1      -0.064  -0.006   0.010  0.00  0.00    +0.045 C 
ATOM      3  C   UNL     1      -1.474  -0.629   0.077  0.00  0.00    +0.086 C 
ATOM      4  C   UNL     1      -1.311  -1.889   0.968  0.00  0.00    +0.077 C 
ATOM      5  C   UNL     1       0.186  -1.919   1.341  0.00  0.00    -0.023 C 
ATOM      6  N   UNL     1       0.624  -0.497   1.231  0.00  0.00    +0.395 N 
ATOM      7  C   UNL     1      -2.137  -1.562   2.191  0.00  0.00    +0.225 C 
ATOM      8  O   UNL     1      -2.284  -2.287   3.152  0.00  0.00    -0.275 OA
ATOM      9  N   UNL     1      -2.680  -0.348   2.049  0.00  0.00    -0.237 N 
ATOM     10  C   UNL     1      -2.378   0.275   0.886  0.00  0.00    +0.225 C 
ATOM     11  O   UNL     1      -2.761   1.372   0.542  0.00  0.00    -0.275 OA
ATOM     12  H   UNL     1       1.625  -0.449   1.116  0.00  0.00    -0.083 HD
ATOM     13  H   UNL     1       0.334   0.035   2.037  0.00  0.00    -0.083 HD
ENDROOT
BRANCH   5  14
ATOM     14  C   UNL     1       0.364  -2.401   2.758  0.00  0.00    -0.018 A 
ATOM     15  C   UNL     1       0.634  -1.497   3.767  0.00  0.00    +0.021 A 
ATOM     16  C   UNL     1       0.798  -1.939   5.068  0.00  0.00    +0.018 A 
ATOM     17  C   UNL     1       0.692  -3.287   5.360  0.00  0.00    +0.019 A 
ATOM     18  C   UNL     1       0.422  -4.194   4.354  0.00  0.00    +0.047 A 
ATOM     19  C   UNL     1       0.253  -3.752   3.050  0.00  0.00    +0.122 A 
ATOM     20 BR   UNL     1       1.167  -0.700   6.447  0.00  0.00    -0.050 Br
BRANCH  19  21
ATOM     21  O   UNL     1      -0.018  -4.643   2.059  0.00  0.00    -0.495 OA
ATOM     22  C   UNL     1      -0.119  -6.018   2.433  0.00  0.00    +0.277 C 
ENDBRANCH  19  21
ENDBRANCH   5  14
BRANCH   2  23
ATOM     23  C   UNL     1       0.661  -0.475  -1.226  0.00  0.00    +0.346 C 
ATOM     24  O   UNL     1       1.695  -1.113  -1.121  0.00  0.00    -0.248 OA
ATOM     25  O   UNL     1       0.214  -0.217  -2.330  0.00  0.00    -0.248 OA
ENDBRANCH   2  23
BRANCH   9  26
ATOM     26  C   UNL     1      -3.540   0.260   3.067  0.00  0.00    +0.151 C 
BRANCH  26  27
ATOM     27  C   UNL     1      -2.694   1.051   4.032  0.00  0.00    -0.029 A 
ATOM     28  C   UNL     1      -2.175   0.440   5.158  0.00  0.00    +0.007 A 
ATOM     29  C   UNL     1      -1.399   1.166   6.043  0.00  0.00    +0.033 A 
ATOM     30  C   UNL     1      -1.142   2.502   5.801  0.00  0.00    +0.126 A 
ATOM     31  C   UNL     1      -1.660   3.113   4.674  0.00  0.00    +0.033 A 
ATOM     32  C   UNL     1      -2.432   2.386   3.787  0.00  0.00    +0.007 A 
BRANCH  30  33
ATOM     33  N   UNL     1      -0.312   3.279   6.749  0.00  0.00    +0.056 N 
ATOM     34  O   UNL     1       0.141   2.745   7.734  0.00  0.00    -0.126 OA
ATOM     35  O   UNL     1      -0.087   4.448   6.537  0.00  0.00    -0.126 OA
ENDBRANCH  30  33
ENDBRANCH  26  27
ENDBRANCH   9  26
TORSDOF 6
