REMARK  Name = ZINC03039889
REMARK  6 active torsions:
REMARK  status: ('A' for Active; 'I' for Inactive)
REMARK    1  A    between atoms: C_4  and  O_19
REMARK    2  A    between atoms: C_5  and  N_7
REMARK    3  A    between atoms: C_8  and  C_9
REMARK    4  A    between atoms: C_11  and  N_16
REMARK    5  A    between atoms: O_19  and  C_20
REMARK    6  A    between atoms: C_20  and  C_21
REMARK                            x       y       z     vdW  Elec       q    Type
REMARK                         _______ _______ _______ _____ _____    ______ ____
ROOT
ATOM      1  C   UNL     1       6.999   4.434  -0.191  0.00  0.00    +0.002 A 
ATOM      2  C   UNL     1       8.232   3.815  -0.300  0.00  0.00    +0.004 A 
ATOM      3  C   UNL     1       8.322   2.436  -0.322  0.00  0.00    +0.048 A 
ATOM      4  C   UNL     1       7.176   1.663  -0.234  0.00  0.00    +0.153 A 
ATOM      5  C   UNL     1       5.926   2.285  -0.122  0.00  0.00    +0.106 A 
ATOM      6  C   UNL     1       5.847   3.679  -0.107  0.00  0.00    +0.031 A 
ENDROOT
BRANCH   5   7
ATOM      7  N   UNL     1       4.787   1.531  -0.035  0.00  0.00    -0.251 NA
ATOM      8  C   UNL     1       3.897   1.798   0.879  0.00  0.00    +0.123 C 
BRANCH   8   9
ATOM      9  C   UNL     1       2.622   1.067   0.899  0.00  0.00    +0.043 A 
ATOM     10  C   UNL     1       1.664   1.349   1.878  0.00  0.00    +0.046 A 
ATOM     11  C   UNL     1       0.471   0.660   1.891  0.00  0.00    +0.128 A 
ATOM     12  C   UNL     1       0.215  -0.313   0.939  0.00  0.00    +0.051 A 
ATOM     13  C   UNL     1       1.152  -0.602  -0.035  0.00  0.00    +0.067 A 
ATOM     14  C   UNL     1       2.358   0.081  -0.064  0.00  0.00    +0.201 A 
ATOM     15 BR   UNL     1       0.789  -1.933  -1.329  0.00  0.00    -0.046 Br
ATOM     16  O   UNL     1       3.280  -0.202  -1.020  0.00  0.00    -0.286 OA
BRANCH  11  17
ATOM     17  N   UNL     1      -0.545   0.965   2.925  0.00  0.00    +0.056 N 
ATOM     18  O   UNL     1      -1.602   0.360   2.936  0.00  0.00    -0.126 OA
ATOM     19  O   UNL     1      -0.323   1.819   3.763  0.00  0.00    -0.126 OA
ENDBRANCH  11  17
ENDBRANCH   8   9
ENDBRANCH   5   7
BRANCH   4  20
ATOM     20  O   UNL     1       7.264   0.308  -0.256  0.00  0.00    -0.426 OA
BRANCH  20  21
ATOM     21  C   UNL     1       8.572  -0.256  -0.371  0.00  0.00    +0.463 C 
ATOM     22  F   UNL     1       9.163   0.178  -1.562  0.00  0.00    -0.158 F 
ATOM     23  F   UNL     1       9.354   0.154   0.714  0.00  0.00    -0.158 F 
BRANCH  21  24
ATOM     24  C   UNL     1       8.470  -1.783  -0.379  0.00  0.00    +0.453 C 
ATOM     25  F   UNL     1       7.689  -2.193  -1.464  0.00  0.00    -0.198 F 
ATOM     26  F   UNL     1       9.751  -2.335  -0.492  0.00  0.00    -0.198 F 
ENDBRANCH  21  24
ENDBRANCH  20  21
ENDBRANCH   4  20
TORSDOF 6
