REMARK  Name = ZINC64884927
REMARK  10 active torsions:
REMARK  status: ('A' for Active; 'I' for Inactive)
REMARK    1  A    between atoms: C_1  and  C_2
REMARK    2  A    between atoms: C_2  and  C_3
REMARK    3  A    between atoms: C_3  and  C_4
REMARK    4  A    between atoms: C_4  and  N_5
REMARK    5  A    between atoms: N_8  and  N_9
REMARK    6  A    between atoms: C_10  and  C_12
REMARK    7  A    between atoms: C_12  and  S_13
REMARK    8  A    between atoms: S_13  and  C_14
REMARK    9  A    between atoms: N_18  and  C_19
REMARK   10  A    between atoms: C_24  and  C_25
REMARK                            x       y       z     vdW  Elec       q    Type
REMARK                         _______ _______ _______ _____ _____    ______ ____
ROOT
ATOM      1  N   UNL     1      -5.357  -3.470   0.035  0.00  0.00    -0.233 N 
ATOM      2  C   UNL     1      -6.621  -3.936   0.044  0.00  0.00    +0.239 C 
ATOM      3  O   UNL     1      -6.827  -5.131   0.040  0.00  0.00    -0.273 OA
ATOM      4  H   UNL     1      -5.192  -2.514   0.038  0.00  0.00    +0.173 HD
ENDROOT
BRANCH   1   8
ATOM      5  N   UNL     1      -2.787  -2.571   0.015  0.00  0.00    -0.298 N 
ATOM      6  C   UNL     1      -3.015  -3.899   0.010  0.00  0.00    +0.316 C 
ATOM      7  O   UNL     1      -2.080  -4.676  -0.003  0.00  0.00    -0.251 OA
ATOM      8  N   UNL     1      -4.280  -4.365   0.019  0.00  0.00    -0.218 N 
ATOM      9  H   UNL     1      -3.533  -1.950   0.025  0.00  0.00    +0.150 HD
ATOM     10  H   UNL     1      -4.444  -5.321   0.016  0.00  0.00    +0.174 HD
BRANCH   5  11
ATOM     11  C   UNL     1      -1.413  -2.063   0.004  0.00  0.00    +0.106 C 
BRANCH  11  12
ATOM     12  C   UNL     1      -1.433  -0.534   0.013  0.00  0.00    +0.018 C 
BRANCH  12  14
ATOM     13  C   UNL     1      -0.019   1.526   0.010  0.00  0.00    +0.004 C 
ATOM     14  C   UNL     1       0.002  -0.004   0.002  0.00  0.00    -0.002 C 
ENDBRANCH  12  14
ENDBRANCH  11  12
ENDBRANCH   5  11
ENDBRANCH   1   8
BRANCH   2  15
ATOM     15  C   UNL     1      -7.780  -2.972   0.060  0.00  0.00    +0.174 C 
BRANCH  15  16
ATOM     16  S   UNL     1      -9.338  -3.901   0.070  0.00  0.00    -0.078 S 
BRANCH  16  17
ATOM     17  C   UNL     1     -10.579  -2.650   0.089  0.00  0.00    +0.174 A 
ATOM     18  N   UNL     1     -10.365  -1.355   0.088  0.00  0.00    -0.230 NA
ATOM     19  C   UNL     1     -11.543  -0.709   0.104  0.00  0.00    +0.131 A 
ATOM     20  C   UNL     1     -12.528  -1.622   0.115  0.00  0.00    +0.113 A 
ATOM     21  N   UNL     1     -11.926  -2.862   0.101  0.00  0.00    -0.294 N 
BRANCH  21  22
ATOM     22  C   UNL     1     -12.575  -4.105   0.101  0.00  0.00    +0.051 A 
ATOM     23  C   UNL     1     -13.353  -4.484  -0.985  0.00  0.00    +0.026 A 
ATOM     24  C   UNL     1     -13.991  -5.709  -0.982  0.00  0.00    +0.002 A 
ATOM     25  C   UNL     1     -13.857  -6.557   0.102  0.00  0.00    +0.000 A 
ATOM     26  C   UNL     1     -13.083  -6.183   1.184  0.00  0.00    +0.005 A 
ATOM     27  C   UNL     1     -12.437  -4.962   1.184  0.00  0.00    -0.027 A 
ATOM     28  C   UNL     1     -11.589  -4.557   2.362  0.00  0.00    +0.046 C 
ENDBRANCH  21  22
ENDBRANCH  16  17
ENDBRANCH  15  16
ENDBRANCH   2  15
TORSDOF 8
