REMARK  Name = ZINC14359221
REMARK  13 active torsions:
REMARK  status: ('A' for Active; 'I' for Inactive)
REMARK    1  A    between atoms: C_3  and  C_34
REMARK    2  A    between atoms: C_6  and  N_7
REMARK    3  A    between atoms: C_8  and  C_10
REMARK    4  A    between atoms: C_10  and  O_11
REMARK    5  A    between atoms: O_11  and  C_12
REMARK    6  A    between atoms: C_12  and  C_14
REMARK    7  A    between atoms: C_14  and  C_15
REMARK    8  A    between atoms: C_15  and  C_16
REMARK    9  A    between atoms: C_16  and  C_17
REMARK   10  A    between atoms: C_17  and  C_18
REMARK   11  A    between atoms: C_18  and  N_19
REMARK   12  A    between atoms: N_19  and  S_20
REMARK   13  A    between atoms: S_20  and  C_23
REMARK                            x       y       z     vdW  Elec       q    Type
REMARK                         _______ _______ _______ _____ _____    ______ ____
ROOT
ATOM      1  C   UNL     1       6.847   0.434  -5.695  0.00  0.00    +0.011 C 
ENDROOT
BRANCH   1   2
ATOM      2  C   UNL     1       7.180   1.628  -6.593  0.00  0.00    +0.120 C 
BRANCH   2   3
ATOM      3  C   UNL     1       7.676   1.130  -7.926  0.00  0.00    +0.308 C 
ATOM      4  O   UNL     1       7.755  -0.057  -8.136  0.00  0.00    -0.251 OA
BRANCH   3   5
ATOM      5  O   UNL     1       8.030   2.006  -8.880  0.00  0.00    -0.455 OA
BRANCH   5   6
ATOM      6  C   UNL     1       8.499   1.455 -10.139  0.00  0.00    +0.328 C 
BRANCH   6   8
ATOM      7  N   UNL     1       9.308   2.305 -12.316  0.00  0.00    -0.283 N 
ATOM      8  C   UNL     1       8.848   2.579 -11.079  0.00  0.00    +0.255 C 
ATOM      9  O   UNL     1       8.715   3.731 -10.724  0.00  0.00    -0.272 OA
ATOM     10  H   UNL     1       9.487   1.387 -12.575  0.00  0.00    +0.155 HD
BRANCH   7  16
ATOM     11  C   UNL     1       8.703   4.461 -13.211  0.00  0.00    +0.024 A 
ATOM     12  C   UNL     1       8.919   5.488 -14.103  0.00  0.00    +0.022 A 
ATOM     13  C   UNL     1       9.960   5.400 -15.030  0.00  0.00    +0.070 A 
ATOM     14  C   UNL     1      10.784   4.269 -15.045  0.00  0.00    +0.060 A 
ATOM     15  C   UNL     1      10.565   3.248 -14.146  0.00  0.00    +0.044 A 
ATOM     16  C   UNL     1       9.527   3.341 -13.225  0.00  0.00    +0.035 A 
ATOM     17 CL   UNL     1      12.080   4.152 -16.195  0.00  0.00    -0.082 Cl
BRANCH  13  18
ATOM     18  C   UNL     1      10.184   6.463 -15.963  0.00  0.00    +0.101 C 
ATOM     19  N   UNL     1      10.362   7.307 -16.702  0.00  0.00    -0.191 NA
ENDBRANCH  13  18
ENDBRANCH   7  16
ENDBRANCH   6   8
ENDBRANCH   5   6
ENDBRANCH   3   5
ENDBRANCH   2   3
ENDBRANCH   1   2
BRANCH   1  20
ATOM     20  C   UNL     1       6.343   0.940  -4.341  0.00  0.00    +0.002 C 
BRANCH  20  21
ATOM     21  C   UNL     1       6.010  -0.254  -3.443  0.00  0.00    +0.017 C 
BRANCH  21  22
ATOM     22  C   UNL     1       5.506   0.252  -2.090  0.00  0.00    +0.106 C 
BRANCH  22  23
ATOM     23  N   UNL     1       5.187  -0.891  -1.230  0.00  0.00    -0.190 NA
ATOM     24  H   UNL     1       5.098  -1.777  -1.614  0.00  0.00    +0.148 HD
BRANCH  23  25
ATOM     25  S   UNL     1       4.977  -0.669   0.398  0.00  0.00    +0.059 S 
ATOM     26  O   UNL     1       6.087   0.095   0.849  0.00  0.00    -0.153 OA
ATOM     27  O   UNL     1       4.657  -1.942   0.943  0.00  0.00    -0.153 OA
BRANCH  25  28
ATOM     28  C   UNL     1       3.550   0.343   0.606  0.00  0.00    +0.109 A 
ATOM     29  C   UNL     1       2.303  -0.241   0.733  0.00  0.00    +0.032 A 
ATOM     30  C   UNL     1       1.181   0.549   0.895  0.00  0.00    +0.051 A 
ATOM     31  C   UNL     1       1.303   1.931   0.932  0.00  0.00    +0.162 A 
ATOM     32  C   UNL     1       2.557   2.517   0.808  0.00  0.00    +0.164 A 
ATOM     33  C   UNL     1       3.679   1.718   0.643  0.00  0.00    +0.078 A 
ATOM     34  O   UNL     1       2.701   3.870   0.849  0.00  0.00    -0.485 OA
ATOM     35  C   UNL     1       1.518   4.649   0.640  0.00  0.00    +0.270 C 
ATOM     36  C   UNL     1       0.392   4.053   1.495  0.00  0.00    +0.270 C 
ATOM     37  O   UNL     1       0.188   2.696   1.084  0.00  0.00    -0.485 OA
ENDBRANCH  25  28
ENDBRANCH  23  25
ENDBRANCH  22  23
ENDBRANCH  21  22
ENDBRANCH  20  21
ENDBRANCH   1  20
TORSDOF 13
