REMARK  Name = ZINC09015738
REMARK  4 active torsions:
REMARK  status: ('A' for Active; 'I' for Inactive)
REMARK    1  A    between atoms: C_4  and  N_7
REMARK    2  A    between atoms: C_11  and  C_12
REMARK    3  A    between atoms: N_16  and  C_17
REMARK    4  A    between atoms: C_25  and  O_26
REMARK                            x       y       z     vdW  Elec       q    Type
REMARK                         _______ _______ _______ _____ _____    ______ ____
ROOT
ATOM      1  N   UNL     1      -0.585   0.881   0.837  0.00  0.00    -0.189 N 
ATOM      2  C   UNL     1      -0.366  -0.438   0.640  0.00  0.00    +0.277 C 
ATOM      3  O   UNL     1      -1.194  -1.332   0.651  0.00  0.00    -0.267 OA
ATOM      4  C   UNL     1       1.079  -0.566   0.409  0.00  0.00    +0.133 C 
ATOM      5  C   UNL     1       1.783  -1.730   0.160  0.00  0.00    +0.059 C 
ATOM      6  N   UNL     1       1.586   0.701   0.492  0.00  0.00    -0.194 NA
ATOM      7  C   UNL     1       0.616   1.536   0.741  0.00  0.00    +0.295 C 
ENDROOT
BRANCH   1  11
ATOM      8  C   UNL     1      -4.280   2.656   1.592  0.00  0.00    +0.000 A 
ATOM      9  C   UNL     1      -3.126   3.417   1.640  0.00  0.00    +0.002 A 
ATOM     10  C   UNL     1      -1.900   2.831   1.391  0.00  0.00    +0.024 A 
ATOM     11  C   UNL     1      -1.827   1.478   1.091  0.00  0.00    +0.046 A 
ATOM     12  C   UNL     1      -2.988   0.718   1.037  0.00  0.00    +0.024 A 
ATOM     13  C   UNL     1      -4.210   1.308   1.293  0.00  0.00    +0.002 A 
ENDBRANCH   1  11
BRANCH   5  14
ATOM     14  C   UNL     1       1.092  -2.944  -0.032  0.00  0.00    +0.049 A 
ATOM     15  C   UNL     1       1.275  -4.115   0.688  0.00  0.00    +0.027 A 
ATOM     16  C   UNL     1       0.386  -5.060   0.168  0.00  0.00    +0.020 A 
ATOM     17  C   UNL     1      -0.304  -4.475  -0.841  0.00  0.00    +0.092 A 
ATOM     18  N   UNL     1       0.114  -3.188  -0.975  0.00  0.00    -0.314 N 
BRANCH  18  19
ATOM     19  C   UNL     1      -0.367  -2.264  -1.912  0.00  0.00    +0.082 A 
ATOM     20  C   UNL     1      -1.683  -1.825  -1.845  0.00  0.00    +0.029 A 
ATOM     21  C   UNL     1      -2.153  -0.911  -2.767  0.00  0.00    +0.002 A 
ATOM     22  C   UNL     1      -1.319  -0.440  -3.764  0.00  0.00    +0.003 A 
ATOM     23  C   UNL     1      -0.009  -0.876  -3.839  0.00  0.00    +0.040 A 
ATOM     24  C   UNL     1       0.470  -1.788  -2.915  0.00  0.00    +0.147 A 
ATOM     25  F   UNL     1       1.749  -2.216  -2.988  0.00  0.00    -0.203 F 
ENDBRANCH  18  19
ENDBRANCH   5  14
BRANCH   7  26
ATOM     26  O   UNL     1       0.773   2.872   0.884  0.00  0.00    -0.481 OA
ATOM     27  H   UNL     1       1.687   3.173   0.786  0.00  0.00    +0.295 HD
ENDBRANCH   7  26
TORSDOF 4
