REMARK  Name = ZINC09488744
REMARK  5 active torsions:
REMARK  status: ('A' for Active; 'I' for Inactive)
REMARK    1  A    between atoms: C_4  and  C_7
REMARK    2  A    between atoms: C_8  and  C_25
REMARK    3  A    between atoms: C_8  and  C_29
REMARK    4  A    between atoms: N_16  and  C_19
REMARK    5  A    between atoms: C_19  and  C_20
REMARK                            x       y       z     vdW  Elec       q    Type
REMARK                         _______ _______ _______ _____ _____    ______ ____
ROOT
ATOM      1  C   UNL     1       2.978  -3.007  -0.050  0.00  0.00    +0.106 C 
ATOM      2  C   UNL     1       3.688  -0.695  -0.020  0.00  0.00    +0.264 C 
ATOM      3  C   UNL     1       2.266  -0.372  -0.380  0.00  0.00    +0.098 A 
ATOM      4  C   UNL     1       1.904   0.938  -0.738  0.00  0.00    +0.262 A 
ATOM      5  O   UNL     1       2.743   1.821  -0.764  0.00  0.00    -0.267 OA
ATOM      6  N   UNL     1       0.621   1.208  -1.052  0.00  0.00    -0.275 N 
ATOM      7  H   UNL     1       0.360   2.139  -1.306  0.00  0.00    +0.173 HD
ATOM      8  C   UNL     1      -0.311   0.238  -1.026  0.00  0.00    +0.331 A 
ATOM      9  O   UNL     1      -1.461   0.505  -1.315  0.00  0.00    -0.246 OA
ATOM     10  N   UNL     1       0.013  -1.025  -0.690  0.00  0.00    -0.274 N 
ATOM     11  C   UNL     1       1.308  -1.342  -0.365  0.00  0.00    +0.120 A 
ATOM     12  N   UNL     1       1.650  -2.631  -0.029  0.00  0.00    -0.286 N 
ATOM     13  H   UNL     1       0.964  -3.269   0.222  0.00  0.00    +0.155 HD
ATOM     14  N   UNL     1       4.016  -2.164  -0.052  0.00  0.00    -0.348 N 
ATOM     15  H   UNL     1       4.985  -2.501  -0.075  0.00  0.00    +0.162 HD
ENDROOT
BRANCH   1  19
ATOM     16  C   UNL     1       3.962  -7.141  -0.114  0.00  0.00    +0.000 A 
ATOM     17  C   UNL     1       4.970  -6.193  -0.115  0.00  0.00    +0.001 A 
ATOM     18  C   UNL     1       4.656  -4.849  -0.094  0.00  0.00    +0.011 A 
ATOM     19  C   UNL     1       3.321  -4.447  -0.072  0.00  0.00    +0.013 A 
ATOM     20  C   UNL     1       2.310  -5.408  -0.067  0.00  0.00    +0.011 A 
ATOM     21  C   UNL     1       2.635  -6.749  -0.093  0.00  0.00    +0.001 A 
ENDBRANCH   1  19
BRANCH   2  22
ATOM     22  C   UNL     1       3.982  -0.167   1.385  0.00  0.00    +0.426 C 
ATOM     23  F   UNL     1       5.317  -0.426   1.712  0.00  0.00    -0.167 F 
ATOM     24  F   UNL     1       3.752   1.213   1.423  0.00  0.00    -0.167 F 
ATOM     25  F   UNL     1       3.143  -0.804   2.307  0.00  0.00    -0.167 F 
ENDBRANCH   2  22
BRANCH   2  26
ATOM     26  C   UNL     1       4.624  -0.009  -1.018  0.00  0.00    +0.426 C 
ATOM     27  F   UNL     1       4.134  -0.189  -2.316  0.00  0.00    -0.167 F 
ATOM     28  F   UNL     1       4.691   1.359  -0.730  0.00  0.00    -0.167 F 
ATOM     29  F   UNL     1       5.902  -0.569  -0.920  0.00  0.00    -0.167 F 
ENDBRANCH   2  26
BRANCH  10  30
ATOM     30  C   UNL     1      -1.020  -2.063  -0.671  0.00  0.00    +0.202 C 
BRANCH  30  31
ATOM     31  C   UNL     1      -1.104  -2.713  -2.029  0.00  0.00    +0.125 A 
ATOM     32  C   UNL     1      -0.399  -3.785  -2.432  0.00  0.00    +0.046 A 
ATOM     33  C   UNL     1      -0.790  -4.054  -3.764  0.00  0.00    +0.041 A 
ATOM     34  C   UNL     1      -1.705  -3.126  -4.097  0.00  0.00    +0.195 A 
ATOM     35  O   UNL     1      -1.891  -2.316  -3.042  0.00  0.00    -0.466 OA
ENDBRANCH  30  31
ENDBRANCH  10  30
TORSDOF 5
