REMARK  Name = ZINC42192299
REMARK  4 active torsions:
REMARK  status: ('A' for Active; 'I' for Inactive)
REMARK    1  A    between atoms: C_5  and  C_7
REMARK    2  A    between atoms: C_7  and  S_8
REMARK    3  A    between atoms: S_8  and  C_11
REMARK    4  A    between atoms: C_16  and  N_20
REMARK                            x       y       z     vdW  Elec       q    Type
REMARK                         _______ _______ _______ _____ _____    ______ ____
ROOT
ATOM      1  C   UNL     1       1.275  -4.556   1.534  0.00  0.00    +0.216 A 
ATOM      2  N   UNL     1       2.302  -5.358   1.460  0.00  0.00    -0.222 NA
ATOM      3  C   UNL     1       2.175  -6.698   1.345  0.00  0.00    +0.080 A 
ATOM      4  C   UNL     1       3.201  -7.669   1.256  0.00  0.00    +0.031 A 
ATOM      5  C   UNL     1       2.905  -8.990   1.143  0.00  0.00    +0.025 A 
ATOM      6  C   UNL     1       1.586  -9.443   1.111  0.00  0.00    +0.026 A 
ATOM      7  C   UNL     1       0.552  -8.521   1.196  0.00  0.00    +0.040 A 
ATOM      8  C   UNL     1       0.848  -7.185   1.310  0.00  0.00    +0.043 A 
ATOM      9  S   UNL     1      -0.103  -5.691   1.451  0.00  0.00    -0.049 S 
ENDROOT
BRANCH   1  10
ATOM     10  S   UNL     1       1.253  -2.800   1.685  0.00  0.00    +0.024 S 
ATOM     11  O   UNL     1       2.489  -2.474   2.304  0.00  0.00    -0.167 OA
ATOM     12  O   UNL     1       0.020  -2.507   2.328  0.00  0.00    -0.167 OA
BRANCH  10  13
ATOM     13  C   UNL     1       1.228  -2.186  -0.022  0.00  0.00    +0.212 C 
BRANCH  13  18
ATOM     14  C   UNL     1      -0.017   1.378   0.010  0.00  0.00    +0.000 A 
ATOM     15  C   UNL     1       1.171   2.087   0.002  0.00  0.00    +0.003 A 
ATOM     16  C   UNL     1       2.377   1.414  -0.013  0.00  0.00    +0.038 A 
ATOM     17  C   UNL     1       2.397   0.029  -0.021  0.00  0.00    +0.128 A 
ATOM     18  C   UNL     1       1.208  -0.679  -0.013  0.00  0.00    +0.009 A 
ATOM     19  C   UNL     1       0.002  -0.004   0.002  0.00  0.00    +0.008 A 
ATOM     20  F   UNL     1       3.577  -0.630  -0.036  0.00  0.00    -0.205 F 
ENDBRANCH  13  18
ENDBRANCH  10  13
ENDBRANCH   1  10
BRANCH   6  21
ATOM     21  N   UNL     1       1.310 -10.809   0.993  0.00  0.00    -0.358 N 
ATOM     22  H   UNL     1       2.037 -11.447   0.934  0.00  0.00    +0.142 HD
ATOM     23  H   UNL     1       0.391 -11.117   0.972  0.00  0.00    +0.142 HD
ENDBRANCH   6  21
TORSDOF 4
