REMARK  Name = ZINC38989929
REMARK  3 active torsions:
REMARK  status: ('A' for Active; 'I' for Inactive)
REMARK    1  A    between atoms: C_1  and  O_2
REMARK    2  A    between atoms: O_2  and  C_3
REMARK    3  A    between atoms: C_10  and  C_18
REMARK                            x       y       z     vdW  Elec       q    Type
REMARK                         _______ _______ _______ _____ _____    ______ ____
ROOT
ATOM      1  C   UNL     1      -1.200  -0.637   0.010  0.00  0.00    +0.121 A 
ATOM      2  C   UNL     1      -2.375   0.136   0.020  0.00  0.00    +0.047 A 
ATOM      3  C   UNL     1      -3.606  -0.417   0.023  0.00  0.00    +0.029 A 
ATOM      4  C   UNL     1      -3.753  -1.874   0.017  0.00  0.00    +0.043 A 
ATOM      5  N   UNL     1      -4.814  -2.649   0.041  0.00  0.00    -0.376 N 
ATOM      6  C   UNL     1      -4.375  -4.036  -0.072  0.00  0.00    +0.128 C 
ATOM      7  C   UNL     1      -4.875  -4.908   1.083  0.00  0.00    +0.121 C 
ATOM      8  N   UNL     1      -4.154  -6.190   1.040  0.00  0.00    -0.307 NA
ATOM      9  C   UNL     1      -2.724  -6.059   1.333  0.00  0.00    +0.086 C 
ATOM     10  C   UNL     1      -2.032  -5.237   0.230  0.00  0.00    +0.048 C 
ATOM     11  C   UNL     1      -2.858  -3.987   0.027  0.00  0.00    -0.035 C 
ATOM     12  C   UNL     1      -2.514  -2.694   0.017  0.00  0.00    +0.003 A 
ATOM     13  C   UNL     1      -1.226  -1.991   0.003  0.00  0.00    +0.055 A 
ATOM     14  H   UNL     1      -4.587  -6.869   1.648  0.00  0.00    +0.123 HD
ATOM     15  H   UNL     1      -5.733  -2.349   0.121  0.00  0.00    +0.160 HD
ENDROOT
BRANCH   7  16
ATOM     16  C   UNL     1      -6.354  -5.152   0.931  0.00  0.00    +0.100 A 
ATOM     17  H   UNL     1      -9.211  -4.537   2.361  0.00  0.00    +0.173 HD
ATOM     18  C   UNL     1      -6.843  -5.880  -0.146  0.00  0.00    +0.263 A 
ATOM     19  O   UNL     1      -6.004  -6.372  -1.061  0.00  0.00    -0.267 OA
ATOM     20  N   UNL     1      -8.182  -6.086  -0.261  0.00  0.00    -0.275 N 
ATOM     21  C   UNL     1      -9.031  -5.592   0.657  0.00  0.00    +0.329 A 
ATOM     22  O   UNL     1     -10.225  -5.789   0.535  0.00  0.00    -0.247 OA
ATOM     23  N   UNL     1      -8.581  -4.884   1.710  0.00  0.00    -0.275 N 
ATOM     24  C   UNL     1      -7.250  -4.657   1.870  0.00  0.00    +0.263 A 
ATOM     25  O   UNL     1      -6.809  -3.959   2.919  0.00  0.00    -0.267 OA
ATOM     26  H   UNL     1      -8.527  -6.594  -1.012  0.00  0.00    +0.173 HD
ENDBRANCH   7  16
BRANCH   1  28
ATOM     27  C   UNL     1      -0.017   1.425   0.010  0.00  0.00    +0.277 C 
ATOM     28  O   UNL     1       0.002  -0.004   0.002  0.00  0.00    -0.495 OA
ENDBRANCH   1  28
TORSDOF 2
