REMARK  Name = ZINC06732493
REMARK  4 active torsions:
REMARK  status: ('A' for Active; 'I' for Inactive)
REMARK    1  A    between atoms: C_1  and  C_2
REMARK    2  A    between atoms: C_6  and  C_8
REMARK    3  A    between atoms: C_21  and  C_23
REMARK    4  A    between atoms: C_26  and  O_29
REMARK                            x       y       z     vdW  Elec       q    Type
REMARK                         _______ _______ _______ _____ _____    ______ ____
ROOT
ATOM      1  C   UNL     1      -0.070   5.347   0.030  0.00  0.00    +0.175 C 
ATOM      2  C   UNL     1      -0.779   5.833   1.275  0.00  0.00    +0.041 C 
ATOM      3  C   UNL     1      -2.023   6.356   1.236  0.00  0.00    +0.020 C 
ATOM      4  C   UNL     1      -2.712   6.815   2.499  0.00  0.00    +0.052 C 
ATOM      5  C   UNL     1      -1.670   7.322   3.499  0.00  0.00    +0.014 C 
ATOM      6  C   UNL     1      -0.686   6.183   3.788  0.00  0.00    +0.080 C 
ATOM      7  C   UNL     1      -0.083   5.718   2.493  0.00  0.00    +0.163 C 
ATOM      8  O   UNL     1       1.030   5.230   2.497  0.00  0.00    -0.292 OA
ATOM      9  N   UNL     1      -2.712   6.498   0.055  0.00  0.00    -0.287 N 
ATOM     10  C   UNL     1      -2.010   6.364  -1.131  0.00  0.00    +0.219 A 
ATOM     11  N   UNL     1      -0.763   5.827  -1.159  0.00  0.00    -0.220 N 
ATOM     12  N   UNL     1      -0.349   5.847  -2.490  0.00  0.00    -0.147 NA
ATOM     13  C   UNL     1      -1.337   6.372  -3.186  0.00  0.00    +0.183 A 
ATOM     14  N   UNL     1      -2.343   6.682  -2.350  0.00  0.00    -0.193 NA
ATOM     15  H   UNL     1      -3.664   6.688   0.053  0.00  0.00    +0.155 HD
ENDROOT
BRANCH   1  21
ATOM     16  C   UNL     1       2.490   1.048  -0.016  0.00  0.00    +0.044 C 
ATOM     17  C   UNL     1       1.175   1.783   0.000  0.00  0.00    -0.050 A 
ATOM     18  C   UNL     1      -0.013   1.076   0.008  0.00  0.00    +0.003 A 
ATOM     19  C   UNL     1      -1.219   1.750   0.017  0.00  0.00    +0.001 A 
ATOM     20  C   UNL     1      -1.238   3.133   0.030  0.00  0.00    +0.006 A 
ATOM     21  C   UNL     1      -0.050   3.840   0.022  0.00  0.00    -0.018 A 
ATOM     22  C   UNL     1       1.157   3.165   0.008  0.00  0.00    +0.009 A 
ENDBRANCH   1  21
BRANCH  13  23
ATOM     23  C   UNL     1      -1.339   6.587  -4.654  0.00  0.00    +0.021 A 
ATOM     24  C   UNL     1      -0.227   6.227  -5.414  0.00  0.00    +0.015 A 
ATOM     25  C   UNL     1      -0.234   6.421  -6.779  0.00  0.00    +0.046 A 
ATOM     26  C   UNL     1      -1.342   6.987  -7.396  0.00  0.00    +0.117 A 
ATOM     27  C   UNL     1      -2.449   7.352  -6.641  0.00  0.00    +0.046 A 
ATOM     28  C   UNL     1      -2.450   7.154  -5.276  0.00  0.00    +0.015 A 
BRANCH  26  29
ATOM     29  O   UNL     1      -1.344   7.182  -8.740  0.00  0.00    -0.507 OA
ATOM     30  H   UNL     1      -0.999   8.043  -9.013  0.00  0.00    +0.292 HD
ENDBRANCH  26  29
ENDBRANCH  13  23
TORSDOF 3
