REMARK  Name = ZINC57841025
REMARK  6 active torsions:
REMARK  status: ('A' for Active; 'I' for Inactive)
REMARK    1  A    between atoms: C_1  and  C_2
REMARK    2  A    between atoms: C_2  and  C_13
REMARK    3  A    between atoms: N_5  and  C_9
REMARK    4  A    between atoms: C_9  and  C_10
REMARK    5  A    between atoms: C_10  and  C_11
REMARK    6  A    between atoms: C_11  and  N_12
REMARK                            x       y       z     vdW  Elec       q    Type
REMARK                         _______ _______ _______ _____ _____    ______ ____
ROOT
ATOM      1  C   UNL     1      -0.019   1.526   0.010  0.00  0.00    +0.047 C 
ATOM      2  C   UNL     1       0.002  -0.004   0.002  0.00  0.00    +0.135 C 
ATOM      3  C   UNL     1       0.815  -0.520  -1.169  0.00  0.00    +0.251 C 
ATOM      4  O   UNL     1       0.595  -0.342  -2.348  0.00  0.00    -0.272 OA
ATOM      5  N   UNL     1       1.833  -1.217  -0.627  0.00  0.00    -0.224 N 
ATOM      6  C   UNL     1       1.777  -1.214   0.710  0.00  0.00    +0.310 C 
ATOM      7  O   UNL     1       2.586  -1.776   1.421  0.00  0.00    -0.252 OA
ATOM      8  N   UNL     1       0.724  -0.519   1.178  0.00  0.00    -0.281 N 
ATOM      9  H   UNL     1       0.487  -0.383   2.109  0.00  0.00    +0.152 HD
ENDROOT
BRANCH   2  10
ATOM     10  C   UNL     1      -1.401  -0.551  -0.040  0.00  0.00    -0.015 A 
ATOM     11  C   UNL     1      -2.007  -0.816  -1.255  0.00  0.00    +0.006 A 
ATOM     12  C   UNL     1      -3.293  -1.314  -1.285  0.00  0.00    +0.004 A 
ATOM     13  C   UNL     1      -3.985  -1.554  -0.104  0.00  0.00    -0.044 A 
ATOM     14  C   UNL     1      -3.380  -1.296   1.105  0.00  0.00    -0.044 A 
ATOM     15  C   UNL     1      -2.084  -0.796   1.133  0.00  0.00    +0.010 A 
ATOM     16  C   UNL     1      -4.064  -1.548   2.423  0.00  0.00    +0.035 C 
ATOM     17  C   UNL     1      -5.573  -1.678   2.230  0.00  0.00    +0.005 C 
ATOM     18  C   UNL     1      -5.832  -2.701   1.117  0.00  0.00    +0.005 C 
ATOM     19  C   UNL     1      -5.388  -2.091  -0.211  0.00  0.00    +0.035 C 
ENDBRANCH   2  10
BRANCH   5  20
ATOM     20  C   UNL     1       2.871  -1.896  -1.406  0.00  0.00    +0.116 C 
BRANCH  20  21
ATOM     21  C   UNL     1       4.037  -0.936  -1.647  0.00  0.00    -0.000 C 
BRANCH  21  22
ATOM     22  C   UNL     1       5.122  -1.645  -2.460  0.00  0.00    -0.085 C 
BRANCH  22  23
ATOM     23  N   UNL     1       6.242  -0.722  -2.692  0.00  0.00    +0.378 N 
ATOM     24  H   UNL     1       5.913   0.085  -3.201  0.00  0.00    -0.090 HD
ATOM     25  H   UNL     1       6.624  -0.428  -1.806  0.00  0.00    -0.090 HD
ATOM     26  H   UNL     1       6.957  -1.190  -3.228  0.00  0.00    -0.090 HD
ENDBRANCH  22  23
ENDBRANCH  21  22
ENDBRANCH  20  21
ENDBRANCH   5  20
TORSDOF 5
