REMARK  Name = ZINC59915206
REMARK  11 active torsions:
REMARK  status: ('A' for Active; 'I' for Inactive)
REMARK    1  A    between atoms: C_1  and  C_2
REMARK    2  A    between atoms: C_2  and  C_3
REMARK    3  A    between atoms: C_3  and  C_4
REMARK    4  A    between atoms: C_4  and  C_29
REMARK    5  A    between atoms: N_5  and  N_6
REMARK    6  A    between atoms: C_10  and  S_13
REMARK    7  A    between atoms: N_11  and  N_12
REMARK    8  A    between atoms: S_13  and  C_14
REMARK    9  A    between atoms: C_14  and  C_15
REMARK   10  A    between atoms: N_17  and  C_18
REMARK   11  A    between atoms: C_19  and  C_27
REMARK                            x       y       z     vdW  Elec       q    Type
REMARK                         _______ _______ _______ _____ _____    ______ ____
ROOT
ATOM      1  S   UNL     1      -1.808  -8.008  -4.959  0.00  0.00    -0.075 S 
ENDROOT
BRANCH   1   6
ATOM      2  N   UNL     1       0.122  -4.049  -2.178  0.00  0.00    -0.204 N 
ATOM      3  C   UNL     1      -0.568  -4.747  -3.161  0.00  0.00    +0.254 A 
ATOM      4  N   UNL     1      -1.266  -4.218  -4.135  0.00  0.00    -0.109 NA
ATOM      5  N   UNL     1      -1.799  -5.262  -4.902  0.00  0.00    -0.119 NA
ATOM      6  C   UNL     1      -1.408  -6.396  -4.371  0.00  0.00    +0.210 A 
ATOM      7  N   UNL     1      -0.632  -6.107  -3.284  0.00  0.00    -0.211 N 
ATOM      8  H   UNL     1       0.617  -4.531  -1.498  0.00  0.00    +0.177 HD
BRANCH   2  10
ATOM      9  C   UNL     1       0.739  -2.004  -1.265  0.00  0.00    +0.034 C 
ATOM     10  N   UNL     1       0.103  -2.648  -2.171  0.00  0.00    -0.189 NA
ATOM     11  C   UNL     1       1.508  -2.753  -0.207  0.00  0.00    +0.062 C 
BRANCH   9  12
ATOM     12  C   UNL     1       0.718  -0.497  -1.257  0.00  0.00    +0.052 C 
BRANCH  12  14
ATOM     13  C   UNL     1      -0.019   1.526   0.010  0.00  0.00    +0.004 C 
ATOM     14  C   UNL     1       0.002  -0.004   0.002  0.00  0.00    +0.002 C 
ENDBRANCH  12  14
ENDBRANCH   9  12
ENDBRANCH   2  10
BRANCH   7  15
ATOM     15  N   UNL     1      -0.030  -7.018  -2.463  0.00  0.00    -0.294 N 
ATOM     16  H   UNL     1      -0.637  -7.272  -1.698  0.00  0.00    +0.163 HD
ATOM     17  H   UNL     1       0.262  -7.833  -2.980  0.00  0.00    +0.163 HD
ENDBRANCH   7  15
ENDBRANCH   1   6
BRANCH   1  18
ATOM     18  C   UNL     1      -2.846  -7.699  -6.415  0.00  0.00    +0.173 C 
BRANCH  18  19
ATOM     19  C   UNL     1      -3.263  -9.014  -7.022  0.00  0.00    +0.228 C 
ATOM     20  O   UNL     1      -2.896 -10.056  -6.522  0.00  0.00    -0.275 OA
ATOM     21  N   UNL     1      -4.044  -9.031  -8.121  0.00  0.00    -0.278 N 
ATOM     22  H   UNL     1      -4.337  -8.197  -8.520  0.00  0.00    +0.155 HD
BRANCH  21  23
ATOM     23  C   UNL     1      -4.428 -10.241  -8.680  0.00  0.00    +0.090 A 
ATOM     24  C   UNL     1      -5.215 -10.450  -9.801  0.00  0.00    +0.084 A 
ATOM     25  C   UNL     1      -5.473 -11.826 -10.185  0.00  0.00    -0.018 A 
ATOM     26  C   UNL     1      -4.897 -12.743  -9.377  0.00  0.00    -0.004 A 
ATOM     27  S   UNL     1      -4.039 -11.790  -8.159  0.00  0.00    -0.077 S 
ATOM     28  C   UNL     1      -4.977 -14.232  -9.505  0.00  0.00    +0.043 C 
ATOM     29  C   UNL     1      -6.121 -14.572 -10.472  0.00  0.00    +0.005 C 
ATOM     30  C   UNL     1      -5.987 -13.701 -11.724  0.00  0.00    +0.005 C 
ATOM     31  C   UNL     1      -6.312 -12.245 -11.383  0.00  0.00    +0.037 C 
BRANCH  24  32
ATOM     32  C   UNL     1      -5.752  -9.354 -10.550  0.00  0.00    +0.102 C 
ATOM     33  N   UNL     1      -6.178  -8.484 -11.143  0.00  0.00    -0.191 NA
ENDBRANCH  24  32
ENDBRANCH  21  23
ENDBRANCH  18  19
ENDBRANCH   1  18
TORSDOF 9
