REMARK  Name = ZINC37822303
REMARK  5 active torsions:
REMARK  status: ('A' for Active; 'I' for Inactive)
REMARK    1  A    between atoms: C_6  and  C_7
REMARK    2  A    between atoms: C_7  and  N_8
REMARK    3  A    between atoms: N_8  and  C_9
REMARK    4  A    between atoms: C_9  and  C_10
REMARK    5  A    between atoms: C_13  and  C_15
REMARK                            x       y       z     vdW  Elec       q    Type
REMARK                         _______ _______ _______ _____ _____    ______ ____
ROOT
ATOM      1  N   UNL     1      -2.061  -1.122  -1.224  0.00  0.00    -0.288 N 
ATOM      2  C   UNL     1      -2.507  -0.118  -2.005  0.00  0.00    +0.219 C 
ATOM      3  O   UNL     1      -2.490   1.023  -1.594  0.00  0.00    -0.275 OA
ENDROOT
BRANCH   2   4
ATOM      4  C   UNL     1      -3.027  -0.413  -3.388  0.00  0.00    +0.072 C 
ATOM      5  C   UNL     1      -1.853  -0.730  -4.320  0.00  0.00    -0.007 C 
ATOM      6  C   UNL     1      -2.380  -0.950  -5.739  0.00  0.00    -0.082 C 
ATOM      7  N   UNL     1      -3.063   0.263  -6.205  0.00  0.00    +0.379 N 
ATOM      8  C   UNL     1      -4.232   0.533  -5.360  0.00  0.00    -0.082 C 
ATOM      9  C   UNL     1      -3.776   0.810  -3.925  0.00  0.00    -0.007 C 
ATOM     10  H   UNL     1      -2.427   1.045  -6.157  0.00  0.00    -0.086 HD
ATOM     11  H   UNL     1      -3.362   0.134  -7.160  0.00  0.00    -0.086 HD
ENDBRANCH   2   4
BRANCH   1  12
ATOM     12  C   UNL     1      -1.650  -0.850   0.155  0.00  0.00    +0.143 C 
BRANCH  12  18
ATOM     13  C   UNL     1       0.229   0.800   0.048  0.00  0.00    +0.006 A 
ATOM     14  C   UNL     1       1.575   1.111   0.074  0.00  0.00    +0.015 A 
ATOM     15  C   UNL     1       2.513   0.107   0.237  0.00  0.00    +0.018 A 
ATOM     16  C   UNL     1       2.102  -1.207   0.374  0.00  0.00    +0.015 A 
ATOM     17  C   UNL     1       0.755  -1.516   0.347  0.00  0.00    +0.006 A 
ATOM     18  C   UNL     1      -0.181  -0.513   0.184  0.00  0.00    -0.030 A 
ATOM     19 BR   UNL     1       4.356   0.530   0.273  0.00  0.00    -0.050 Br
ENDBRANCH  12  18
ENDBRANCH   1  12
BRANCH   1  20
ATOM     20  C   UNL     1      -1.988  -2.486  -1.755  0.00  0.00    +0.203 C 
BRANCH  20  21
ATOM     21  C   UNL     1      -3.232  -3.243  -1.367  0.00  0.00    +0.228 C 
ATOM     22  O   UNL     1      -4.094  -2.698  -0.712  0.00  0.00    -0.274 OA
ATOM     23  N   UNL     1      -3.385  -4.527  -1.749  0.00  0.00    -0.328 N 
ATOM     24  H   UNL     1      -2.695  -4.963  -2.273  0.00  0.00    +0.145 HD
ATOM     25  H   UNL     1      -4.186  -5.014  -1.499  0.00  0.00    +0.145 HD
ENDBRANCH  20  21
ENDBRANCH   1  20
TORSDOF 5
