REMARK  Name = ZINC50651277
REMARK  9 active torsions:
REMARK  status: ('A' for Active; 'I' for Inactive)
REMARK    1  A    between atoms: C_1  and  C_2
REMARK    2  A    between atoms: C_2  and  C_3
REMARK    3  A    between atoms: C_3  and  C_5
REMARK    4  A    between atoms: C_3  and  N_6
REMARK    5  A    between atoms: N_6  and  C_7
REMARK    6  A    between atoms: N_6  and  S_8
REMARK    7  A    between atoms: S_8  and  C_11
REMARK    8  A    between atoms: C_13  and  N_20
REMARK    9  A    between atoms: C_16  and  N_17
REMARK                            x       y       z     vdW  Elec       q    Type
REMARK                         _______ _______ _______ _____ _____    ______ ____
ROOT
ATOM      1  C   UNL     1      -3.066   2.502  -1.485  0.00  0.00    +0.137 A 
ATOM      2  C   UNL     1      -1.749   2.915  -1.426  0.00  0.00    +0.053 A 
ATOM      3  C   UNL     1      -1.443   4.267  -1.512  0.00  0.00    +0.027 A 
ATOM      4  C   UNL     1      -2.462   5.199  -1.658  0.00  0.00    +0.025 A 
ATOM      5  C   UNL     1      -3.776   4.779  -1.716  0.00  0.00    +0.036 A 
ATOM      6  C   UNL     1      -4.078   3.432  -1.635  0.00  0.00    +0.153 A 
ENDROOT
BRANCH   1   7
ATOM      7  S   UNL     1      -3.455   0.787  -1.377  0.00  0.00    +0.063 S 
ATOM      8  O   UNL     1      -4.254   0.479  -2.511  0.00  0.00    -0.153 OA
ATOM      9  O   UNL     1      -3.900   0.555  -0.047  0.00  0.00    -0.153 OA
BRANCH   7  10
ATOM     10  N   UNL     1      -2.037  -0.050  -1.554  0.00  0.00    -0.177 NA
ATOM     11  C   UNL     1      -1.178  -0.290  -0.393  0.00  0.00    +0.132 C 
BRANCH  10  12
ATOM     12  C   UNL     1      -1.642  -0.550  -2.874  0.00  0.00    +0.076 C 
ATOM     13  C   UNL     1      -0.244  -0.032  -3.217  0.00  0.00    +0.026 C 
BRANCH  12  15
ATOM     14  C   UNL     1      -3.049  -2.599  -2.618  0.00  0.00    +0.005 C 
ATOM     15  C   UNL     1      -1.630  -2.080  -2.857  0.00  0.00    +0.017 C 
ENDBRANCH  12  15
ENDBRANCH  10  12
ENDBRANCH   7  10
ENDBRANCH   1   7
BRANCH   6  16
ATOM     16  N   UNL     1      -5.487   2.985  -1.704  0.00  0.00    +0.058 N 
ATOM     17  O   UNL     1      -6.362   3.780  -1.956  0.00  0.00    -0.126 OA
ATOM     18  O   UNL     1      -5.763   1.824  -1.507  0.00  0.00    -0.126 OA
ENDBRANCH   6  16
BRANCH   3  19
ATOM     19  N   UNL     1      -0.112   4.688  -1.452  0.00  0.00    -0.358 N 
ATOM     20  H   UNL     1       0.599   4.036  -1.351  0.00  0.00    +0.142 HD
ATOM     21  H   UNL     1       0.100   5.633  -1.513  0.00  0.00    +0.142 HD
ENDBRANCH   3  19
TORSDOF 6
