REMARK  Name = ZINC03277073
REMARK  5 active torsions:
REMARK  status: ('A' for Active; 'I' for Inactive)
REMARK    1  A    between atoms: C_3  and  C_25
REMARK    2  A    between atoms: C_5  and  C_18
REMARK    3  A    between atoms: C_25  and  O_27
REMARK    4  A    between atoms: O_27  and  C_28
REMARK    5  A    between atoms: C_28  and  C_29
REMARK                            x       y       z     vdW  Elec       q    Type
REMARK                         _______ _______ _______ _____ _____    ______ ____
ROOT
ATOM      1  C   UNL     1       0.592   6.540  -1.881  0.00  0.00    +0.029 C 
ATOM      2  C   UNL     1       1.569   6.260  -1.039  0.00  0.00    +0.017 C 
ATOM      3  C   UNL     1       2.504   5.085  -1.253  0.00  0.00    +0.153 C 
ATOM      4  C   UNL     1       2.447   4.210   0.001  0.00  0.00    +0.077 C 
ATOM      5  C   UNL     1       2.528   5.057   1.242  0.00  0.00    +0.064 A 
ATOM      6  C   UNL     1       2.207   6.379   1.250  0.00  0.00    +0.113 A 
ATOM      7  N   UNL     1       2.285   7.091   2.426  0.00  0.00    -0.295 N 
ATOM      8  H   UNL     1       2.038   8.060   2.437  0.00  0.00    +0.172 HD
ATOM      9  C   UNL     1       2.693   6.493   3.560  0.00  0.00    +0.328 A 
ATOM     10  O   UNL     1       2.759   7.137   4.588  0.00  0.00    -0.247 OA
ATOM     11  N   UNL     1       3.028   5.190   3.569  0.00  0.00    -0.275 N 
ATOM     12  H   UNL     1       3.335   4.763   4.420  0.00  0.00    +0.173 HD
ATOM     13  C   UNL     1       2.953   4.455   2.444  0.00  0.00    +0.260 A 
ATOM     14  O   UNL     1       3.252   3.274   2.464  0.00  0.00    -0.267 OA
ATOM     15  N   UNL     1       1.804   7.030   0.107  0.00  0.00    -0.304 N 
ATOM     16  H   UNL     1       1.687   7.993   0.095  0.00  0.00    +0.153 HD
ENDROOT
BRANCH   4  17
ATOM     17  C   UNL     1       1.153   3.438   0.010  0.00  0.00    -0.036 A 
ATOM     18  C   UNL     1      -0.054   4.112   0.025  0.00  0.00    +0.004 A 
ATOM     19  C   UNL     1      -1.242   3.405   0.032  0.00  0.00    +0.003 A 
ATOM     20  C   UNL     1      -1.224   2.023   0.019  0.00  0.00    +0.038 A 
ATOM     21  C   UNL     1      -0.016   1.347   0.009  0.00  0.00    +0.124 A 
ATOM     22  C   UNL     1       1.173   2.056   0.002  0.00  0.00    +0.042 A 
ATOM     23  F   UNL     1       0.002  -0.004   0.002  0.00  0.00    -0.205 F 
ENDBRANCH   4  17
BRANCH   3  24
ATOM     24  C   UNL     1       3.910   5.584  -1.465  0.00  0.00    +0.317 C 
ATOM     25  O   UNL     1       4.785   5.272  -0.691  0.00  0.00    -0.250 OA
BRANCH  24  26
ATOM     26  O   UNL     1       4.192   6.374  -2.513  0.00  0.00    -0.459 OA
BRANCH  26  27
ATOM     27  C   UNL     1       5.568   6.816  -2.654  0.00  0.00    +0.267 C 
BRANCH  27  28
ATOM     28  C   UNL     1       5.692   7.688  -3.877  0.00  0.00    -0.010 A 
ATOM     29  C   UNL     1       5.997   7.121  -5.101  0.00  0.00    +0.007 A 
ATOM     30  C   UNL     1       6.107   7.920  -6.224  0.00  0.00    +0.000 A 
ATOM     31  C   UNL     1       5.921   9.286  -6.122  0.00  0.00    +0.000 A 
ATOM     32  C   UNL     1       5.620   9.853  -4.897  0.00  0.00    +0.000 A 
ATOM     33  C   UNL     1       5.506   9.054  -3.775  0.00  0.00    +0.007 A 
ENDBRANCH  27  28
ENDBRANCH  26  27
ENDBRANCH  24  26
ENDBRANCH   3  24
TORSDOF 5
