REMARK  Name = ZINC36357802
REMARK  3 active torsions:
REMARK  status: ('A' for Active; 'I' for Inactive)
REMARK    1  A    between atoms: C_6  and  S_7
REMARK    2  A    between atoms: S_7  and  N_10
REMARK    3  A    between atoms: N_10  and  C_11
REMARK                            x       y       z     vdW  Elec       q    Type
REMARK                         _______ _______ _______ _____ _____    ______ ____
ROOT
ATOM      1  C   UNL     1      -0.017   1.378   0.010  0.00  0.00    +0.030 A 
ATOM      2  C   UNL     1       1.173   2.085   0.002  0.00  0.00    +0.018 A 
ATOM      3  C   UNL     1       2.378   1.404  -0.014  0.00  0.00    +0.030 A 
ATOM      4  C   UNL     1       2.405   0.009  -0.025  0.00  0.00    +0.049 A 
ATOM      5  C   UNL     1       1.202  -0.688  -0.015  0.00  0.00    +0.053 A 
ATOM      6  C   UNL     1       0.002  -0.004   0.002  0.00  0.00    +0.107 A 
ATOM      7  N   UNL     1       3.605  -0.697  -0.052  0.00  0.00    -0.284 N 
ATOM      8  C   UNL     1       4.796  -0.240   0.327  0.00  0.00    +0.227 C 
ATOM      9  O   UNL     1       5.747  -0.988   0.250  0.00  0.00    -0.275 OA
ATOM     10  C   UNL     1       5.026   1.153   0.846  0.00  0.00    +0.170 C 
ATOM     11  S   UNL     1       3.903   2.293  -0.019  0.00  0.00    -0.114 S 
ATOM     12  H   UNL     1       3.570  -1.610  -0.379  0.00  0.00    +0.155 HD
ENDROOT
BRANCH   6  13
ATOM     13  S   UNL     1      -1.515  -0.900   0.014  0.00  0.00    +0.059 S 
ATOM     14  O   UNL     1      -1.226  -2.182   0.555  0.00  0.00    -0.153 OA
ATOM     15  O   UNL     1      -2.492  -0.036   0.581  0.00  0.00    -0.153 OA
BRANCH  13  16
ATOM     16  N   UNL     1      -1.955  -1.140  -1.564  0.00  0.00    -0.187 NA
ATOM     17  H   UNL     1      -2.761  -0.728  -1.911  0.00  0.00    +0.148 HD
BRANCH  16  18
ATOM     18  C   UNL     1      -1.125  -1.975  -2.436  0.00  0.00    +0.077 C 
ATOM     19  C   UNL     1      -0.107  -1.077  -3.167  0.00  0.00    +0.020 C 
ATOM     20  C   UNL     1       1.035  -1.935  -3.639  0.00  0.00    +0.002 C 
ATOM     21  C   UNL     1       0.850  -2.417  -5.091  0.00  0.00    +0.000 C 
ATOM     22  C   UNL     1      -0.595  -2.857  -5.395  0.00  0.00    +0.000 C 
ATOM     23  C   UNL     1      -1.201  -3.657  -4.274  0.00  0.00    +0.002 C 
ATOM     24  C   UNL     1      -1.990  -2.698  -3.358  0.00  0.00    +0.020 C 
ENDBRANCH  16  18
ENDBRANCH  13  16
ENDBRANCH   6  13
TORSDOF 3
