REMARK  Name = ZINC02881128
REMARK  7 active torsions:
REMARK  status: ('A' for Active; 'I' for Inactive)
REMARK    1  A    between atoms: C_1  and  C_2
REMARK    2  A    between atoms: C_4  and  C_27
REMARK    3  A    between atoms: C_6  and  O_9
REMARK    4  A    between atoms: O_9  and  C_10
REMARK    5  A    between atoms: C_10  and  C_11
REMARK    6  A    between atoms: N_13  and  C_14
REMARK    7  A    between atoms: N_22  and  C_25
REMARK                            x       y       z     vdW  Elec       q    Type
REMARK                         _______ _______ _______ _____ _____    ______ ____
ROOT
ATOM      1  C   UNL     1      -3.618   3.118  -0.049  0.00  0.00    +0.255 C 
ATOM      2  O   UNL     1      -3.596   1.906  -0.055  0.00  0.00    -0.272 OA
ATOM      3  N   UNL     1      -2.467   3.813   0.046  0.00  0.00    -0.283 N 
ATOM      4  H   UNL     1      -2.489   4.780   0.117  0.00  0.00    +0.155 HD
ENDROOT
BRANCH   3   5
ATOM      5  C   UNL     1      -1.245   3.141   0.041  0.00  0.00    +0.034 A 
ATOM      6  C   UNL     1      -1.139   1.894   0.644  0.00  0.00    +0.024 A 
ATOM      7  C   UNL     1       0.069   1.220   0.650  0.00  0.00    +0.015 A 
ATOM      8  C   UNL     1       1.179   1.788   0.040  0.00  0.00    +0.050 A 
ATOM      9  C   UNL     1       1.073   3.052  -0.578  0.00  0.00    +0.051 A 
ATOM     10  C   UNL     1      -0.137   3.722  -0.575  0.00  0.00    +0.037 A 
ATOM     11  C   UNL     1       2.417   3.351  -1.117  0.00  0.00    +0.254 C 
ATOM     12  O   UNL     1       2.731   4.356  -1.722  0.00  0.00    -0.270 OA
ATOM     13  N   UNL     1       3.234   2.323  -0.823  0.00  0.00    -0.237 N 
ATOM     14  C   UNL     1       2.580   1.364  -0.144  0.00  0.00    +0.254 C 
ATOM     15  O   UNL     1       3.063   0.322   0.252  0.00  0.00    -0.270 OA
ATOM     16  C   UNL     1       4.650   2.257  -1.195  0.00  0.00    +0.142 C 
ENDBRANCH   3   5
BRANCH   1  17
ATOM     17  C   UNL     1      -4.933   3.848  -0.146  0.00  0.00    +0.325 C 
BRANCH  17  18
ATOM     18  O   UNL     1      -5.999   2.901  -0.236  0.00  0.00    -0.480 OA
BRANCH  18  24
ATOM     19  C   UNL     1     -10.084   4.418   1.967  0.00  0.00    +0.047 C 
ATOM     20  C   UNL     1      -9.282   4.150   0.719  0.00  0.00    -0.010 A 
ATOM     21  C   UNL     1      -9.830   4.410  -0.524  0.00  0.00    +0.050 A 
ATOM     22  C   UNL     1      -9.096   4.166  -1.671  0.00  0.00    -0.010 A 
ATOM     23  C   UNL     1      -7.812   3.660  -1.577  0.00  0.00    +0.088 A 
ATOM     24  C   UNL     1      -7.261   3.398  -0.331  0.00  0.00    +0.158 A 
ATOM     25  C   UNL     1      -8.001   3.638   0.818  0.00  0.00    +0.088 A 
ATOM     26 CL   UNL     1      -7.317   3.305   2.378  0.00  0.00    -0.079 Cl
ATOM     27 CL   UNL     1      -6.891   3.354  -3.016  0.00  0.00    -0.079 Cl
ATOM     28  C   UNL     1      -9.695   4.450  -3.024  0.00  0.00    +0.047 C 
ATOM     29 CL   UNL     1     -11.441   5.045  -0.645  0.00  0.00    -0.083 Cl
ENDBRANCH  18  24
ENDBRANCH  17  18
ENDBRANCH   1  17
TORSDOF 4
