REMARK  Name = ZINC39237426
REMARK  5 active torsions:
REMARK  status: ('A' for Active; 'I' for Inactive)
REMARK    1  A    between atoms: C_3  and  C_6
REMARK    2  A    between atoms: C_9  and  C_34
REMARK    3  A    between atoms: C_15  and  C_19
REMARK    4  A    between atoms: N_21  and  C_22
REMARK    5  A    between atoms: C_22  and  C_23
REMARK                            x       y       z     vdW  Elec       q    Type
REMARK                         _______ _______ _______ _____ _____    ______ ____
ROOT
ATOM      1  C   UNL     1       3.599   0.625  -0.029  0.00  0.00    -0.000 C 
ATOM      2  C   UNL     1       4.112   0.498   1.404  0.00  0.00    +0.021 C 
ATOM      3  C   UNL     1       3.736  -0.872   1.992  0.00  0.00    +0.174 C 
ATOM      4  N   UNL     1       4.236  -1.889   1.076  0.00  0.00    -0.245 NA
ATOM      5  C   UNL     1       3.548  -1.735  -0.236  0.00  0.00    +0.030 C 
ATOM      6  N   UNL     1       4.049  -0.513  -0.853  0.00  0.00    +0.397 N 
ATOM      7  C   UNL     1       3.941  -3.022  -0.972  0.00  0.00    +0.091 C 
ATOM      8  C   UNL     1       4.200  -4.035   0.172  0.00  0.00    +0.111 C 
ATOM      9  N   UNL     1       3.985  -3.275   1.436  0.00  0.00    -0.254 NA
ATOM     10  H   UNL     1       3.678  -0.426  -1.788  0.00  0.00    -0.082 HD
ATOM     11  H   UNL     1       3.042  -3.396   1.774  0.00  0.00    +0.141 HD
ATOM     12  H   UNL     1       5.057  -0.534  -0.885  0.00  0.00    -0.082 HD
ENDROOT
BRANCH   1  15
ATOM     13  C   UNL     1      -0.019   1.302  -0.213  0.00  0.00    +0.041 A 
ATOM     14  C   UNL     1       1.326   1.701  -0.385  0.00  0.00    +0.043 A 
ATOM     15  C   UNL     1       2.092   0.660  -0.014  0.00  0.00    +0.091 A 
ATOM     16  O   UNL     1       1.287  -0.344   0.371  0.00  0.00    -0.469 OA
ATOM     17  C   UNL     1       0.006   0.040   0.253  0.00  0.00    +0.195 A 
ENDBRANCH   1  15
BRANCH   7  18
ATOM     18  C   UNL     1       2.815  -3.493  -1.856  0.00  0.00    +0.217 C 
ATOM     19  O   UNL     1       1.779  -2.864  -1.904  0.00  0.00    -0.275 OA
ATOM     20  N   UNL     1       2.958  -4.612  -2.592  0.00  0.00    -0.310 N 
ATOM     21  H   UNL     1       3.787  -5.115  -2.554  0.00  0.00    +0.149 HD
BRANCH  20  22
ATOM     22  C   UNL     1       1.863  -5.069  -3.451  0.00  0.00    +0.157 C 
BRANCH  22  23
ATOM     23  C   UNL     1       2.276  -6.333  -4.161  0.00  0.00    +0.034 A 
ATOM     24  H   UNL     1       3.288  -5.607  -5.830  0.00  0.00    +0.166 HD
ATOM     25  C   UNL     1       2.001  -7.578  -3.740  0.00  0.00    +0.032 A 
ATOM     26  C   UNL     1       2.583  -8.499  -4.720  0.00  0.00    +0.001 A 
ATOM     27  C   UNL     1       2.631  -9.890  -4.834  0.00  0.00    +0.030 A 
ATOM     28  C   UNL     1       3.275 -10.463  -5.908  0.00  0.00    +0.042 A 
ATOM     29  C   UNL     1       3.874  -9.666  -6.875  0.00  0.00    +0.022 A 
ATOM     30  C   UNL     1       3.836  -8.293  -6.775  0.00  0.00    +0.027 A 
ATOM     31  C   UNL     1       3.190  -7.692  -5.700  0.00  0.00    +0.047 A 
ATOM     32  N   UNL     1       2.980  -6.381  -5.333  0.00  0.00    -0.357 N 
ATOM     33 CL   UNL     1       3.338 -12.192  -6.054  0.00  0.00    -0.084 Cl
ENDBRANCH  22  23
ENDBRANCH  20  22
ENDBRANCH   7  18
BRANCH   3  34
ATOM     34  C   UNL     1       4.384  -1.044   3.368  0.00  0.00    +0.406 C 
ATOM     35  F   UNL     1       3.934  -0.034   4.225  0.00  0.00    -0.169 F 
ATOM     36  F   UNL     1       4.036  -2.292   3.894  0.00  0.00    -0.169 F 
ATOM     37  F   UNL     1       5.775  -0.963   3.241  0.00  0.00    -0.169 F 
ENDBRANCH   3  34
TORSDOF 5
