REMARK  Name = ZINC52390915
REMARK  2 active torsions:
REMARK  status: ('A' for Active; 'I' for Inactive)
REMARK    1  A    between atoms: C_17  and  C_20
REMARK    2  A    between atoms: C_20  and  C_21
REMARK                            x       y       z     vdW  Elec       q    Type
REMARK                         _______ _______ _______ _____ _____    ______ ____
ROOT
ATOM      1  C   UNL     1       0.662   0.319   1.178  0.00  0.00    +0.224 A 
ATOM      2  N   UNL     1       1.757   1.057   1.131  0.00  0.00    -0.220 NA
ATOM      3  C   UNL     1       2.295   1.448  -0.013  0.00  0.00    +0.133 A 
ATOM      4  C   UNL     1       1.678   1.063  -1.235  0.00  0.00    +0.051 A 
ATOM      5  C   UNL     1       2.086   1.374  -2.606  0.00  0.00    -0.025 A 
ATOM      6  C   UNL     1       1.319   0.881  -3.599  0.00  0.00    -0.004 A 
ATOM      7  S   UNL     1       0.025  -0.015  -2.784  0.00  0.00    -0.073 S 
ATOM      8  C   UNL     1       0.516   0.276  -1.105  0.00  0.00    +0.114 A 
ATOM      9  N   UNL     1       0.046  -0.069   0.079  0.00  0.00    -0.228 NA
ATOM     10  C   UNL     1       1.521   1.056  -5.074  0.00  0.00    +0.043 C 
ATOM     11  C   UNL     1       2.526   2.196  -5.294  0.00  0.00    +0.005 C 
ATOM     12  C   UNL     1       3.728   1.974  -4.372  0.00  0.00    +0.005 C 
ATOM     13  C   UNL     1       3.320   2.216  -2.919  0.00  0.00    +0.037 C 
ATOM     14  N   UNL     1       3.442   2.221  -0.020  0.00  0.00    -0.315 N 
ATOM     15  C   UNL     1       4.768   1.594   0.068  0.00  0.00    +0.107 C 
ATOM     16  C   UNL     1       5.540   2.233   1.226  0.00  0.00    +0.023 C 
ATOM     17  C   UNL     1       5.575   3.752   1.034  0.00  0.00    +0.001 C 
ATOM     18  C   UNL     1       4.146   4.301   1.045  0.00  0.00    +0.023 C 
ATOM     19  C   UNL     1       3.358   3.684  -0.121  0.00  0.00    +0.107 C 
ENDROOT
BRANCH  17  20
ATOM     20  C   UNL     1       6.375   4.391   2.171  0.00  0.00    +0.099 C 
BRANCH  20  21
ATOM     21  C   UNL     1       6.513   5.870   1.918  0.00  0.00    +0.211 C 
ATOM     22  O   UNL     1       6.020   6.364   0.926  0.00  0.00    -0.276 OA
ATOM     23  N   UNL     1       7.185   6.644   2.794  0.00  0.00    -0.329 N 
ATOM     24  H   UNL     1       7.579   6.248   3.587  0.00  0.00    +0.145 HD
ATOM     25  H   UNL     1       7.274   7.596   2.631  0.00  0.00    +0.145 HD
ENDBRANCH  20  21
ENDBRANCH  17  20
TORSDOF 2
