REMARK  Name = ZINC02130497
REMARK  6 active torsions:
REMARK  status: ('A' for Active; 'I' for Inactive)
REMARK    1  A    between atoms: C_1  and  C_2
REMARK    2  A    between atoms: C_16  and  C_18
REMARK    3  A    between atoms: C_18  and  C_19
REMARK    4  A    between atoms: C_19  and  C_20
REMARK    5  A    between atoms: N_24  and  C_27
REMARK    6  A    between atoms: C_27  and  C_28
REMARK                            x       y       z     vdW  Elec       q    Type
REMARK                         _______ _______ _______ _____ _____    ______ ____
ROOT
ATOM      1  C   UNL     1       2.885  -0.041  -0.024  0.00  0.00    +0.045 C 
ATOM      2  C   UNL     1       2.485   1.412  -0.012  0.00  0.00    -0.029 A 
ATOM      3  C   UNL     1       3.456   2.393  -0.016  0.00  0.00    +0.005 A 
ATOM      4  C   UNL     1       3.099   3.728  -0.007  0.00  0.00    +0.001 A 
ATOM      5  C   UNL     1       1.761   4.084   0.005  0.00  0.00    +0.004 A 
ATOM      6  C   UNL     1       0.789   3.109   0.009  0.00  0.00    -0.027 A 
ATOM      7  C   UNL     1       1.137   1.761   0.001  0.00  0.00    +0.039 A 
ATOM      8  N   UNL     1      -0.011   0.966   0.007  0.00  0.00    -0.286 N 
ATOM      9  C   UNL     1      -1.139   1.702   0.016  0.00  0.00    +0.211 C 
ATOM     10  O   UNL     1      -2.277   1.283   0.022  0.00  0.00    -0.277 OA
ATOM     11  C   UNL     1      -0.713   3.145   0.021  0.00  0.00    +0.050 C 
ATOM     12  C   UNL     1      -1.249   3.889   1.249  0.00  0.00    +0.088 C 
ATOM     13  C   UNL     1      -2.519   4.625   0.738  0.00  0.00    +0.073 C 
ATOM     14  C   UNL     1      -2.631   4.232  -0.751  0.00  0.00    -0.057 C 
ATOM     15  C   UNL     1      -3.638   3.965   1.511  0.00  0.00    +0.224 C 
ATOM     16  O   UNL     1      -4.814   4.243   1.416  0.00  0.00    -0.275 OA
ATOM     17  N   UNL     1      -3.129   3.026   2.317  0.00  0.00    -0.237 N 
ATOM     18  C   UNL     1      -1.784   2.897   2.256  0.00  0.00    +0.225 C 
ATOM     19  O   UNL     1      -1.112   2.117   2.897  0.00  0.00    -0.275 OA
ATOM     20  H   UNL     1       0.002  -0.004   0.002  0.00  0.00    +0.155 HD
ATOM     21  N   UNL     1      -1.265   3.854  -1.120  0.00  0.00    +0.394 N 
ATOM     22  H   UNL     1      -1.276   3.244  -1.946  0.00  0.00    -0.083 HD
ATOM     23  H   UNL     1      -0.707   4.692  -1.321  0.00  0.00    -0.083 HD
ENDROOT
BRANCH  14  24
ATOM     24  C   UNL     1      -3.128   5.418  -1.579  0.00  0.00    -0.004 C 
BRANCH  24  25
ATOM     25  C   UNL     1      -3.351   4.973  -3.026  0.00  0.00    +0.123 C 
BRANCH  25  26
ATOM     26  C   UNL     1      -3.841   6.142  -3.841  0.00  0.00    +0.356 C 
ATOM     27  O   UNL     1      -3.996   7.220  -3.319  0.00  0.00    -0.246 OA
ATOM     28  O   UNL     1      -4.104   5.985  -5.148  0.00  0.00    -0.246 OA
ENDBRANCH  25  26
ENDBRANCH  24  25
ENDBRANCH  14  24
BRANCH  17  29
ATOM     29  C   UNL     1      -3.960   2.204   3.200  0.00  0.00    +0.151 C 
BRANCH  29  30
ATOM     30  C   UNL     1      -4.390   0.958   2.470  0.00  0.00    -0.030 A 
ATOM     31  C   UNL     1      -5.569   0.953   1.747  0.00  0.00    +0.005 A 
ATOM     32  C   UNL     1      -5.961  -0.188   1.073  0.00  0.00    +0.000 A 
ATOM     33  C   UNL     1      -5.180  -1.328   1.131  0.00  0.00    +0.000 A 
ATOM     34  C   UNL     1      -4.005  -1.324   1.857  0.00  0.00    +0.000 A 
ATOM     35  C   UNL     1      -3.610  -0.181   2.527  0.00  0.00    +0.005 A 
ENDBRANCH  29  30
ENDBRANCH  17  29
TORSDOF 5
