REMARK  Name = ZINC57346334
REMARK  3 active torsions:
REMARK  status: ('A' for Active; 'I' for Inactive)
REMARK    1  A    between atoms: C_1  and  C_2
REMARK    2  A    between atoms: N_13  and  C_14
REMARK    3  A    between atoms: C_14  and  C_15
REMARK                            x       y       z     vdW  Elec       q    Type
REMARK                         _______ _______ _______ _____ _____    ______ ____
ROOT
ATOM      1  C   UNL     1      -0.018   1.503   0.010  0.00  0.00    +0.066 C 
ATOM      2  C   UNL     1       0.002  -0.004   0.002  0.00  0.00    +0.045 A 
ATOM      3  C   UNL     1      -1.167  -0.690   0.004  0.00  0.00    +0.071 A 
ATOM      4  C   UNL     1      -1.124  -2.109  -0.004  0.00  0.00    +0.166 A 
ATOM      5  N   UNL     1      -2.052  -3.032  -0.004  0.00  0.00    -0.151 NA
ATOM      6  N   UNL     1      -1.416  -4.282  -0.014  0.00  0.00    -0.226 N 
ATOM      7  H   UNL     1      -1.854  -5.147  -0.017  0.00  0.00    +0.194 HD
ATOM      8  C   UNL     1      -0.084  -4.063  -0.020  0.00  0.00    +0.351 A 
ATOM      9  O   UNL     1       0.783  -4.918  -0.029  0.00  0.00    -0.245 OA
ATOM     10  N   UNL     1       0.115  -2.732  -0.013  0.00  0.00    -0.215 N 
ATOM     11  C   UNL     1       1.250  -1.960  -0.014  0.00  0.00    +0.206 A 
ATOM     12  N   UNL     1       1.174  -0.650  -0.013  0.00  0.00    -0.221 NA
ATOM     13  N   UNL     1       2.481  -2.566  -0.023  0.00  0.00    -0.314 N 
ATOM     14  H   UNL     1       2.545  -3.534  -0.029  0.00  0.00    +0.149 HD
ENDROOT
BRANCH  13  15
ATOM     15  C   UNL     1       3.699  -1.752  -0.024  0.00  0.00    +0.108 C 
BRANCH  15  16
ATOM     16  C   UNL     1       4.924  -2.667  -0.034  0.00  0.00    +0.006 C 
ATOM     17  C   UNL     1       5.856  -2.613   1.178  0.00  0.00    +0.005 C 
ATOM     18  C   UNL     1       6.299  -2.006  -0.155  0.00  0.00    +0.005 C 
ENDBRANCH  15  16
ENDBRANCH  13  15
TORSDOF 2
