REMARK  Name = ZINC41082569
REMARK  13 active torsions:
REMARK  status: ('A' for Active; 'I' for Inactive)
REMARK    1  A    between atoms: C_1  and  C_2
REMARK    2  A    between atoms: C_2  and  O_3
REMARK    3  A    between atoms: O_3  and  C_4
REMARK    4  A    between atoms: C_6  and  C_23
REMARK    5  A    between atoms: C_9  and  O_10
REMARK    6  A    between atoms: O_10  and  C_11
REMARK    7  A    between atoms: C_11  and  C_12
REMARK    8  A    between atoms: C_12  and  C_13
REMARK    9  A    between atoms: C_13  and  O_14
REMARK   10  A    between atoms: O_14  and  C_15
REMARK   11  A    between atoms: C_20  and  O_21
REMARK   12  A    between atoms: O_21  and  C_22
REMARK   13  A    between atoms: C_33  and  C_35
REMARK                            x       y       z     vdW  Elec       q    Type
REMARK                         _______ _______ _______ _____ _____    ______ ____
ROOT
ATOM      1  C   UNL     1       0.841  -1.875  -1.435  0.00  0.00    +0.162 A 
ATOM      2  C   UNL     1       0.349  -2.697  -0.442  0.00  0.00    +0.057 A 
ATOM      3  C   UNL     1       0.303  -4.084  -0.644  0.00  0.00    -0.021 A 
ATOM      4  C   UNL     1       0.758  -4.626  -1.854  0.00  0.00    +0.012 A 
ATOM      5  C   UNL     1       1.248  -3.797  -2.838  0.00  0.00    +0.050 A 
ATOM      6  C   UNL     1       1.287  -2.423  -2.638  0.00  0.00    +0.162 A 
ENDROOT
BRANCH   3   7
ATOM      7  C   UNL     1      -0.217  -4.963   0.406  0.00  0.00    +0.025 C 
ATOM      8  C   UNL     1       0.299  -6.229   0.562  0.00  0.00    +0.084 C 
ATOM      9  C   UNL     1       1.509  -6.692  -0.185  0.00  0.00    +0.176 C 
ATOM     10  N   UNL     1       2.482  -5.899  -0.548  0.00  0.00    -0.280 NA
ATOM     11  N   UNL     1       1.489  -8.054  -0.451  0.00  0.00    -0.142 N 
ATOM     12  C   UNL     1       0.733  -8.917   0.303  0.00  0.00    +0.168 C 
ATOM     13  N   UNL     1      -0.112  -8.529   1.256  0.00  0.00    -0.156 NA
ATOM     14  C   UNL     1      -0.306  -7.220   1.486  0.00  0.00    +0.273 C 
ATOM     15  O   UNL     1      -0.973  -6.849   2.439  0.00  0.00    -0.268 OA
ATOM     16  C   UNL     1       1.033 -10.209  -0.151  0.00  0.00    +0.091 C 
ATOM     17  C   UNL     1       1.896 -10.108  -1.185  0.00  0.00    +0.134 C 
ATOM     18  O   UNL     1       2.158  -8.812  -1.421  0.00  0.00    -0.375 OA
ATOM     19  C   UNL     1       2.475 -11.268  -1.954  0.00  0.00    +0.089 C 
ATOM     20  H   UNL     1       2.485  -4.972  -0.262  0.00  0.00    +0.188 HD
ENDBRANCH   3   7
BRANCH   1  21
ATOM     21  O   UNL     1       0.886  -0.529  -1.243  0.00  0.00    -0.489 OA
BRANCH  21  23
ATOM     22  C   UNL     1       0.541   1.488   0.043  0.00  0.00    +0.048 C 
ATOM     23  C   UNL     1       0.413  -0.037   0.012  0.00  0.00    +0.226 C 
ENDBRANCH  21  23
ENDBRANCH   1  21
BRANCH   6  24
ATOM     24  O   UNL     1       1.766  -1.611  -3.615  0.00  0.00    -0.488 OA
BRANCH  24  25
ATOM     25  C   UNL     1       2.206  -2.237  -4.822  0.00  0.00    +0.232 C 
BRANCH  25  26
ATOM     26  C   UNL     1       2.707  -1.170  -5.797  0.00  0.00    +0.082 C 
BRANCH  26  27
ATOM     27  C   UNL     1       3.179  -1.840  -7.089  0.00  0.00    +0.232 C 
BRANCH  27  28
ATOM     28  O   UNL     1       3.647  -0.844  -7.999  0.00  0.00    -0.488 OA
BRANCH  28  29
ATOM     29  C   UNL     1       4.105  -1.275  -9.205  0.00  0.00    +0.162 A 
ATOM     30  C   UNL     1       4.098  -2.627  -9.507  0.00  0.00    +0.049 A 
ATOM     31  C   UNL     1       4.563  -3.064 -10.733  0.00  0.00    +0.004 A 
ATOM     32  C   UNL     1       5.037  -2.155 -11.660  0.00  0.00    +0.004 A 
ATOM     33  C   UNL     1       5.047  -0.804 -11.365  0.00  0.00    +0.049 A 
ATOM     34  C   UNL     1       4.576  -0.359 -10.140  0.00  0.00    +0.161 A 
BRANCH  34  35
ATOM     35  O   UNL     1       4.580   0.970  -9.851  0.00  0.00    -0.491 OA
ATOM     36  C   UNL     1       5.078   1.852 -10.859  0.00  0.00    +0.277 C 
ENDBRANCH  34  35
ENDBRANCH  28  29
ENDBRANCH  27  28
ENDBRANCH  26  27
ENDBRANCH  25  26
ENDBRANCH  24  25
ENDBRANCH   6  24
TORSDOF 10
