REMARK  Name = ZINC61640117
REMARK  5 active torsions:
REMARK  status: ('A' for Active; 'I' for Inactive)
REMARK    1  A    between atoms: C_4  and  S_7
REMARK    2  A    between atoms: S_7  and  C_8
REMARK    3  A    between atoms: C_8  and  C_9
REMARK    4  A    between atoms: C_13  and  N_15
REMARK    5  A    between atoms: N_15  and  N_16
REMARK                            x       y       z     vdW  Elec       q    Type
REMARK                         _______ _______ _______ _____ _____    ______ ____
ROOT
ATOM      1  C   UNL     1       4.560  -3.451  -0.061  0.00  0.00    +0.072 A 
ATOM      2  C   UNL     1       5.107  -3.835  -1.270  0.00  0.00    +0.063 A 
ATOM      3  C   UNL     1       6.240  -4.640  -1.279  0.00  0.00    +0.025 A 
ATOM      4  C   UNL     1       6.782  -5.030  -0.067  0.00  0.00    +0.046 A 
ATOM      5  C   UNL     1       6.178  -4.606   1.112  0.00  0.00    +0.132 A 
ATOM      6  N   UNL     1       5.102  -3.834   1.079  0.00  0.00    -0.234 NA
ATOM      7 CL   UNL     1       4.387  -3.317  -2.763  0.00  0.00    -0.082 Cl
ENDROOT
BRANCH   5   8
ATOM      8  N   UNL     1       6.712  -4.991   2.337  0.00  0.00    -0.268 N 
ATOM      9  H   UNL     1       7.502  -5.553   2.366  0.00  0.00    +0.167 HD
BRANCH   8  10
ATOM     10  N   UNL     1       6.125  -4.578   3.498  0.00  0.00    -0.255 NA
ATOM     11  H   UNL     1       5.152  -4.845   3.527  0.00  0.00    +0.140 HD
ATOM     12  H   UNL     1       6.621  -4.935   4.301  0.00  0.00    +0.140 HD
ENDBRANCH   8  10
ENDBRANCH   5   8
BRANCH   1  13
ATOM     13  C   UNL     1       3.332  -2.578  -0.044  0.00  0.00    +0.134 C 
BRANCH  13  14
ATOM     14  S   UNL     1       3.830  -0.833  -0.040  0.00  0.00    -0.080 S 
BRANCH  14  18
ATOM     15  C   UNL     1      -0.017   1.382   0.010  0.00  0.00    +0.039 A 
ATOM     16  C   UNL     1       1.192   2.061   0.002  0.00  0.00    +0.115 A 
ATOM     17  N   UNL     1       2.320   1.371  -0.013  0.00  0.00    -0.230 NA
ATOM     18  C   UNL     1       2.303   0.046  -0.020  0.00  0.00    +0.189 A 
ATOM     19  N   UNL     1       1.165  -0.634  -0.013  0.00  0.00    -0.230 NA
ATOM     20  C   UNL     1       0.002  -0.004   0.002  0.00  0.00    +0.115 A 
ENDBRANCH  14  18
ENDBRANCH  13  14
ENDBRANCH   1  13
TORSDOF 5
