REMARK  Name = ZINC67239345
REMARK  8 active torsions:
REMARK  status: ('A' for Active; 'I' for Inactive)
REMARK    1  A    between atoms: C_1  and  C_2
REMARK    2  A    between atoms: C_2  and  C_3
REMARK    3  A    between atoms: C_3  and  S_4
REMARK    4  A    between atoms: S_4  and  N_7
REMARK    5  A    between atoms: C_12  and  C_14
REMARK    6  A    between atoms: N_16  and  C_17
REMARK    7  A    between atoms: C_20  and  C_23
REMARK    8  A    between atoms: C_23  and  N_24
REMARK                            x       y       z     vdW  Elec       q    Type
REMARK                         _______ _______ _______ _____ _____    ______ ____
ROOT
ATOM      1  C   UNL     1      -2.920  -2.370  -2.373  0.00  0.00    +0.236 C 
ATOM      2  O   UNL     1      -2.432  -1.261  -2.311  0.00  0.00    -0.274 OA
ATOM      3  N   UNL     1      -2.709  -3.140  -3.459  0.00  0.00    -0.284 N 
ATOM      4  H   UNL     1      -3.156  -3.997  -3.540  0.00  0.00    +0.155 HD
ENDROOT
BRANCH   1  10
ATOM      5  N   UNL     1      -3.014  -2.769   0.025  0.00  0.00    -0.169 NA
ATOM      6  C   UNL     1      -3.702  -3.073   1.286  0.00  0.00    +0.110 C 
ATOM      7  C   UNL     1      -4.986  -2.241   1.361  0.00  0.00    +0.017 C 
ATOM      8  C   UNL     1      -5.828  -2.496   0.108  0.00  0.00    +0.003 C 
ATOM      9  C   UNL     1      -5.043  -2.063  -1.132  0.00  0.00    +0.030 C 
ATOM     10  C   UNL     1      -3.761  -2.888  -1.235  0.00  0.00    +0.165 C 
BRANCH   5  11
ATOM     11  S   UNL     1      -1.427  -2.294   0.022  0.00  0.00    +0.032 S 
ATOM     12  O   UNL     1      -0.920  -2.732  -1.231  0.00  0.00    -0.158 OA
ATOM     13  O   UNL     1      -0.894  -2.803   1.237  0.00  0.00    -0.158 OA
BRANCH  11  14
ATOM     14  C   UNL     1      -1.483  -0.482   0.075  0.00  0.00    +0.185 C 
BRANCH  14  16
ATOM     15  C   UNL     1      -0.103   1.601   0.120  0.00  0.00    +0.005 C 
ATOM     16  C   UNL     1      -0.057   0.072   0.076  0.00  0.00    +0.021 C 
ENDBRANCH  14  16
ENDBRANCH  11  14
ENDBRANCH   5  11
ENDBRANCH   1  10
BRANCH   3  17
ATOM     17  C   UNL     1      -1.847  -2.702  -4.470  0.00  0.00    +0.033 A 
ATOM     18  C   UNL     1      -1.058  -3.616  -5.157  0.00  0.00    +0.023 A 
ATOM     19  C   UNL     1      -0.208  -3.181  -6.154  0.00  0.00    +0.007 A 
ATOM     20  C   UNL     1      -0.140  -1.836  -6.469  0.00  0.00    -0.030 A 
ATOM     21  C   UNL     1      -0.923  -0.923  -5.786  0.00  0.00    +0.007 A 
ATOM     22  C   UNL     1      -1.780  -1.353  -4.792  0.00  0.00    +0.023 A 
BRANCH  20  23
ATOM     23  C   UNL     1       0.789  -1.365  -7.557  0.00  0.00    +0.141 C 
BRANCH  23  24
ATOM     24  N   UNL     1       0.084  -1.379  -8.841  0.00  0.00    -0.295 N 
ATOM     25  C   UNL     1       0.722  -0.995  -9.965  0.00  0.00    +0.297 C 
ATOM     26  O   UNL     1       1.882  -0.635  -9.912  0.00  0.00    -0.253 OA
ATOM     27  N   UNL     1       0.073  -1.008 -11.146  0.00  0.00    -0.313 N 
ATOM     28  H   UNL     1      -0.842  -1.666  -8.883  0.00  0.00    +0.151 HD
ATOM     29  H   UNL     1      -0.853  -1.295 -11.188  0.00  0.00    +0.146 HD
ATOM     30  H   UNL     1       0.532  -0.731 -11.955  0.00  0.00    +0.146 HD
ENDBRANCH  23  24
ENDBRANCH  20  23
ENDBRANCH   3  17
TORSDOF 7
