REMARK  Name = ZINC06808069
REMARK  8 active torsions:
REMARK  status: ('A' for Active; 'I' for Inactive)
REMARK    1  A    between atoms: C_1  and  C_2
REMARK    2  A    between atoms: C_2  and  C_3
REMARK    3  A    between atoms: C_3  and  C_29
REMARK    4  A    between atoms: C_13  and  C_27
REMARK    5  A    between atoms: C_14  and  C_16
REMARK    6  A    between atoms: N_18  and  C_19
REMARK    7  A    between atoms: C_20  and  C_26
REMARK    8  A    between atoms: C_24  and  C_25
REMARK                            x       y       z     vdW  Elec       q    Type
REMARK                         _______ _______ _______ _____ _____    ______ ____
ROOT
ATOM      1  C   UNL     1       0.881  -4.296   0.797  0.00  0.00    +0.115 C 
ATOM      2  C   UNL     1       2.015  -3.619   0.013  0.00  0.00    +0.127 C 
ATOM      3  C   UNL     1       1.490  -2.275  -0.459  0.00  0.00    +0.171 C 
ATOM      4  O   UNL     1       1.746  -1.842  -1.563  0.00  0.00    -0.292 OA
ATOM      5  C   UNL     1       0.658  -1.523   0.490  0.00  0.00    +0.070 A 
ATOM      6  C   UNL     1       0.186  -2.166   1.641  0.00  0.00    +0.133 A 
ATOM      7  C   UNL     1      -0.612  -1.461   2.539  0.00  0.00    +0.050 A 
ATOM      8  C   UNL     1      -0.937  -0.143   2.311  0.00  0.00    +0.050 A 
ATOM      9  C   UNL     1      -0.475   0.518   1.176  0.00  0.00    +0.137 A 
ATOM     10  C   UNL     1       0.329  -0.171   0.253  0.00  0.00    +0.038 A 
ATOM     11  C   UNL     1       0.634   0.749  -0.777  0.00  0.00    +0.008 A 
ATOM     12  C   UNL     1       0.027   1.921  -0.454  0.00  0.00    +0.194 A 
ATOM     13  O   UNL     1      -0.633   1.776   0.714  0.00  0.00    -0.450 OA
ATOM     14  C   UNL     1       1.472   0.480  -2.001  0.00  0.00    +0.048 C 
ATOM     15  O   UNL     1       0.498  -3.460   1.889  0.00  0.00    -0.485 OA
ATOM     16  C   UNL     1      -0.320  -4.513  -0.125  0.00  0.00    +0.056 C 
ENDROOT
BRANCH  12  17
ATOM     17  C   UNL     1       0.081   3.155  -1.252  0.00  0.00    +0.284 C 
ATOM     18  O   UNL     1       0.708   3.178  -2.294  0.00  0.00    -0.266 OA
ATOM     19  N   UNL     1      -0.563   4.260  -0.828  0.00  0.00    -0.279 N 
ATOM     20  H   UNL     1      -1.002   4.264   0.037  0.00  0.00    +0.155 HD
BRANCH  19  21
ATOM     21  C   UNL     1      -0.600   5.401  -1.636  0.00  0.00    +0.040 A 
ATOM     22  C   UNL     1       0.568   6.106  -1.897  0.00  0.00    -0.029 A 
ATOM     23  C   UNL     1       0.530   7.229  -2.700  0.00  0.00    +0.005 A 
ATOM     24  C   UNL     1      -0.672   7.659  -3.234  0.00  0.00    +0.001 A 
ATOM     25  C   UNL     1      -1.837   6.962  -2.971  0.00  0.00    +0.005 A 
ATOM     26  C   UNL     1      -1.804   5.835  -2.174  0.00  0.00    -0.029 A 
ATOM     27  C   UNL     1      -3.075   5.077  -1.888  0.00  0.00    +0.045 C 
ATOM     28  C   UNL     1       1.877   5.643  -1.311  0.00  0.00    +0.045 C 
ENDBRANCH  19  21
ENDBRANCH  12  17
BRANCH   1  30
ATOM     29  C   UNL     1       0.200  -6.374   2.006  0.00  0.00    +0.008 C 
ATOM     30  C   UNL     1       1.365  -5.645   1.333  0.00  0.00    +0.045 C 
ENDBRANCH   1  30
TORSDOF 3
