REMARK  Name = ZINC50202220
REMARK  6 active torsions:
REMARK  status: ('A' for Active; 'I' for Inactive)
REMARK    1  A    between atoms: C_1  and  C_2
REMARK    2  A    between atoms: C_2  and  C_3
REMARK    3  A    between atoms: C_2  and  C_4
REMARK    4  A    between atoms: C_2  and  N_17
REMARK    5  A    between atoms: N_6  and  C_7
REMARK    6  A    between atoms: C_12  and  C_13
REMARK                            x       y       z     vdW  Elec       q    Type
REMARK                         _______ _______ _______ _____ _____    ______ ____
ROOT
ATOM      1  C   UNL     1      -1.412  -0.524   0.012  0.00  0.00    +0.205 C 
ATOM      2  O   UNL     1      -1.944  -0.812   1.063  0.00  0.00    -0.277 OA
ATOM      3  N   UNL     1      -2.089  -0.659  -1.146  0.00  0.00    -0.286 N 
ATOM      4  H   UNL     1      -1.694  -0.354  -1.977  0.00  0.00    +0.155 HD
ENDROOT
BRANCH   3   5
ATOM      5  C   UNL     1      -3.356  -1.236  -1.147  0.00  0.00    +0.048 A 
ATOM      6  C   UNL     1      -3.721  -2.122  -0.142  0.00  0.00    +0.025 A 
ATOM      7  C   UNL     1      -4.976  -2.694  -0.145  0.00  0.00    +0.017 A 
ATOM      8  C   UNL     1      -5.883  -2.391  -1.150  0.00  0.00    +0.019 A 
ATOM      9  C   UNL     1      -5.540  -1.515  -2.157  0.00  0.00    +0.032 A 
ATOM     10  C   UNL     1      -4.273  -0.922  -2.163  0.00  0.00    +0.085 A 
ATOM     11 BR   UNL     1      -7.600  -3.185  -1.139  0.00  0.00    -0.050 Br
BRANCH  10  12
ATOM     12  C   UNL     1      -3.902   0.019  -3.231  0.00  0.00    +0.388 C 
ATOM     13  O   UNL     1      -4.732   0.360  -4.062  0.00  0.00    -0.241 OA
ATOM     14  O   UNL     1      -2.762   0.461  -3.288  0.00  0.00    -0.241 OA
ENDBRANCH  10  12
ENDBRANCH   3   5
BRANCH   1  16
ATOM     15  C   UNL     1      -0.001   1.515  -0.005  0.00  0.00    -0.001 C 
ATOM     16  C   UNL     1       0.006  -0.015  -0.000  0.00  0.00    +0.002 C 
ATOM     17  C   UNL     1       0.739  -0.518   1.245  0.00  0.00    -0.001 C 
BRANCH  16  18
ATOM     18  N   UNL     1       0.692  -0.505  -1.204  0.00  0.00    +0.387 N 
ATOM     19  H   UNL     1       1.642  -0.165  -1.212  0.00  0.00    -0.089 HD
ATOM     20  H   UNL     1       0.697  -1.514  -1.200  0.00  0.00    -0.089 HD
ATOM     21  H   UNL     1       0.209  -0.173  -2.025  0.00  0.00    -0.089 HD
ENDBRANCH  16  18
ENDBRANCH   1  16
TORSDOF 4
