REMARK  Name = ZINC00438450
REMARK  4 active torsions:
REMARK  status: ('A' for Active; 'I' for Inactive)
REMARK    1  A    between atoms: C_4  and  C_7
REMARK    2  A    between atoms: C_10  and  C_12
REMARK    3  A    between atoms: N_14  and  N_15
REMARK    4  A    between atoms: C_16  and  C_17
REMARK                            x       y       z     vdW  Elec       q    Type
REMARK                         _______ _______ _______ _____ _____    ______ ____
ROOT
ATOM      1  C   UNL     1      -0.834   3.082  -1.435  0.00  0.00    +0.236 C 
ATOM      2  O   UNL     1      -0.581   4.071  -0.780  0.00  0.00    -0.274 OA
ATOM      3  N   UNL     1      -0.833   3.146  -2.781  0.00  0.00    -0.207 N 
ATOM      4  H   UNL     1      -1.035   2.355  -3.305  0.00  0.00    +0.177 HD
ENDROOT
BRANCH   1   7
ATOM      5  C   UNL     1      -1.136   1.773   0.788  0.00  0.00    +0.032 C 
ATOM      6  C   UNL     1      -0.013   1.086   0.008  0.00  0.00    +0.022 C 
ATOM      7  C   UNL     1      -1.150   1.781  -0.743  0.00  0.00    +0.085 C 
BRANCH   5  11
ATOM      8  C   UNL     1      -3.973  -0.727   2.775  0.00  0.00    +0.000 A 
ATOM      9  C   UNL     1      -3.981   0.638   2.994  0.00  0.00    +0.000 A 
ATOM     10  C   UNL     1      -3.063   1.447   2.351  0.00  0.00    +0.004 A 
ATOM     11  C   UNL     1      -2.136   0.891   1.489  0.00  0.00    -0.044 A 
ATOM     12  C   UNL     1      -2.131  -0.473   1.266  0.00  0.00    +0.004 A 
ATOM     13  C   UNL     1      -3.047  -1.283   1.912  0.00  0.00    +0.000 A 
ENDBRANCH   5  11
ENDBRANCH   1   7
BRANCH   3  14
ATOM     14  N   UNL     1      -0.539   4.355  -3.425  0.00  0.00    -0.188 NA
ATOM     15  C   UNL     1      -0.538   4.417  -4.721  0.00  0.00    +0.141 C 
BRANCH  15  16
ATOM     16  C   UNL     1      -0.229   5.689  -5.398  0.00  0.00    +0.031 A 
ATOM     17  C   UNL     1       0.058   6.833  -4.648  0.00  0.00    +0.051 A 
ATOM     18  C   UNL     1       0.351   8.020  -5.289  0.00  0.00    +0.021 A 
ATOM     19  C   UNL     1       0.351   8.082  -6.671  0.00  0.00    +0.003 A 
ATOM     20  C   UNL     1       0.064   6.955  -7.421  0.00  0.00    +0.021 A 
ATOM     21  C   UNL     1      -0.226   5.760  -6.795  0.00  0.00    +0.051 A 
ATOM     22 CL   UNL     1      -0.588   4.348  -7.738  0.00  0.00    -0.083 Cl
ATOM     23 CL   UNL     1       0.052   6.760  -2.913  0.00  0.00    -0.083 Cl
ENDBRANCH  15  16
ENDBRANCH   3  14
TORSDOF 4
