REMARK  Name = ZINC08797600
REMARK  9 active torsions:
REMARK  status: ('A' for Active; 'I' for Inactive)
REMARK    1  A    between atoms: C_1  and  C_2
REMARK    2  A    between atoms: C_2  and  C_3
REMARK    3  A    between atoms: C_2  and  C_4
REMARK    4  A    between atoms: C_2  and  C_5
REMARK    5  A    between atoms: N_16  and  C_19
REMARK    6  A    between atoms: C_19  and  C_20
REMARK    7  A    between atoms: N_22  and  C_23
REMARK    8  A    between atoms: C_24  and  C_34
REMARK    9  A    between atoms: C_26  and  C_28
REMARK                            x       y       z     vdW  Elec       q    Type
REMARK                         _______ _______ _______ _____ _____    ______ ____
ROOT
ATOM      1  C   UNL     1       2.837   0.958  -1.440  0.00  0.00    +0.237 C 
ATOM      2  O   UNL     1       2.142   1.348  -2.353  0.00  0.00    -0.273 OA
ATOM      3  N   UNL     1       3.990   0.309  -1.700  0.00  0.00    -0.278 N 
ATOM      4  H   UNL     1       4.546  -0.003  -0.969  0.00  0.00    +0.155 HD
ENDROOT
BRANCH   3   5
ATOM      5  C   UNL     1       4.380   0.089  -3.010  0.00  0.00    +0.084 A 
ATOM      6  C   UNL     1       5.526  -0.548  -3.479  0.00  0.00    +0.066 A 
ATOM      7  C   UNL     1       5.693  -0.648  -4.861  0.00  0.00    +0.031 A 
ATOM      8  C   UNL     1       4.729  -0.106  -5.654  0.00  0.00    +0.022 A 
ATOM      9  S   UNL     1       3.567   0.547  -4.471  0.00  0.00    -0.073 S 
BRANCH   8  10
ATOM     10  C   UNL     1       4.662  -0.070  -7.130  0.00  0.00    -0.011 A 
ATOM     11  C   UNL     1       5.684  -0.638  -7.893  0.00  0.00    +0.009 A 
ATOM     12  C   UNL     1       5.613  -0.605  -9.270  0.00  0.00    +0.001 A 
ATOM     13  C   UNL     1       4.537   0.000  -9.896  0.00  0.00    +0.000 A 
ATOM     14  C   UNL     1       3.524   0.570  -9.146  0.00  0.00    +0.001 A 
ATOM     15  C   UNL     1       3.580   0.539  -7.768  0.00  0.00    +0.009 A 
ENDBRANCH   8  10
BRANCH   6  16
ATOM     16  C   UNL     1       6.522  -1.099  -2.553  0.00  0.00    +0.244 C 
ATOM     17  O   UNL     1       6.354  -1.003  -1.351  0.00  0.00    -0.270 OA
ATOM     18  N   UNL     1       7.622  -1.712  -3.032  0.00  0.00    -0.325 N 
ATOM     19  H   UNL     1       7.756  -1.789  -3.990  0.00  0.00    +0.145 HD
ATOM     20  H   UNL     1       8.280  -2.076  -2.420  0.00  0.00    +0.145 HD
ENDBRANCH   6  16
ENDBRANCH   3   5
BRANCH   1  21
ATOM     21  C   UNL     1       2.412   1.197  -0.014  0.00  0.00    +0.222 C 
BRANCH  21  32
ATOM     22  C   UNL     1      -5.291   0.496   0.412  0.00  0.00    -0.000 C 
ATOM     23  C   UNL     1      -4.336  -0.351  -0.432  0.00  0.00    +0.009 C 
ATOM     24  C   UNL     1      -2.894  -0.118   0.021  0.00  0.00    +0.037 C 
ATOM     25  C   UNL     1      -2.616   1.383   0.024  0.00  0.00    -0.023 A 
ATOM     26  C   UNL     1      -3.631   2.272   0.032  0.00  0.00    -0.004 A 
ATOM     27  S   UNL     1      -2.849   3.863   0.044  0.00  0.00    -0.073 S 
ATOM     28  C   UNL     1      -1.157   3.327   0.028  0.00  0.00    +0.116 A 
ATOM     29  C   UNL     1      -1.259   1.927   0.018  0.00  0.00    +0.076 A 
ATOM     30  C   UNL     1      -0.015   1.215   0.009  0.00  0.00    +0.263 A 
ATOM     31  O   UNL     1       0.002  -0.004   0.002  0.00  0.00    -0.267 OA
ATOM     32  N   UNL     1       1.135   1.915   0.002  0.00  0.00    -0.290 N 
ATOM     33  C   UNL     1       1.136   3.273   0.008  0.00  0.00    +0.203 A 
ATOM     34  N   UNL     1       0.018   3.949   0.020  0.00  0.00    -0.230 NA
ATOM     35  C   UNL     1      -5.100   1.973   0.039  0.00  0.00    +0.046 C 
BRANCH  22  37
ATOM     36  C   UNL     1      -7.039   0.271  -1.359  0.00  0.00    +0.011 C 
ATOM     37  C   UNL     1      -6.736   0.079   0.129  0.00  0.00    -0.035 C 
ATOM     38  C   UNL     1      -6.923  -1.393   0.501  0.00  0.00    +0.011 C 
ATOM     39  C   UNL     1      -7.689   0.941   0.959  0.00  0.00    +0.011 C 
ENDBRANCH  22  37
ENDBRANCH  21  32
ENDBRANCH   1  21
TORSDOF 6
