REMARK  Name = ZINC05362711
REMARK  10 active torsions:
REMARK  status: ('A' for Active; 'I' for Inactive)
REMARK    1  A    between atoms: C_1  and  C_2
REMARK    2  A    between atoms: C_5  and  O_9
REMARK    3  A    between atoms: C_6  and  C_8
REMARK    4  A    between atoms: O_9  and  C_10
REMARK    5  A    between atoms: C_10  and  C_11
REMARK    6  A    between atoms: N_13  and  N_14
REMARK    7  A    between atoms: C_15  and  C_16
REMARK    8  A    between atoms: C_15  and  C_17
REMARK    9  A    between atoms: C_19  and  O_24
REMARK   10  A    between atoms: C_22  and  O_23
REMARK                            x       y       z     vdW  Elec       q    Type
REMARK                         _______ _______ _______ _____ _____    ______ ____
ROOT
ATOM      1  C   UNL     1       0.079  -6.266  -1.108  0.00  0.00    +0.270 C 
ATOM      2  O   UNL     1       0.090  -6.736   0.010  0.00  0.00    -0.270 OA
ATOM      3  N   UNL     1       0.084  -7.081  -2.182  0.00  0.00    -0.204 N 
ATOM      4  H   UNL     1       0.074  -6.705  -3.076  0.00  0.00    +0.177 HD
ENDROOT
BRANCH   3   5
ATOM      5  N   UNL     1       0.103  -8.471  -2.006  0.00  0.00    -0.184 NA
ATOM      6  C   UNL     1       0.107  -9.256  -3.039  0.00  0.00    +0.067 C 
ATOM      7  C   UNL     1       0.093  -8.672  -4.429  0.00  0.00    +0.068 C 
BRANCH   6   8
ATOM      8  C   UNL     1       0.127 -10.718  -2.854  0.00  0.00    +0.042 A 
ATOM      9  C   UNL     1       0.139 -11.565  -3.964  0.00  0.00    +0.058 A 
ATOM     10  C   UNL     1       0.158 -12.937  -3.783  0.00  0.00    +0.118 A 
ATOM     11  C   UNL     1       0.166 -13.471  -2.501  0.00  0.00    +0.049 A 
ATOM     12  C   UNL     1       0.154 -12.639  -1.398  0.00  0.00    +0.049 A 
ATOM     13  C   UNL     1       0.141 -11.264  -1.564  0.00  0.00    +0.126 A 
BRANCH  13  14
ATOM     14  O   UNL     1       0.136 -10.447  -0.478  0.00  0.00    -0.506 OA
ATOM     15  H   UNL     1      -0.749 -10.222  -0.160  0.00  0.00    +0.292 HD
ENDBRANCH  13  14
BRANCH  10  16
ATOM     16  O   UNL     1       0.168 -13.764  -4.862  0.00  0.00    -0.507 OA
ATOM     17  H   UNL     1       1.054 -13.991  -5.176  0.00  0.00    +0.292 HD
ENDBRANCH  10  16
ENDBRANCH   6   8
ENDBRANCH   3   5
BRANCH   1  18
ATOM     18  C   UNL     1       0.058  -4.771  -1.298  0.00  0.00    +0.326 C 
BRANCH  18  19
ATOM     19  O   UNL     1       0.057  -4.129  -0.021  0.00  0.00    -0.482 OA
BRANCH  19  24
ATOM     20  C   UNL     1      -0.018   1.503   0.010  0.00  0.00    +0.044 C 
ATOM     21  C   UNL     1       0.002  -0.004   0.002  0.00  0.00    -0.050 A 
ATOM     22  C   UNL     1       0.006  -0.688  -1.200  0.00  0.00    +0.007 A 
ATOM     23  C   UNL     1       0.024  -2.069  -1.210  0.00  0.00    +0.046 A 
ATOM     24  C   UNL     1       0.039  -2.770  -0.013  0.00  0.00    +0.124 A 
ATOM     25  C   UNL     1       0.036  -2.082   1.191  0.00  0.00    -0.009 A 
ATOM     26  C   UNL     1       0.023  -0.701   1.196  0.00  0.00    +0.010 A 
ATOM     27  C   UNL     1       0.052  -2.841   2.493  0.00  0.00    +0.047 C 
ENDBRANCH  19  24
ENDBRANCH  18  19
ENDBRANCH   1  18
TORSDOF 7
