REMARK  Name = ZINC12346845
REMARK  3 active torsions:
REMARK  status: ('A' for Active; 'I' for Inactive)
REMARK    1  A    between atoms: C_3  and  C_6
REMARK    2  A    between atoms: C_6  and  N_7
REMARK    3  A    between atoms: C_13  and  C_19
REMARK                            x       y       z     vdW  Elec       q    Type
REMARK                         _______ _______ _______ _____ _____    ______ ____
ROOT
ATOM      1  N   UNL     1       0.874   6.092  -3.621  0.00  0.00    -0.285 N 
ATOM      2  C   UNL     1       2.271   6.355  -3.248  0.00  0.00    +0.159 C 
ATOM      3  C   UNL     1       2.356   5.997  -1.781  0.00  0.00    +0.039 C 
ATOM      4  C   UNL     1       1.124   5.586  -1.419  0.00  0.00    +0.058 C 
ATOM      5  C   UNL     1       0.244   5.645  -2.519  0.00  0.00    +0.247 C 
ATOM      6  O   UNL     1      -0.932   5.332  -2.478  0.00  0.00    -0.270 OA
ATOM      7  C   UNL     1       0.918   5.160   0.021  0.00  0.00    +0.148 C 
ATOM      8  N   UNL     1       2.089   5.230   0.910  0.00  0.00    -0.288 N 
ATOM      9  C   UNL     1       3.259   5.663   0.400  0.00  0.00    +0.304 C 
ATOM     10  O   UNL     1       4.231   5.724   1.126  0.00  0.00    -0.252 OA
ATOM     11  N   UNL     1       3.385   6.027  -0.883  0.00  0.00    -0.271 N 
ATOM     12  H   UNL     1       2.020   4.971   1.843  0.00  0.00    +0.151 HD
ATOM     13  H   UNL     1       4.253   6.330  -1.191  0.00  0.00    +0.156 HD
ENDROOT
BRANCH   7  14
ATOM     14  C   UNL     1       0.421   3.738   0.017  0.00  0.00    +0.015 A 
ATOM     15  C   UNL     1      -0.855   3.279   0.027  0.00  0.00    +0.013 A 
ATOM     16  C   UNL     1      -1.077   1.915   0.017  0.00  0.00    +0.008 A 
ATOM     17  C   UNL     1      -0.013   1.076   0.008  0.00  0.00    +0.045 A 
ATOM     18  S   UNL     1       1.359   2.219   0.001  0.00  0.00    -0.099 S 
ENDBRANCH   7  14
BRANCH   1  19
ATOM     19  C   UNL     1       0.277   6.282  -4.946  0.00  0.00    +0.182 C 
BRANCH  19  22
ATOM     20  C   UNL     1      -0.481   9.856  -5.429  0.00  0.00    +0.041 A 
ATOM     21  C   UNL     1       0.409   8.759  -5.490  0.00  0.00    +0.046 A 
ATOM     22  C   UNL     1      -0.269   7.682  -5.055  0.00  0.00    +0.122 A 
ATOM     23  O   UNL     1      -1.513   8.068  -4.728  0.00  0.00    -0.466 OA
ATOM     24  C   UNL     1      -1.648   9.385  -4.954  0.00  0.00    +0.195 A 
ENDBRANCH  19  22
ENDBRANCH   1  19
TORSDOF 3
