REMARK  Name = ZINC39652751
REMARK  8 active torsions:
REMARK  status: ('A' for Active; 'I' for Inactive)
REMARK    1  A    between atoms: C_1  and  C_2
REMARK    2  A    between atoms: C_2  and  O_3
REMARK    3  A    between atoms: O_3  and  C_4
REMARK    4  A    between atoms: C_9  and  C_10
REMARK    5  A    between atoms: C_10  and  C_11
REMARK    6  A    between atoms: C_11  and  N_12
REMARK    7  A    between atoms: C_13  and  C_15
REMARK    8  A    between atoms: C_26  and  C_28
REMARK                            x       y       z     vdW  Elec       q    Type
REMARK                         _______ _______ _______ _____ _____    ______ ____
ROOT
ATOM      1  C   UNL     1      -7.203   1.180  -2.525  0.00  0.00    +0.100 C 
ATOM      2  C   UNL     1      -6.936   2.424  -1.648  0.00  0.00    +0.121 C 
ATOM      3  N   UNL     1      -6.484   3.464  -2.603  0.00  0.00    -0.297 N 
ATOM      4  C   UNL     1      -7.343   3.268  -3.795  0.00  0.00    +0.115 C 
ATOM      5  C   UNL     1      -7.473   1.738  -3.932  0.00  0.00    -0.004 C 
ATOM      6  C   UNL     1      -8.881   1.367  -4.386  0.00  0.00    -0.010 C 
ATOM      7  C   UNL     1      -9.106   1.883  -5.811  0.00  0.00    -0.082 C 
ATOM      8  N   UNL     1      -8.108   1.292  -6.710  0.00  0.00    +0.379 N 
ATOM      9  C   UNL     1      -6.762   1.730  -6.321  0.00  0.00    -0.082 C 
ATOM     10  C   UNL     1      -6.438   1.207  -4.919  0.00  0.00    -0.010 C 
ATOM     11  C   UNL     1      -5.512   4.381  -2.426  0.00  0.00    +0.260 C 
ATOM     12  O   UNL     1      -5.257   5.172  -3.309  0.00  0.00    -0.271 OA
ATOM     13  H   UNL     1      -8.161   0.286  -6.655  0.00  0.00    -0.086 HD
ATOM     14  H   UNL     1      -8.295   1.585  -7.657  0.00  0.00    -0.086 HD
ENDROOT
BRANCH  11  15
ATOM     15  C   UNL     1      -4.742   4.423  -1.131  0.00  0.00    +0.296 C 
ATOM     16  C   UNL     1      -5.681   4.817   0.017  0.00  0.00    +0.283 C 
ATOM     17  O   UNL     1      -4.916   4.861   1.226  0.00  0.00    -0.484 OA
ATOM     18  C   UNL     1      -3.720   5.508   1.171  0.00  0.00    +0.162 A 
ATOM     19  C   UNL     1      -3.104   5.904   2.349  0.00  0.00    +0.049 A 
ATOM     20  C   UNL     1      -1.889   6.559   2.309  0.00  0.00    +0.004 A 
ATOM     21  C   UNL     1      -1.282   6.823   1.094  0.00  0.00    +0.004 A 
ATOM     22  C   UNL     1      -1.891   6.433  -0.084  0.00  0.00    +0.049 A 
ATOM     23  C   UNL     1      -3.112   5.775  -0.050  0.00  0.00    +0.163 A 
ATOM     24  O   UNL     1      -3.703   5.404  -1.219  0.00  0.00    -0.473 OA
ENDBRANCH  11  15
BRANCH   1  26
ATOM     25  N   UNL     1      -6.144  -1.047  -2.725  0.00  0.00    -0.315 N 
ATOM     26  C   UNL     1      -5.994   0.280  -2.541  0.00  0.00    +0.218 C 
ATOM     27  O   UNL     1      -4.886   0.750  -2.387  0.00  0.00    -0.275 OA
ATOM     28  H   UNL     1      -7.030  -1.422  -2.847  0.00  0.00    +0.149 HD
BRANCH  25  29
ATOM     29  C   UNL     1      -4.969  -1.921  -2.740  0.00  0.00    +0.109 C 
BRANCH  29  30
ATOM     30  C   UNL     1      -5.413  -3.368  -2.965  0.00  0.00    +0.057 C 
BRANCH  30  36
ATOM     31  C   UNL     1      -3.684  -4.753  -1.790  0.00  0.00    +0.124 A 
ATOM     32  C   UNL     1      -2.575  -5.585  -1.808  0.00  0.00    +0.046 A 
ATOM     33  C   UNL     1      -1.987  -5.925  -3.011  0.00  0.00    +0.004 A 
ATOM     34  C   UNL     1      -2.505  -5.436  -4.197  0.00  0.00    +0.000 A 
ATOM     35  C   UNL     1      -3.610  -4.606  -4.181  0.00  0.00    +0.007 A 
ATOM     36  C   UNL     1      -4.205  -4.268  -2.981  0.00  0.00    -0.004 A 
BRANCH  31  37
ATOM     37  O   UNL     1      -4.264  -4.418  -0.607  0.00  0.00    -0.492 OA
BRANCH  37  39
ATOM     38  C   UNL     1      -4.458  -4.469   1.801  0.00  0.00    +0.048 C 
ATOM     39  C   UNL     1      -3.675  -4.953   0.579  0.00  0.00    +0.225 C 
ENDBRANCH  37  39
ENDBRANCH  31  37
ENDBRANCH  30  36
ENDBRANCH  29  30
ENDBRANCH  25  29
ENDBRANCH   1  26
TORSDOF 7
