REMARK  Name = ZINC51086918
REMARK  3 active torsions:
REMARK  status: ('A' for Active; 'I' for Inactive)
REMARK    1  A    between atoms: C_8  and  C_11
REMARK    2  A    between atoms: C_11  and  N_12
REMARK    3  A    between atoms: C_13  and  C_18
REMARK                            x       y       z     vdW  Elec       q    Type
REMARK                         _______ _______ _______ _____ _____    ______ ____
ROOT
ATOM      1  C   UNL     1       3.813  -3.240   0.254  0.00  0.00    +0.170 C 
ENDROOT
BRANCH   1   9
ATOM      2  C   UNL     1      -0.017   1.379   0.010  0.00  0.00    +0.000 A 
ATOM      3  C   UNL     1       1.174   2.082   0.002  0.00  0.00    +0.004 A 
ATOM      4  C   UNL     1       2.379   1.411  -0.009  0.00  0.00    +0.046 A 
ATOM      5  C   UNL     1       2.407   0.019  -0.013  0.00  0.00    +0.124 A 
ATOM      6  C   UNL     1       1.204  -0.676  -0.013  0.00  0.00    -0.002 A 
ATOM      7  C   UNL     1       0.002  -0.004   0.002  0.00  0.00    +0.007 A 
ATOM      8  C   UNL     1       1.545  -2.154  -0.043  0.00  0.00    +0.085 C 
ATOM      9  C   UNL     1       3.035  -2.130  -0.457  0.00  0.00    +0.198 C 
ATOM     10  O   UNL     1       3.469  -0.834  -0.012  0.00  0.00    -0.486 OA
ENDBRANCH   1   9
BRANCH   1  11
ATOM     11  N   UNL     1       5.218  -3.192  -0.157  0.00  0.00    -0.303 N 
ATOM     12  C   UNL     1       5.765  -3.857  -1.227  0.00  0.00    +0.135 A 
ATOM     13  N   UNL     1       7.028  -3.582  -1.287  0.00  0.00    -0.158 NA
ATOM     14  N   UNL     1       7.337  -2.711  -0.233  0.00  0.00    -0.254 N 
ATOM     15  C   UNL     1       6.193  -2.483   0.447  0.00  0.00    +0.176 A 
ATOM     16  S   UNL     1       6.015  -1.483   1.824  0.00  0.00    -0.011 S 
ATOM     17  H   UNL     1       8.209  -2.339  -0.031  0.00  0.00    +0.191 HD
BRANCH  12  18
ATOM     18  C   UNL     1       5.018  -4.759  -2.174  0.00  0.00    +0.057 C 
ATOM     19  C   UNL     1       5.684  -6.079  -2.566  0.00  0.00    +0.012 C 
ATOM     20  C   UNL     1       5.592  -4.938  -3.581  0.00  0.00    +0.012 C 
ENDBRANCH  12  18
ENDBRANCH   1  11
TORSDOF 3
