REMARK  Name = ZINC05993430
REMARK  6 active torsions:
REMARK  status: ('A' for Active; 'I' for Inactive)
REMARK    1  A    between atoms: C_1  and  C_2
REMARK    2  A    between atoms: C_2  and  C_4
REMARK    3  A    between atoms: C_2  and  S_7
REMARK    4  A    between atoms: S_7  and  C_8
REMARK    5  A    between atoms: C_11  and  C_14
REMARK    6  A    between atoms: N_12  and  N_13
REMARK                            x       y       z     vdW  Elec       q    Type
REMARK                         _______ _______ _______ _____ _____    ______ ____
ROOT
ATOM      1  C   UNL     1      -2.114  -0.776   1.419  0.00  0.00    +0.209 A 
ATOM      2  N   UNL     1      -0.937  -1.353   1.482  0.00  0.00    -0.121 NA
ATOM      3  N   UNL     1      -1.081  -2.627   1.581  0.00  0.00    -0.123 NA
ATOM      4  C   UNL     1      -2.346  -2.936   1.579  0.00  0.00    +0.255 A 
ATOM      5  N   UNL     1      -3.050  -1.768   1.475  0.00  0.00    -0.220 N 
ENDROOT
BRANCH   4   6
ATOM      6  C   UNL     1      -2.927  -4.324   1.673  0.00  0.00    +0.454 C 
ATOM      7  F   UNL     1      -1.938  -5.215   2.103  0.00  0.00    -0.163 F 
ATOM      8  F   UNL     1      -3.986  -4.325   2.587  0.00  0.00    -0.163 F 
ATOM      9  F   UNL     1      -3.396  -4.719   0.415  0.00  0.00    -0.163 F 
ENDBRANCH   4   6
BRANCH   5  10
ATOM     10  N   UNL     1      -4.408  -1.624   1.437  0.00  0.00    -0.295 N 
ATOM     11  H   UNL     1      -5.057  -2.511   1.491  0.00  0.00    +0.163 HD
ATOM     12  H   UNL     1      -4.853  -0.622   1.351  0.00  0.00    +0.163 HD
ENDBRANCH   5  10
BRANCH   1  13
ATOM     13  S   UNL     1      -2.427   0.953   1.280  0.00  0.00    -0.072 S 
BRANCH  13  15
ATOM     14  C   UNL     1      -0.013   1.086   0.008  0.00  0.00    +0.029 C 
ATOM     15  C   UNL     1      -0.729   1.579   1.267  0.00  0.00    +0.137 C 
BRANCH  15  16
ATOM     16  C   UNL     1      -0.749   3.086   1.275  0.00  0.00    +0.224 C 
ATOM     17  O   UNL     1      -1.748   3.681   0.929  0.00  0.00    -0.275 OA
ATOM     18  N   UNL     1       0.342   3.773   1.668  0.00  0.00    -0.328 N 
ATOM     19  H   UNL     1       0.327   4.873   1.674  0.00  0.00    +0.145 HD
ATOM     20  H   UNL     1       1.248   3.233   1.982  0.00  0.00    +0.145 HD
ENDBRANCH  15  16
ENDBRANCH  13  15
ENDBRANCH   1  13
TORSDOF 5
