REMARK  Name = ZINC53327774
REMARK  8 active torsions:
REMARK  status: ('A' for Active; 'I' for Inactive)
REMARK    1  A    between atoms: C_1  and  C_2
REMARK    2  A    between atoms: C_2  and  N_3
REMARK    3  A    between atoms: N_14  and  N_15
REMARK    4  A    between atoms: C_16  and  C_18
REMARK    5  A    between atoms: C_18  and  C_19
REMARK    6  A    between atoms: C_18  and  C_20
REMARK    7  A    between atoms: C_18  and  N_21
REMARK    8  A    between atoms: N_24  and  C_25
REMARK                            x       y       z     vdW  Elec       q    Type
REMARK                         _______ _______ _______ _____ _____    ______ ____
ROOT
ATOM      1  N   UNL     1       0.688  -0.476  -1.203  0.00  0.00    -0.280 N 
ATOM      2  C   UNL     1      -0.021  -0.698  -2.335  0.00  0.00    +0.263 A 
ATOM      3  O   UNL     1      -1.223  -0.512  -2.373  0.00  0.00    -0.267 OA
ATOM      4  C   UNL     1       0.715  -1.171  -3.515  0.00  0.00    +0.065 A 
ATOM      5  C   UNL     1       0.077  -1.429  -4.728  0.00  0.00    +0.015 A 
ATOM      6  C   UNL     1       0.810  -1.867  -5.795  0.00  0.00    +0.001 A 
ATOM      7  C   UNL     1       2.182  -2.059  -5.684  0.00  0.00    +0.002 A 
ATOM      8  C   UNL     1       2.832  -1.815  -4.507  0.00  0.00    +0.028 A 
ATOM      9  C   UNL     1       2.111  -1.365  -3.398  0.00  0.00    +0.080 A 
ATOM     10  N   UNL     1       2.714  -1.111  -2.213  0.00  0.00    -0.214 NA
ATOM     11  C   UNL     1       2.036  -0.684  -1.177  0.00  0.00    +0.216 A 
ATOM     12  N   UNL     1       2.713  -0.440  -0.009  0.00  0.00    -0.234 N 
ATOM     13  H   UNL     1       2.232  -0.127   0.774  0.00  0.00    +0.173 HD
ENDROOT
BRANCH  12  14
ATOM     14  N   UNL     1       4.098  -0.642   0.054  0.00  0.00    -0.233 N 
ATOM     15  C   UNL     1       4.762  -0.402   1.202  0.00  0.00    +0.252 C 
ATOM     16  O   UNL     1       4.161  -0.011   2.180  0.00  0.00    -0.272 OA
ATOM     17  H   UNL     1       4.578  -0.954  -0.728  0.00  0.00    +0.173 HD
BRANCH  15  18
ATOM     18  C   UNL     1       6.252  -0.619   1.270  0.00  0.00    +0.108 C 
ATOM     19  C   UNL     1       6.973   0.631   0.762  0.00  0.00    +0.041 C 
ATOM     20  C   UNL     1       6.662  -0.892   2.718  0.00  0.00    +0.041 C 
BRANCH  18  21
ATOM     21  N   UNL     1       6.616  -1.766   0.435  0.00  0.00    -0.286 N 
ATOM     22  C   UNL     1       7.905  -2.149   0.341  0.00  0.00    +0.300 C 
ATOM     23  O   UNL     1       8.765  -1.543   0.950  0.00  0.00    -0.253 OA
ATOM     24  N   UNL     1       8.241  -3.205  -0.427  0.00  0.00    -0.302 N 
ATOM     25  C   UNL     1       9.642  -3.621  -0.528  0.00  0.00    +0.129 C 
ATOM     26  H   UNL     1       5.930  -2.250  -0.051  0.00  0.00    +0.151 HD
ATOM     27  H   UNL     1       7.554  -3.688  -0.913  0.00  0.00    +0.150 HD
ENDBRANCH  18  21
ENDBRANCH  15  18
ENDBRANCH  12  14
BRANCH   1  29
ATOM     28  C   UNL     1      -0.019   1.526   0.010  0.00  0.00    +0.027 C 
ATOM     29  C   UNL     1       0.002  -0.004   0.002  0.00  0.00    +0.125 C 
ENDBRANCH   1  29
TORSDOF 4
