REMARK  Name = ZINC14721580
REMARK  15 active torsions:
REMARK  status: ('A' for Active; 'I' for Inactive)
REMARK    1  A    between atoms: C_1  and  C_2
REMARK    2  A    between atoms: C_2  and  C_3
REMARK    3  A    between atoms: C_2  and  C_4
REMARK    4  A    between atoms: C_4  and  N_5
REMARK    5  A    between atoms: C_6  and  N_31
REMARK    6  A    between atoms: C_7  and  N_14
REMARK    7  A    between atoms: N_14  and  C_15
REMARK    8  A    between atoms: C_15  and  C_16
REMARK    9  A    between atoms: C_16  and  O_17
REMARK   10  A    between atoms: O_17  and  C_18
REMARK   11  A    between atoms: C_19  and  C_21
REMARK   12  A    between atoms: C_24  and  C_27
REMARK   13  A    between atoms: C_27  and  C_28
REMARK   14  A    between atoms: C_27  and  C_29
REMARK   15  A    between atoms: C_27  and  C_30
REMARK                            x       y       z     vdW  Elec       q    Type
REMARK                         _______ _______ _______ _____ _____    ______ ____
ROOT
ATOM      1  N   UNL     1      -1.334   3.423  -0.059  0.00  0.00    -0.258 N 
ATOM      2  C   UNL     1      -1.394   2.084   0.084  0.00  0.00    +0.251 C 
ATOM      3  O   UNL     1      -0.369   1.433   0.151  0.00  0.00    -0.270 OA
ENDROOT
BRANCH   1   6
ATOM      4  N   UNL     1      -4.627   4.771  -0.976  0.00  0.00    -0.280 N 
ATOM      5  C   UNL     1      -3.479   4.014  -1.020  0.00  0.00    +0.127 A 
ATOM      6  C   UNL     1      -2.519   4.187  -0.043  0.00  0.00    +0.140 A 
ATOM      7  C   UNL     1      -2.742   5.144   0.965  0.00  0.00    +0.277 A 
ATOM      8  O   UNL     1      -1.909   5.320   1.838  0.00  0.00    -0.266 OA
ATOM      9  N   UNL     1      -3.881   5.862   0.960  0.00  0.00    -0.273 N 
ATOM     10  H   UNL     1      -4.040   6.542   1.676  0.00  0.00    +0.173 HD
ATOM     11  C   UNL     1      -4.807   5.676   0.003  0.00  0.00    +0.331 A 
ATOM     12  O   UNL     1      -5.827   6.338   0.022  0.00  0.00    -0.246 OA
BRANCH   5  13
ATOM     13  N   UNL     1      -3.292   3.093  -2.023  0.00  0.00    -0.343 N 
ATOM     14  H   UNL     1      -2.509   2.520  -2.016  0.00  0.00    +0.144 HD
ATOM     15  H   UNL     1      -3.942   3.017  -2.739  0.00  0.00    +0.144 HD
ENDBRANCH   5  13
BRANCH   4  16
ATOM     16  C   UNL     1      -5.656   4.594  -2.003  0.00  0.00    +0.131 C 
BRANCH  16  18
ATOM     17  C   UNL     1      -4.060   5.140  -3.846  0.00  0.00    +0.009 C 
ATOM     18  C   UNL     1      -5.375   5.538  -3.174  0.00  0.00    +0.003 C 
ATOM     19  C   UNL     1      -6.516   5.444  -4.190  0.00  0.00    +0.009 C 
ENDBRANCH  16  18
ENDBRANCH   4  16
ENDBRANCH   1   6
BRANCH   2  20
ATOM     20  C   UNL     1      -2.706   1.407   0.161  0.00  0.00    +0.037 A 
ATOM     21  C   UNL     1      -3.815   2.083   0.671  0.00  0.00    +0.013 A 
ATOM     22  C   UNL     1      -5.035   1.443   0.745  0.00  0.00    +0.005 A 
ATOM     23  C   UNL     1      -5.160   0.134   0.314  0.00  0.00    -0.042 A 
ATOM     24  C   UNL     1      -4.065  -0.542  -0.193  0.00  0.00    +0.005 A 
ATOM     25  C   UNL     1      -2.839   0.086  -0.272  0.00  0.00    +0.013 A 
BRANCH  23  26
ATOM     26  C   UNL     1      -6.496  -0.559   0.397  0.00  0.00    -0.013 C 
ATOM     27  C   UNL     1      -6.375  -1.794   1.291  0.00  0.00    +0.015 C 
ATOM     28  C   UNL     1      -7.532   0.400   0.990  0.00  0.00    +0.015 C 
ATOM     29  C   UNL     1      -6.938  -0.984  -1.004  0.00  0.00    +0.015 C 
ENDBRANCH  23  26
ENDBRANCH   2  20
BRANCH   1  30
ATOM     30  C   UNL     1      -0.038   4.084  -0.230  0.00  0.00    +0.142 C 
BRANCH  30  31
ATOM     31  C   UNL     1       0.257   4.250  -1.722  0.00  0.00    +0.179 C 
BRANCH  31  32
ATOM     32  O   UNL     1      -0.701   5.139  -2.301  0.00  0.00    -0.381 OA
ATOM     33  C   UNL     1      -0.514   5.363  -3.700  0.00  0.00    +0.194 C 
ENDBRANCH  31  32
ENDBRANCH  30  31
ENDBRANCH   1  30
TORSDOF 9
