REMARK  Name = ZINC05496473
REMARK  5 active torsions:
REMARK  status: ('A' for Active; 'I' for Inactive)
REMARK    1  A    between atoms: N_3  and  C1*_15
REMARK    2  A    between atoms: C2*_17  and  O2*_27
REMARK    3  A    between atoms: C3*_19  and  O3*_26
REMARK    4  A    between atoms: C4*_21  and  C5*_24
REMARK    5  A    between atoms: C5*_24  and  O5*_25
REMARK                            x       y       z     vdW  Elec       q    Type
REMARK                         _______ _______ _______ _____ _____    ______ ____
ROOT
ATOM      1  C   UNL     1      -4.054   1.835  -0.977  0.00  0.00    +0.061 A 
ATOM      2  C   UNL     1      -3.163   0.817  -1.034  0.00  0.00    +0.096 A 
ATOM      3  N   UNL     1      -2.397   0.540   0.059  0.00  0.00    -0.270 N 
ATOM      4  C   UNL     1      -2.518   1.277   1.178  0.00  0.00    +0.352 A 
ATOM      5  O   UNL     1      -1.820   1.019   2.145  0.00  0.00    -0.244 OA
ATOM      6  N   UNL     1      -3.385   2.286   1.247  0.00  0.00    -0.178 NA
ATOM      7  C   UNL     1      -4.155   2.589   0.210  0.00  0.00    +0.128 A 
ATOM      8  N   UNL     1      -5.047   3.633   0.293  0.00  0.00    -0.315 N 
ATOM      9  C   UNL     1      -4.971   4.492  -0.910  0.00  0.00    +0.106 C 
ATOM     10  C   UNL     1      -5.722   5.786  -0.752  0.00  0.00    +0.019 C 
ATOM     11  C   UNL     1      -4.736   6.866  -0.260  0.00  0.00    +0.002 C 
ATOM     12  C   UNL     1      -4.466   6.755   1.170  0.00  0.00    +0.002 C 
ATOM     13  C   UNL     1      -3.822   5.402   1.537  0.00  0.00    +0.019 C 
ATOM     14  C   UNL     1      -4.901   4.355   1.576  0.00  0.00    +0.106 C 
ENDROOT
BRANCH   3  15
ATOM     15  C1* UNL     1      -1.434  -0.563   0.013  0.00  0.00    +0.255 C 
ATOM     16  C2* UNL     1      -2.013  -1.795   0.736  0.00  0.00    +0.195 C 
ATOM     17  C3* UNL     1      -2.114  -2.872  -0.372  0.00  0.00    +0.178 C 
ATOM     18  C4* UNL     1      -2.111  -2.012  -1.662  0.00  0.00    +0.177 C 
ATOM     19  O4* UNL     1      -1.191  -0.943  -1.352  0.00  0.00    -0.346 OA
BRANCH  17  20
ATOM     20  O3* UNL     1      -0.984  -3.746  -0.339  0.00  0.00    -0.386 OA
ATOM     21  H3* UNL     1      -1.002  -4.438  -1.014  0.00  0.00    +0.210 HD
ENDBRANCH  17  20
BRANCH  16  22
ATOM     22  O2* UNL     1      -3.306  -1.501   1.268  0.00  0.00    -0.385 OA
ATOM     23  H2* UNL     1      -3.717  -2.242   1.733  0.00  0.00    +0.210 HD
ENDBRANCH  16  22
BRANCH  18  24
ATOM     24  C5* UNL     1      -1.608  -2.827  -2.855  0.00  0.00    +0.190 C 
BRANCH  24  25
ATOM     25  O5* UNL     1      -1.629  -2.014  -4.030  0.00  0.00    -0.392 OA
ATOM     26  H5* UNL     1      -1.323  -2.467  -4.827  0.00  0.00    +0.210 HD
ENDBRANCH  24  25
ENDBRANCH  18  24
ENDBRANCH   3  15
TORSDOF 5
