REMARK  Name = ZINC13915267
REMARK  11 active torsions:
REMARK  status: ('A' for Active; 'I' for Inactive)
REMARK    1  A    between atoms: C_1  and  C_2
REMARK    2  A    between atoms: C_2  and  O_3
REMARK    3  A    between atoms: O_3  and  C_4
REMARK    4  A    between atoms: C_6  and  C_21
REMARK    5  A    between atoms: C_9  and  O_10
REMARK    6  A    between atoms: O_10  and  C_11
REMARK    7  A    between atoms: C_11  and  C_12
REMARK    8  A    between atoms: C_15  and  C_18
REMARK    9  A    between atoms: C_23  and  C_30
REMARK   10  A    between atoms: C_24  and  C_29
REMARK   11  A    between atoms: C_30  and  C_32
REMARK                            x       y       z     vdW  Elec       q    Type
REMARK                         _______ _______ _______ _____ _____    ______ ____
ROOT
ATOM      1  C   UNL     1       0.990  -0.452   5.998  0.00  0.00    +0.164 A 
ATOM      2  C   UNL     1       0.678   0.685   5.270  0.00  0.00    +0.055 A 
ATOM      3  C   UNL     1      -0.375   0.666   4.376  0.00  0.00    -0.018 A 
ATOM      4  C   UNL     1      -1.113  -0.489   4.196  0.00  0.00    +0.029 A 
ATOM      5  C   UNL     1      -0.804  -1.629   4.916  0.00  0.00    +0.087 A 
ATOM      6  C   UNL     1       0.248  -1.615   5.819  0.00  0.00    +0.181 A 
ATOM      7 CL   UNL     1      -1.733  -3.078   4.688  0.00  0.00    -0.080 Cl
ENDROOT
BRANCH   3   8
ATOM      8  C   UNL     1      -0.716   1.906   3.590  0.00  0.00    +0.138 C 
ATOM      9  C   UNL     1      -0.173   1.733   2.185  0.00  0.00    +0.036 C 
ATOM     10  C   UNL     1      -1.053   1.808   1.156  0.00  0.00    +0.015 C 
ATOM     11  N   UNL     1      -2.377   2.036   1.379  0.00  0.00    -0.300 N 
ATOM     12  C   UNL     1      -2.910   2.190   2.598  0.00  0.00    +0.135 C 
ATOM     13  S   UNL     1      -4.594   2.465   2.735  0.00  0.00    -0.019 S 
ATOM     14  N   UNL     1      -2.164   2.143   3.719  0.00  0.00    -0.315 N 
ATOM     15  C   UNL     1      -0.557   1.642  -0.257  0.00  0.00    +0.061 C 
ATOM     16  H   UNL     1      -2.968   2.086   0.612  0.00  0.00    +0.154 HD
ATOM     17  H   UNL     1      -2.571   2.261   4.592  0.00  0.00    +0.149 HD
BRANCH   9  18
ATOM     18  C   UNL     1       1.194   1.504   1.958  0.00  0.00    +0.160 C 
ATOM     19  O   UNL     1       1.564   0.438   1.508  0.00  0.00    -0.293 OA
ATOM     20  C   UNL     1       2.201   2.580   2.272  0.00  0.00    +0.091 C 
ENDBRANCH   9  18
ENDBRANCH   3   8
BRANCH   1  21
ATOM     21  O   UNL     1       2.023  -0.433   6.882  0.00  0.00    -0.489 OA
BRANCH  21  23
ATOM     22  C   UNL     1       3.858   0.625   8.046  0.00  0.00    +0.048 C 
ATOM     23  C   UNL     1       2.741   0.795   7.015  0.00  0.00    +0.226 C 
ENDBRANCH  21  23
ENDBRANCH   1  21
BRANCH   6  24
ATOM     24  O   UNL     1       0.554  -2.735   6.527  0.00  0.00    -0.482 OA
BRANCH  24  25
ATOM     25  C   UNL     1       1.497  -3.635   5.941  0.00  0.00    +0.264 C 
BRANCH  25  26
ATOM     26  C   UNL     1       1.710  -4.809   6.862  0.00  0.00    -0.010 A 
ATOM     27  C   UNL     1       2.707  -4.761   7.820  0.00  0.00    +0.008 A 
ATOM     28  C   UNL     1       2.903  -5.830   8.669  0.00  0.00    +0.015 A 
ATOM     29  C   UNL     1       2.101  -6.966   8.553  0.00  0.00    +0.063 A 
ATOM     30  C   UNL     1       1.100  -7.010   7.581  0.00  0.00    +0.015 A 
ATOM     31  C   UNL     1       0.911  -5.932   6.742  0.00  0.00    +0.008 A 
BRANCH  29  32
ATOM     32  C   UNL     1       2.309  -8.117   9.456  0.00  0.00    +0.387 C 
ATOM     33  O   UNL     1       1.609  -9.104   9.353  0.00  0.00    -0.241 OA
ATOM     34  O   UNL     1       3.276  -8.072  10.393  0.00  0.00    -0.241 OA
ENDBRANCH  29  32
ENDBRANCH  25  26
ENDBRANCH  24  25
ENDBRANCH   6  24
TORSDOF 8
