REMARK  Name = ZINC12496946
REMARK  6 active torsions:
REMARK  status: ('A' for Active; 'I' for Inactive)
REMARK    1  A    between atoms: C_1  and  C_2
REMARK    2  A    between atoms: C_2  and  C_27
REMARK    3  A    between atoms: C_7  and  C_9
REMARK    4  A    between atoms: N_18  and  C_21
REMARK    5  A    between atoms: C_27  and  O_29
REMARK    6  A    between atoms: O_29  and  C_30
REMARK                            x       y       z     vdW  Elec       q    Type
REMARK                         _______ _______ _______ _____ _____    ______ ____
ROOT
ATOM      1  C   UNL     1       3.449   1.472  -0.587  0.00  0.00    +0.002 C 
ATOM      2  C   UNL     1       2.524   2.008   0.508  0.00  0.00    +0.041 C 
ATOM      3  C   UNL     1       1.131   2.115   0.003  0.00  0.00    +0.086 C 
ATOM      4  C   UNL     1       0.561   3.261   0.928  0.00  0.00    +0.077 C 
ATOM      5  C   UNL     1       1.678   4.258   0.735  0.00  0.00    -0.027 C 
ATOM      6  C   UNL     1      -0.798   3.324   0.345  0.00  0.00    +0.229 C 
ATOM      7  O   UNL     1      -1.485   4.310   0.185  0.00  0.00    -0.275 OA
ATOM      8  N   UNL     1      -1.113   2.030   0.018  0.00  0.00    -0.210 N 
ATOM      9  C   UNL     1      -0.014   1.208   0.009  0.00  0.00    +0.229 C 
ATOM     10  O   UNL     1       0.002  -0.004   0.002  0.00  0.00    -0.275 OA
ATOM     11  N   UNL     1       2.891   3.398   0.880  0.00  0.00    +0.395 N 
ATOM     12  H   UNL     1       3.634   3.739   0.259  0.00  0.00    -0.083 HD
ATOM     13  H   UNL     1       3.219   3.422   1.852  0.00  0.00    -0.083 HD
ENDROOT
BRANCH   5  14
ATOM     14  C   UNL     1       1.633   5.326   1.798  0.00  0.00    -0.060 A 
ATOM     15  C   UNL     1       2.142   5.069   3.057  0.00  0.00    +0.005 A 
ATOM     16  C   UNL     1       2.106   6.049   4.030  0.00  0.00    +0.038 A 
ATOM     17  C   UNL     1       1.549   7.285   3.748  0.00  0.00    +0.123 A 
ATOM     18  C   UNL     1       1.034   7.539   2.488  0.00  0.00    +0.038 A 
ATOM     19  C   UNL     1       1.077   6.560   1.514  0.00  0.00    +0.005 A 
ATOM     20  F   UNL     1       1.508   8.242   4.701  0.00  0.00    -0.205 F 
ENDBRANCH   5  14
BRANCH   8  21
ATOM     21  C   UNL     1      -2.414   1.594  -0.273  0.00  0.00    +0.044 A 
ATOM     22  C   UNL     1      -2.645   0.264  -0.598  0.00  0.00    +0.024 A 
ATOM     23  C   UNL     1      -3.928  -0.164  -0.879  0.00  0.00    +0.002 A 
ATOM     24  C   UNL     1      -4.980   0.733  -0.847  0.00  0.00    +0.000 A 
ATOM     25  C   UNL     1      -4.752   2.060  -0.528  0.00  0.00    +0.002 A 
ATOM     26  C   UNL     1      -3.472   2.492  -0.242  0.00  0.00    +0.024 A 
ENDBRANCH   8  21
BRANCH   2  27
ATOM     27  C   UNL     1       2.576   1.118   1.723  0.00  0.00    +0.296 C 
ATOM     28  O   UNL     1       1.727   0.275   1.891  0.00  0.00    -0.252 OA
BRANCH  27  29
ATOM     29  O   UNL     1       3.564   1.263   2.619  0.00  0.00    -0.469 OA
ATOM     30  C   UNL     1       3.551   0.371   3.765  0.00  0.00    +0.280 C 
ENDBRANCH  27  29
ENDBRANCH   2  27
TORSDOF 4
