REMARK  Name = ZINC08321069
REMARK  4 active torsions:
REMARK  status: ('A' for Active; 'I' for Inactive)
REMARK    1  A    between atoms: C_1  and  C_2
REMARK    2  A    between atoms: C_11  and  C_12
REMARK    3  A    between atoms: N_16  and  C_17
REMARK    4  A    between atoms: C_17  and  C_18
REMARK                            x       y       z     vdW  Elec       q    Type
REMARK                         _______ _______ _______ _____ _____    ______ ____
ROOT
ATOM      1  C   UNL     1      -2.224   2.133   0.679  0.00  0.00    +0.046 C 
ATOM      2  C   UNL     1      -1.859   0.688   0.455  0.00  0.00    -0.024 A 
ATOM      3  C   UNL     1      -2.012   0.126  -0.777  0.00  0.00    +0.005 A 
ATOM      4  C   UNL     1      -1.680  -1.208  -1.004  0.00  0.00    +0.001 A 
ATOM      5  C   UNL     1      -1.192  -1.990  -0.001  0.00  0.00    +0.012 A 
ATOM      6  C   UNL     1      -1.021  -1.444   1.279  0.00  0.00    +0.022 A 
ATOM      7  C   UNL     1      -1.353  -0.084   1.511  0.00  0.00    +0.079 A 
ATOM      8  N   UNL     1      -1.179   0.421   2.738  0.00  0.00    -0.212 NA
ATOM      9  C   UNL     1      -0.702  -0.336   3.706  0.00  0.00    +0.231 A 
ATOM     10  N   UNL     1      -0.374  -1.614   3.523  0.00  0.00    -0.217 NA
ATOM     11  C   UNL     1      -0.522  -2.203   2.355  0.00  0.00    +0.051 A 
ATOM     12  C   UNL     1      -0.147  -3.650   2.168  0.00  0.00    +0.066 C 
ATOM     13  N   UNL     1      -0.534   0.220   4.965  0.00  0.00    -0.295 N 
ATOM     14  C   UNL     1      -0.037  -0.547   5.996  0.00  0.00    +0.201 C 
ATOM     15  N   UNL     1       0.275  -1.793   5.789  0.00  0.00    -0.268 NA
ATOM     16  N   UNL     1       0.130   0.007   7.250  0.00  0.00    -0.329 N 
ATOM     17  H   UNL     1      -0.766   1.149   5.120  0.00  0.00    +0.172 HD
ATOM     18  H   UNL     1       0.586  -2.345   6.524  0.00  0.00    +0.190 HD
ATOM     19  H   UNL     1      -0.025   0.954   7.387  0.00  0.00    +0.168 HD
ENDROOT
BRANCH  16  20
ATOM     20  C   UNL     1       0.512  -0.775   8.292  0.00  0.00    +0.034 C 
ATOM     21  C   UNL     1      -0.358  -1.926   8.729  0.00  0.00    +0.064 C 
ATOM     22  C   UNL     1       1.699  -0.516   8.953  0.00  0.00    +0.125 C 
ATOM     23  C   UNL     1       2.181  -1.333  10.096  0.00  0.00    +0.197 C 
ATOM     24  C   UNL     1       3.191  -0.742  10.909  0.00  0.00    +0.090 C 
ATOM     25  C   UNL     1       3.649   0.489  10.643  0.00  0.00    +0.203 C 
ATOM     26  O   UNL     1       3.185   1.241   9.629  0.00  0.00    -0.430 OA
ATOM     27  C   UNL     1       2.603   0.597   8.579  0.00  0.00    +0.349 C 
ATOM     28  O   UNL     1       2.807   0.912   7.421  0.00  0.00    -0.244 OA
ATOM     29  O   UNL     1       1.738  -2.446  10.326  0.00  0.00    -0.287 OA
ENDBRANCH  16  20
TORSDOF 1
