REMARK  Name = ZINC09390412
REMARK  7 active torsions:
REMARK  status: ('A' for Active; 'I' for Inactive)
REMARK    1  A    between atoms: C_7  and  C_21
REMARK    2  A    between atoms: C_12  and  C_13
REMARK    3  A    between atoms: C_21  and  O_23
REMARK    4  A    between atoms: O_23  and  C_24
REMARK    5  A    between atoms: C_24  and  C_25
REMARK    6  A    between atoms: N_30  and  C_31
REMARK    7  A    between atoms: C_31  and  C_32
REMARK                            x       y       z     vdW  Elec       q    Type
REMARK                         _______ _______ _______ _____ _____    ______ ____
ROOT
ATOM      1  C   UNL     1      -3.071   7.466  -2.749  0.00  0.00    +0.001 A 
ATOM      2  C   UNL     1      -2.788   8.045  -1.514  0.00  0.00    +0.002 A 
ATOM      3  C   UNL     1      -2.299   7.301  -0.485  0.00  0.00    +0.028 A 
ATOM      4  C   UNL     1      -2.074   5.923  -0.665  0.00  0.00    +0.072 A 
ATOM      5  C   UNL     1      -2.364   5.340  -1.924  0.00  0.00    +0.015 A 
ATOM      6  C   UNL     1      -2.866   6.134  -2.960  0.00  0.00    +0.011 A 
ATOM      7  C   UNL     1      -2.131   3.906  -2.103  0.00  0.00    +0.073 A 
ATOM      8  C   UNL     1      -1.632   3.194  -1.020  0.00  0.00    -0.007 A 
ATOM      9  C   UNL     1      -1.371   3.870   0.186  0.00  0.00    +0.072 A 
ATOM     10  N   UNL     1      -1.595   5.169   0.323  0.00  0.00    -0.247 NA
ATOM     11  C   UNL     1      -0.829   3.119   1.337  0.00  0.00    -0.018 C 
ATOM     12  C   UNL     1      -0.344   3.760   2.421  0.00  0.00    +0.052 C 
ATOM     13  C   UNL     1      -0.835   1.608   1.258  0.00  0.00    +0.038 C 
ATOM     14  C   UNL     1      -0.372   1.217  -0.151  0.00  0.00    +0.009 C 
ATOM     15  C   UNL     1      -1.388   1.719  -1.173  0.00  0.00    +0.038 C 
ENDROOT
BRANCH  12  16
ATOM     16  C   UNL     1      -0.147   5.209   2.388  0.00  0.00    +0.128 A 
ATOM     17  C   UNL     1      -0.323   6.068   3.437  0.00  0.00    +0.049 A 
ATOM     18  C   UNL     1      -0.023   7.355   2.959  0.00  0.00    +0.042 A 
ATOM     19  C   UNL     1       0.311   7.228   1.657  0.00  0.00    +0.195 A 
ATOM     20  O   UNL     1       0.235   5.932   1.316  0.00  0.00    -0.464 OA
ENDBRANCH  12  16
BRANCH   7  21
ATOM     21  C   UNL     1      -2.415   3.240  -3.391  0.00  0.00    +0.341 C 
ATOM     22  O   UNL     1      -3.514   2.766  -3.600  0.00  0.00    -0.245 OA
BRANCH  21  23
ATOM     23  O   UNL     1      -1.456   3.158  -4.334  0.00  0.00    -0.452 OA
BRANCH  23  24
ATOM     24  C   UNL     1      -1.806   2.490  -5.574  0.00  0.00    +0.328 C 
BRANCH  24  25
ATOM     25  C   UNL     1      -0.617   2.495  -6.500  0.00  0.00    +0.258 C 
ATOM     26  O   UNL     1       0.423   3.011  -6.149  0.00  0.00    -0.272 OA
ATOM     27  N   UNL     1      -0.709   1.926  -7.719  0.00  0.00    -0.237 N 
ATOM     28  C   UNL     1       0.354   1.931  -8.547  0.00  0.00    +0.306 C 
ATOM     29  O   UNL     1       1.396   2.448  -8.195  0.00  0.00    -0.252 OA
ATOM     30  N   UNL     1       0.262   1.362  -9.765  0.00  0.00    -0.292 N 
ATOM     31  H   UNL     1      -1.541   1.513  -8.000  0.00  0.00    +0.159 HD
ATOM     32  H   UNL     1      -0.570   0.949 -10.046  0.00  0.00    +0.151 HD
BRANCH  30  33
ATOM     33  C   UNL     1       1.418   1.367 -10.665  0.00  0.00    +0.180 C 
BRANCH  33  34
ATOM     34  C   UNL     1       1.054   0.673 -11.953  0.00  0.00    +0.122 A 
ATOM     35  C   UNL     1       0.534   1.263 -13.045  0.00  0.00    +0.046 A 
ATOM     36  C   UNL     1       0.351   0.247 -14.011  0.00  0.00    +0.041 A 
ATOM     37  C   UNL     1       0.770  -0.903 -13.452  0.00  0.00    +0.195 A 
ATOM     38  O   UNL     1       1.201  -0.637 -12.208  0.00  0.00    -0.466 OA
ENDBRANCH  33  34
ENDBRANCH  30  33
ENDBRANCH  24  25
ENDBRANCH  23  24
ENDBRANCH  21  23
ENDBRANCH   7  21
TORSDOF 7
