REMARK  Name = ZINC66634030
REMARK  10 active torsions:
REMARK  status: ('A' for Active; 'I' for Inactive)
REMARK    1  A    between atoms: C_1  and  C_2
REMARK    2  A    between atoms: C_3  and  C_9
REMARK    3  A    between atoms: C_4  and  C_8
REMARK    4  A    between atoms: N_5  and  C_7
REMARK    5  A    between atoms: C_9  and  C_11
REMARK    6  A    between atoms: C_9  and  N_12
REMARK    7  A    between atoms: C_13  and  C_15
REMARK    8  A    between atoms: C_15  and  N_16
REMARK    9  A    between atoms: N_19  and  C_20
REMARK   10  A    between atoms: C_20  and  C_21
REMARK                            x       y       z     vdW  Elec       q    Type
REMARK                         _______ _______ _______ _____ _____    ______ ____
ROOT
ATOM      1  C   UNL     1      -2.025   2.325  -4.138  0.00  0.00    +0.201 C 
ENDROOT
BRANCH   1   2
ATOM      2  N   UNL     1      -2.503   2.375  -5.522  0.00  0.00    -0.291 N 
ATOM      3  C   UNL     1      -3.293   3.391  -5.925  0.00  0.00    +0.300 C 
ATOM      4  O   UNL     1      -3.608   4.264  -5.141  0.00  0.00    -0.253 OA
ATOM      5  N   UNL     1      -3.733   3.437  -7.198  0.00  0.00    -0.295 N 
ATOM      6  H   UNL     1      -2.252   1.678  -6.147  0.00  0.00    +0.151 HD
ATOM      7  H   UNL     1      -3.482   2.740  -7.824  0.00  0.00    +0.151 HD
BRANCH   5   8
ATOM      8  C   UNL     1      -4.591   4.541  -7.637  0.00  0.00    +0.141 C 
BRANCH   8   9
ATOM      9  C   UNL     1      -4.940   4.358  -9.091  0.00  0.00    -0.030 A 
ATOM     10  C   UNL     1      -4.128   4.899 -10.070  0.00  0.00    +0.006 A 
ATOM     11  C   UNL     1      -4.448   4.731 -11.404  0.00  0.00    +0.020 A 
ATOM     12  C   UNL     1      -5.581   4.022 -11.760  0.00  0.00    +0.041 A 
ATOM     13  C   UNL     1      -6.394   3.481 -10.780  0.00  0.00    +0.020 A 
ATOM     14  C   UNL     1      -6.070   3.644  -9.446  0.00  0.00    +0.006 A 
ATOM     15 CL   UNL     1      -5.984   3.812 -13.435  0.00  0.00    -0.084 Cl
ENDBRANCH   8   9
ENDBRANCH   5   8
ENDBRANCH   1   2
BRANCH   1  17
ATOM     16  N   UNL     1      -0.616   0.845  -2.745  0.00  0.00    -0.307 N 
ATOM     17  C   UNL     1      -1.168   1.100  -3.947  0.00  0.00    +0.231 C 
ATOM     18  O   UNL     1      -0.976   0.344  -4.875  0.00  0.00    -0.274 OA
ATOM     19  H   UNL     1      -0.769   1.450  -2.002  0.00  0.00    +0.149 HD
BRANCH  16  20
ATOM     20  C   UNL     1       0.218  -0.346  -2.559  0.00  0.00    +0.104 C 
ATOM     21  C   UNL     1       1.648  -0.043  -3.010  0.00  0.00    +0.033 C 
BRANCH  20  24
ATOM     22  C   UNL     1      -0.183  -3.272  -1.411  0.00  0.00    +0.068 C 
ATOM     23  C   UNL     1       0.045  -2.025  -0.595  0.00  0.00    +0.065 A 
ATOM     24  C   UNL     1       0.222  -0.734  -1.103  0.00  0.00    +0.016 A 
ATOM     25  C   UNL     1       0.397   0.105  -0.056  0.00  0.00    +0.041 A 
ATOM     26  N   UNL     1       0.334  -0.630   1.075  0.00  0.00    -0.271 N 
ATOM     27  N   UNL     1       0.107  -1.963   0.710  0.00  0.00    -0.176 NA
ATOM     28  C   UNL     1       0.473  -0.122   2.442  0.00  0.00    +0.172 C 
ATOM     29  C   UNL     1       0.623   1.592  -0.137  0.00  0.00    +0.065 C 
ENDBRANCH  20  24
ENDBRANCH  16  20
ENDBRANCH   1  17
TORSDOF 6
