REMARK  Name = ZINC57148035
REMARK  5 active torsions:
REMARK  status: ('A' for Active; 'I' for Inactive)
REMARK    1  A    between atoms: C_1  and  C_2
REMARK    2  A    between atoms: C_2  and  C_4
REMARK    3  A    between atoms: C_2  and  N_12
REMARK    4  A    between atoms: N_12  and  C_13
REMARK    5  A    between atoms: C_14  and  N_24
REMARK                            x       y       z     vdW  Elec       q    Type
REMARK                         _______ _______ _______ _____ _____    ______ ____
ROOT
ATOM      1  C   UNL     1      -2.062  -0.660  -1.177  0.00  0.00    +0.157 A 
ATOM      2  C   UNL     1      -3.338  -1.219  -1.179  0.00  0.00    +0.230 A 
ATOM      3  C   UNL     1      -4.022  -1.329  -2.387  0.00  0.00    +0.291 A 
ATOM      4  O   UNL     1      -5.143  -1.815  -2.422  0.00  0.00    -0.265 OA
ATOM      5  N   UNL     1      -3.432  -0.891  -3.519  0.00  0.00    -0.266 N 
ATOM      6  C   UNL     1      -4.094  -0.994  -4.706  0.00  0.00    +0.096 A 
ATOM      7  C   UNL     1      -3.527  -0.564  -5.854  0.00  0.00    +0.018 A 
ATOM      8  C   UNL     1      -2.241  -0.003  -5.838  0.00  0.00    +0.005 A 
ATOM      9  C   UNL     1      -1.570   0.105  -4.658  0.00  0.00    +0.047 A 
ATOM     10  C   UNL     1      -2.178  -0.348  -3.471  0.00  0.00    +0.142 A 
ATOM     11  N   UNL     1      -1.524  -0.237  -2.318  0.00  0.00    -0.212 NA
ENDROOT
BRANCH   2  12
ATOM     12  N   UNL     1      -3.955  -1.690   0.082  0.00  0.00    +0.065 N 
ATOM     13  O   UNL     1      -3.398  -1.497   1.137  0.00  0.00    -0.126 OA
ATOM     14  O   UNL     1      -5.017  -2.267   0.056  0.00  0.00    -0.126 OA
ENDBRANCH   2  12
BRANCH   1  15
ATOM     15  N   UNL     1      -1.360  -0.539   0.008  0.00  0.00    -0.320 N 
ATOM     16  H   UNL     1      -1.783  -0.775   0.849  0.00  0.00    +0.148 HD
BRANCH  15  18
ATOM     17  C   UNL     1       0.027   1.475   0.005  0.00  0.00    +0.033 C 
ATOM     18  C   UNL     1       0.023  -0.055  -0.006  0.00  0.00    +0.099 C 
BRANCH  18  19
ATOM     19  C   UNL     1       0.747  -0.569   1.211  0.00  0.00    -0.026 A 
ATOM     20  C   UNL     1       0.100  -0.615   2.432  0.00  0.00    +0.008 A 
ATOM     21  C   UNL     1       0.763  -1.086   3.549  0.00  0.00    +0.040 A 
ATOM     22  C   UNL     1       2.076  -1.512   3.446  0.00  0.00    +0.142 A 
ATOM     23  C   UNL     1       2.724  -1.465   2.223  0.00  0.00    +0.076 A 
ATOM     24  C   UNL     1       2.057  -0.998   1.105  0.00  0.00    +0.028 A 
ATOM     25 CL   UNL     1       4.371  -1.998   2.091  0.00  0.00    -0.081 Cl
ATOM     26  F   UNL     1       2.725  -1.972   4.538  0.00  0.00    -0.204 F 
ENDBRANCH  18  19
ENDBRANCH  15  18
ENDBRANCH   1  15
TORSDOF 4
