REMARK  Name = ZINC62495701
REMARK  6 active torsions:
REMARK  status: ('A' for Active; 'I' for Inactive)
REMARK    1  A    between atoms: C_1  and  C_2
REMARK    2  A    between atoms: C_5  and  O_21
REMARK    3  A    between atoms: C_6  and  C_8
REMARK    4  A    between atoms: C_8  and  C_9
REMARK    5  A    between atoms: C_16  and  O_20
REMARK    6  A    between atoms: O_21  and  C_22
REMARK                            x       y       z     vdW  Elec       q    Type
REMARK                         _______ _______ _______ _____ _____    ______ ____
ROOT
ATOM      1  C   UNL     1       1.496  -3.187   2.864  0.00  0.00    +0.195 C 
ATOM      2  C   UNL     1       1.526  -3.855   4.246  0.00  0.00    +0.146 C 
ATOM      3  N   UNL     1       2.925  -4.213   4.536  0.00  0.00    -0.337 N 
ATOM      4  C   UNL     1       3.690  -4.764   3.491  0.00  0.00    +0.070 A 
ATOM      5  C   UNL     1       4.900  -5.378   3.767  0.00  0.00    +0.030 A 
ATOM      6  C   UNL     1       5.652  -5.916   2.739  0.00  0.00    +0.047 A 
ATOM      7  C   UNL     1       5.193  -5.840   1.432  0.00  0.00    +0.120 A 
ATOM      8  C   UNL     1       3.981  -5.227   1.153  0.00  0.00    +0.093 A 
ATOM      9  C   UNL     1       3.224  -4.688   2.182  0.00  0.00    +0.145 A 
ATOM     10  O   UNL     1       2.034  -4.094   1.898  0.00  0.00    -0.485 OA
ATOM     11  H   UNL     1       3.307  -4.073   5.417  0.00  0.00    +0.146 HD
ENDROOT
BRANCH   7  12
ATOM     12  O   UNL     1       5.934  -6.368   0.421  0.00  0.00    -0.507 OA
ATOM     13  H   UNL     1       5.735  -7.294   0.230  0.00  0.00    +0.292 HD
ENDBRANCH   7  12
BRANCH   1  14
ATOM     14  C   UNL     1       0.052  -2.841   2.493  0.00  0.00    +0.085 C 
BRANCH  14  20
ATOM     15  C   UNL     1      -0.018   1.503   0.010  0.00  0.00    +0.044 C 
ATOM     16  C   UNL     1       0.002  -0.004   0.002  0.00  0.00    -0.050 A 
ATOM     17  C   UNL     1       0.006  -0.688  -1.200  0.00  0.00    +0.007 A 
ATOM     18  C   UNL     1       0.024  -2.069  -1.210  0.00  0.00    +0.046 A 
ATOM     19  C   UNL     1       0.039  -2.770  -0.013  0.00  0.00    +0.123 A 
ATOM     20  C   UNL     1       0.036  -2.082   1.191  0.00  0.00    -0.002 A 
ATOM     21  C   UNL     1       0.023  -0.701   1.196  0.00  0.00    +0.010 A 
BRANCH  19  22
ATOM     22  O   UNL     1       0.057  -4.129  -0.021  0.00  0.00    -0.495 OA
ATOM     23  C   UNL     1       0.058  -4.771  -1.298  0.00  0.00    +0.277 C 
ENDBRANCH  19  22
ENDBRANCH  14  20
ENDBRANCH   1  14
TORSDOF 4
