REMARK  Name = ZINC66193283
REMARK  7 active torsions:
REMARK  status: ('A' for Active; 'I' for Inactive)
REMARK    1  A    between atoms: C_1  and  C_2
REMARK    2  A    between atoms: C_9  and  C_11
REMARK    3  A    between atoms: C_11  and  C_12
REMARK    4  A    between atoms: C_12  and  N_13
REMARK    5  A    between atoms: N_16  and  C_17
REMARK    6  A    between atoms: N_16  and  C_18
REMARK    7  A    between atoms: N_21  and  C_24
REMARK                            x       y       z     vdW  Elec       q    Type
REMARK                         _______ _______ _______ _____ _____    ______ ____
ROOT
ATOM      1  N   UNL     1       0.161  -6.367   3.220  0.00  0.00    -0.299 N 
ATOM      2  C   UNL     1      -0.262  -7.155   4.229  0.00  0.00    +0.302 C 
ATOM      3  O   UNL     1      -0.752  -6.658   5.225  0.00  0.00    -0.253 OA
ATOM      4  N   UNL     1      -0.142  -8.494   4.134  0.00  0.00    -0.286 N 
ATOM      5  C   UNL     1       0.448  -9.093   2.934  0.00  0.00    +0.134 C 
ATOM      6  H   UNL     1       0.551  -6.764   2.426  0.00  0.00    +0.150 HD
ENDROOT
BRANCH   4   7
ATOM      7  C   UNL     1      -0.601  -9.350   5.230  0.00  0.00    +0.074 C 
ATOM      8  C   UNL     1       0.574 -10.177   5.761  0.00  0.00    +0.004 C 
ATOM      9  C   UNL     1       0.071 -11.126   6.851  0.00  0.00    -0.077 C 
ATOM     10  N   UNL     1      -0.948 -12.023   6.292  0.00  0.00    +0.382 N 
ATOM     11  C   UNL     1      -2.108 -11.243   5.846  0.00  0.00    -0.077 C 
ATOM     12  C   UNL     1      -1.689 -10.298   4.718  0.00  0.00    +0.004 C 
ATOM     13  H   UNL     1      -0.559 -12.524   5.508  0.00  0.00    -0.081 HD
BRANCH  10  14
ATOM     14  C   UNL     1      -1.370 -12.982   7.321  0.00  0.00    -0.064 C 
ATOM     15  C   UNL     1      -0.165 -13.812   7.774  0.00  0.00    +0.013 C 
ATOM     16  C   UNL     1      -0.630 -14.861   8.788  0.00  0.00    +0.158 C 
ATOM     17  O   UNL     1      -1.640 -15.681   8.195  0.00  0.00    -0.380 OA
ATOM     18  C   UNL     1      -2.810 -14.965   7.795  0.00  0.00    +0.158 C 
ATOM     19  C   UNL     1      -2.433 -13.921   6.741  0.00  0.00    +0.013 C 
ENDBRANCH  10  14
ENDBRANCH   4   7
BRANCH   1  20
ATOM     20  C   UNL     1       0.030  -4.912   3.324  0.00  0.00    +0.115 C 
BRANCH  20  21
ATOM     21  C   UNL     1       0.581  -4.259   2.055  0.00  0.00    +0.114 C 
BRANCH  21  29
ATOM     22  C   UNL     1      -0.019   1.526   0.010  0.00  0.00    +0.009 C 
ATOM     23  C   UNL     1       0.002  -0.004   0.002  0.00  0.00    +0.003 C 
ATOM     24  C   UNL     1       0.720  -0.498  -1.256  0.00  0.00    +0.006 C 
ATOM     25  C   UNL     1       0.712  -2.028  -1.282  0.00  0.00    +0.019 C 
ATOM     26  C   UNL     1       1.463  -2.559  -0.057  0.00  0.00    +0.108 C 
ATOM     27  N   UNL     1       0.869  -1.973   1.153  0.00  0.00    -0.301 N 
ATOM     28  C   UNL     1       0.744  -0.512   1.242  0.00  0.00    +0.111 C 
ATOM     29  C   UNL     1       0.447  -2.761   2.161  0.00  0.00    +0.217 C 
ATOM     30  O   UNL     1      -0.042  -2.265   3.154  0.00  0.00    -0.276 OA
ENDBRANCH  21  29
ENDBRANCH  20  21
ENDBRANCH   1  20
TORSDOF 5
