REMARK  Name = ZINC39733551
REMARK  7 active torsions:
REMARK  status: ('A' for Active; 'I' for Inactive)
REMARK    1  A    between atoms: C_1  and  C_2
REMARK    2  A    between atoms: C_2  and  C_4
REMARK    3  A    between atoms: C_2  and  S_15
REMARK    4  A    between atoms: N_6  and  C_7
REMARK    5  A    between atoms: C_11  and  C_13
REMARK    6  A    between atoms: S_15  and  C_16
REMARK    7  A    between atoms: C_20  and  C_22
REMARK                            x       y       z     vdW  Elec       q    Type
REMARK                         _______ _______ _______ _____ _____    ______ ____
ROOT
ATOM      1  C   UNL     1       2.581  -0.010   1.231  0.00  0.00    +0.340 C 
ATOM      2  N   UNL     1       2.603   1.457   1.105  0.00  0.00    -0.219 N 
ATOM      3  N   UNL     1       3.125   1.717  -0.171  0.00  0.00    -0.145 NA
ATOM      4  C   UNL     1       3.401   0.595  -0.781  0.00  0.00    +0.238 C 
ATOM      5  O   UNL     1       3.108  -0.488  -0.015  0.00  0.00    -0.443 OA
ATOM      6  H   UNL     1       2.316   2.107   1.765  0.00  0.00    +0.173 HD
ENDROOT
BRANCH   4   7
ATOM      7  C   UNL     1       3.937   0.517  -2.074  0.00  0.00    +0.043 C 
ATOM      8  C   UNL     1       4.269   1.581  -2.915  0.00  0.00    +0.008 A 
ATOM      9  C   UNL     1       4.184   2.980  -2.760  0.00  0.00    +0.010 A 
ATOM     10  C   UNL     1       4.589   3.795  -3.768  0.00  0.00    +0.001 A 
ATOM     11  C   UNL     1       5.093   3.282  -4.966  0.00  0.00    +0.002 A 
ATOM     12  C   UNL     1       5.203   1.948  -5.182  0.00  0.00    +0.026 A 
ATOM     13  C   UNL     1       4.800   1.035  -4.175  0.00  0.00    +0.043 A 
ATOM     14  N   UNL     1       4.806  -0.284  -4.140  0.00  0.00    -0.380 N 
ATOM     15  C   UNL     1       4.283  -0.736  -2.847  0.00  0.00    +0.154 C 
ATOM     16  H   UNL     1       5.111  -0.863  -4.856  0.00  0.00    +0.160 HD
ENDBRANCH   4   7
BRANCH   1  17
ATOM     17  S   UNL     1       0.883  -0.601   1.468  0.00  0.00    -0.084 S 
BRANCH  17  19
ATOM     18  C   UNL     1      -0.030   1.532   0.018  0.00  0.00    +0.029 C 
ATOM     19  C   UNL     1      -0.000   0.002   0.002  0.00  0.00    +0.134 C 
BRANCH  19  20
ATOM     20  C   UNL     1      -1.411  -0.527   0.012  0.00  0.00    +0.230 C 
ATOM     21  O   UNL     1      -1.935  -0.837   1.062  0.00  0.00    -0.274 OA
ATOM     22  N   UNL     1      -2.090  -0.657  -1.144  0.00  0.00    -0.285 N 
ATOM     23  H   UNL     1      -1.697  -0.348  -1.975  0.00  0.00    +0.155 HD
BRANCH  22  24
ATOM     24  C   UNL     1      -3.363  -1.239  -1.147  0.00  0.00    +0.035 A 
ATOM     25  C   UNL     1      -3.764  -2.029  -2.218  0.00  0.00    +0.023 A 
ATOM     26  C   UNL     1      -5.020  -2.605  -2.225  0.00  0.00    +0.003 A 
ATOM     27  C   UNL     1      -5.885  -2.401  -1.169  0.00  0.00    +0.019 A 
ATOM     28  C   UNL     1      -5.492  -1.610  -0.088  0.00  0.00    +0.054 A 
ATOM     29  C   UNL     1      -4.222  -1.032  -0.079  0.00  0.00    +0.042 A 
BRANCH  28  30
ATOM     30  C   UNL     1      -6.387  -1.396   1.009  0.00  0.00    +0.099 C 
ATOM     31  N   UNL     1      -7.097  -1.227   1.880  0.00  0.00    -0.191 NA
ENDBRANCH  28  30
ENDBRANCH  22  24
ENDBRANCH  19  20
ENDBRANCH  17  19
ENDBRANCH   1  17
TORSDOF 6
