REMARK  Name = ZINC19897767
REMARK  7 active torsions:
REMARK  status: ('A' for Active; 'I' for Inactive)
REMARK    1  A    between atoms: C_1  and  C_2
REMARK    2  A    between atoms: C_2  and  C_4
REMARK    3  A    between atoms: C_2  and  O_30
REMARK    4  A    between atoms: C_9  and  O_29
REMARK    5  A    between atoms: C_10  and  C_28
REMARK    6  A    between atoms: C_20  and  C_27
REMARK    7  A    between atoms: C_23  and  O_26
REMARK                            x       y       z     vdW  Elec       q    Type
REMARK                         _______ _______ _______ _____ _____    ______ ____
ROOT
ATOM      1  C   UNL     1       1.796   0.513   6.282  0.00  0.00    +0.034 C 
ATOM      2  C   UNL     1       1.222  -0.900   6.064  0.00  0.00    +0.084 C 
ATOM      3  C   UNL     1       0.191  -0.788   4.950  0.00  0.00    +0.166 C 
ATOM      4  O   UNL     1      -0.201  -1.659   4.210  0.00  0.00    -0.294 OA
ATOM      5  C   UNL     1      -0.230   0.668   4.983  0.00  0.00    +0.133 C 
ATOM      6  C   UNL     1       1.086   1.421   5.242  0.00  0.00    +0.009 C 
ATOM      7  C   UNL     1       1.961   1.415   3.986  0.00  0.00    +0.010 C 
ATOM      8  C   UNL     1       1.191   1.980   2.796  0.00  0.00    +0.005 C 
ATOM      9  C   UNL     1      -0.013   1.076   2.509  0.00  0.00    +0.006 C 
ATOM     10  C   UNL     1      -0.941   1.096   3.721  0.00  0.00    +0.036 C 
ATOM     11  C   UNL     1      -2.120   0.154   3.449  0.00  0.00    +0.034 C 
ATOM     12  C   UNL     1      -2.793   0.555   2.168  0.00  0.00    -0.027 C 
ATOM     13  C   UNL     1      -2.174   1.176   1.207  0.00  0.00    -0.065 C 
ATOM     14  C   UNL     1      -0.731   1.580   1.267  0.00  0.00    -0.008 C 
ATOM     15  C   UNL     1      -0.013   1.086   0.008  0.00  0.00    +0.014 C 
ATOM     16  C   UNL     1      -0.754   1.593  -1.231  0.00  0.00    +0.032 C 
ATOM     17  C   UNL     1      -2.168   1.012  -1.261  0.00  0.00    +0.119 C 
ATOM     18  C   UNL     1      -2.956   1.521  -0.050  0.00  0.00    +0.062 C 
ATOM     19  C   UNL     1      -0.664   3.109   1.283  0.00  0.00    +0.016 C 
ATOM     20  C   UNL     1       0.844   2.834   5.777  0.00  0.00    +0.015 C 
ENDROOT
BRANCH   1  22
ATOM     21  C   UNL     1       2.149   0.056   8.713  0.00  0.00    +0.038 C 
ATOM     22  C   UNL     1       1.488   0.994   7.702  0.00  0.00    +0.116 C 
BRANCH  22  23
ATOM     23  O   UNL     1       1.996   2.318   7.876  0.00  0.00    -0.392 OA
ATOM     24  H   UNL     1       1.635   3.135   7.234  0.00  0.00    +0.210 HD
ENDBRANCH  22  23
ENDBRANCH   1  22
BRANCH  17  25
ATOM     25  O   UNL     1      -2.826   1.420  -2.462  0.00  0.00    -0.391 OA
ATOM     26  H   UNL     1      -3.858   1.096  -2.661  0.00  0.00    +0.210 HD
ENDBRANCH  17  25
BRANCH   5  27
ATOM     27  O   UNL     1      -1.095   0.877   6.101  0.00  0.00    -0.380 OA
ATOM     28  H   UNL     1      -1.509   1.877   6.296  0.00  0.00    +0.211 HD
ENDBRANCH   5  27
TORSDOF 4
