REMARK  Name = ZINC48399157
REMARK  8 active torsions:
REMARK  status: ('A' for Active; 'I' for Inactive)
REMARK    1  A    between atoms: C_1  and  C_2
REMARK    2  A    between atoms: C_7  and  N_8
REMARK    3  A    between atoms: N_8  and  C_9
REMARK    4  A    between atoms: C_9  and  C_11
REMARK    5  A    between atoms: C_9  and  C_12
REMARK    6  A    between atoms: N_17  and  C_18
REMARK    7  A    between atoms: C_18  and  C_19
REMARK    8  A    between atoms: C_18  and  C_20
REMARK                            x       y       z     vdW  Elec       q    Type
REMARK                         _______ _______ _______ _____ _____    ______ ____
ROOT
ATOM      1  C   UNL     1       0.047  -0.757   3.679  0.00  0.00    +0.154 C 
ATOM      2  C   UNL     1       1.492  -1.104   4.041  0.00  0.00    +0.038 C 
ENDROOT
BRANCH   1   3
ATOM      3  C   UNL     1      -0.555   0.091   4.769  0.00  0.00    +0.240 C 
ATOM      4  O   UNL     1      -0.962   1.204   4.517  0.00  0.00    -0.273 OA
ATOM      5  N   UNL     1      -0.640  -0.389   6.026  0.00  0.00    -0.239 N 
ATOM      6  C   UNL     1      -1.178   0.369   7.002  0.00  0.00    +0.306 C 
ATOM      7  O   UNL     1      -1.587   1.486   6.748  0.00  0.00    -0.252 OA
ATOM      8  N   UNL     1      -1.264  -0.110   8.258  0.00  0.00    -0.297 N 
ATOM      9  H   UNL     1      -0.315  -1.280   6.228  0.00  0.00    +0.159 HD
ATOM     10  H   UNL     1      -0.938  -1.001   8.460  0.00  0.00    +0.151 HD
BRANCH   8  11
ATOM     11  C   UNL     1      -1.849   0.714   9.319  0.00  0.00    +0.068 C 
ATOM     12  C   UNL     1      -3.370   0.552   9.310  0.00  0.00    +0.027 C 
ATOM     13  C   UNL     1      -1.297   0.269  10.674  0.00  0.00    +0.027 C 
ENDBRANCH   8  11
ENDBRANCH   1   3
BRANCH   1  14
ATOM     14  N   UNL     1       0.025  -0.016   2.415  0.00  0.00    -0.333 N 
ATOM     15  H   UNL     1       0.012   0.954   2.422  0.00  0.00    +0.147 HD
BRANCH  14  22
ATOM     16  C   UNL     1      -0.018   1.503   0.010  0.00  0.00    +0.045 C 
ATOM     17  C   UNL     1       0.002  -0.004   0.002  0.00  0.00    -0.029 A 
ATOM     18  C   UNL     1       0.006  -0.689  -1.198  0.00  0.00    +0.019 A 
ATOM     19  C   UNL     1       0.024  -2.072  -1.206  0.00  0.00    +0.014 A 
ATOM     20  C   UNL     1       0.039  -2.774  -0.014  0.00  0.00    +0.016 A 
ATOM     21  C   UNL     1       0.035  -2.095   1.189  0.00  0.00    +0.024 A 
ATOM     22  C   UNL     1       0.023  -0.706   1.200  0.00  0.00    +0.031 A 
ATOM     23  I   UNL     1       0.030  -3.106  -3.028  0.00  0.00    -0.044 I 
ENDBRANCH  14  22
ENDBRANCH   1  14
TORSDOF 4
