REMARK  Name = ZINC00846143
REMARK  6 active torsions:
REMARK  status: ('A' for Active; 'I' for Inactive)
REMARK    1  A    between atoms: C_1  and  C_2
REMARK    2  A    between atoms: C_2  and  C_30
REMARK    3  A    between atoms: C_8  and  C_19
REMARK    4  A    between atoms: C_16  and  C_17
REMARK    5  A    between atoms: C_16  and  C_18
REMARK    6  A    between atoms: C_28  and  O_29
REMARK                            x       y       z     vdW  Elec       q    Type
REMARK                         _______ _______ _______ _____ _____    ______ ____
ROOT
ATOM      1  C   UNL     1      -4.428  -1.671   0.871  0.00  0.00    -0.010 C 
ATOM      2  C   UNL     1      -4.079  -1.575   2.421  0.00  0.00    -0.069 C 
ATOM      3  C   UNL     1      -3.065  -0.422   2.602  0.00  0.00    +0.024 C 
ATOM      4  C   UNL     1      -2.814  -0.122   4.091  0.00  0.00    -0.027 A 
ATOM      5  C   UNL     1      -1.586   0.423   4.632  0.00  0.00    +0.055 A 
ATOM      6  C   UNL     1      -0.386   0.892   3.949  0.00  0.00    +0.168 A 
ATOM      7  N   UNL     1      -0.093   0.912   2.606  0.00  0.00    -0.206 NA
ATOM      8  C   UNL     1       1.156   1.490   2.559  0.00  0.00    +0.186 A 
ATOM      9  N   UNL     1       1.583   1.825   3.744  0.00  0.00    -0.143 NA
ATOM     10  N   UNL     1       0.619   1.426   4.674  0.00  0.00    -0.201 N 
ATOM     11  C   UNL     1       0.518   1.464   5.937  0.00  0.00    +0.226 A 
ATOM     12  N   UNL     1      -0.450   1.014   6.644  0.00  0.00    -0.228 NA
ATOM     13  C   UNL     1      -1.563   0.512   5.998  0.00  0.00    +0.114 A 
ATOM     14  S   UNL     1      -3.069  -0.152   6.557  0.00  0.00    -0.075 S 
ATOM     15  C   UNL     1      -3.761  -0.553   4.922  0.00  0.00    -0.016 A 
ATOM     16  C   UNL     1      -5.087  -1.153   4.636  0.00  0.00    -0.041 C 
ATOM     17  C   UNL     1      -6.195  -0.083   5.050  0.00  0.00    -0.005 C 
ATOM     18  C   UNL     1      -5.322  -2.408   5.380  0.00  0.00    -0.005 C 
ATOM     19  C   UNL     1      -3.310  -2.904   2.799  0.00  0.00    -0.010 C 
ATOM     20  N   UNL     1      -5.299  -1.346   3.189  0.00  0.00    +0.389 N 
ATOM     21  H   UNL     1      -5.915  -2.157   3.061  0.00  0.00    -0.084 HD
ATOM     22  H   UNL     1      -5.758  -0.506   2.817  0.00  0.00    -0.084 HD
ENDROOT
BRANCH   8  23
ATOM     23  C   UNL     1       1.863   1.823   1.218  0.00  0.00    +0.063 A 
ATOM     24  C   UNL     1       3.120   2.397   1.231  0.00  0.00    +0.023 A 
ATOM     25  C   UNL     1       3.754   2.701   0.016  0.00  0.00    -0.017 A 
ATOM     26  C   UNL     1       5.030   3.292  -0.009  0.00  0.00    +0.008 A 
ATOM     27  C   UNL     1       5.618   3.575  -1.203  0.00  0.00    +0.001 A 
ATOM     28  C   UNL     1       4.974   3.289  -2.406  0.00  0.00    +0.001 A 
ATOM     29  C   UNL     1       3.738   2.718  -2.421  0.00  0.00    +0.008 A 
ATOM     30  C   UNL     1       3.098   2.410  -1.208  0.00  0.00    -0.014 A 
ATOM     31  C   UNL     1       1.823   1.821  -1.191  0.00  0.00    +0.054 A 
ATOM     32  C   UNL     1       1.222   1.532  -0.001  0.00  0.00    +0.128 A 
BRANCH  32  33
ATOM     33  O   UNL     1      -0.011   0.963   0.007  0.00  0.00    -0.506 OA
ATOM     34  H   UNL     1       0.002  -0.004   0.002  0.00  0.00    +0.292 HD
ENDBRANCH  32  33
ENDBRANCH   8  23
TORSDOF 2
