REMARK  Name = ZINC44934408
REMARK  5 active torsions:
REMARK  status: ('A' for Active; 'I' for Inactive)
REMARK    1  A    between atoms: C_1  and  C_2
REMARK    2  A    between atoms: C_2  and  N_9
REMARK    3  A    between atoms: N_9  and  S_10
REMARK    4  A    between atoms: S_10  and  C_13
REMARK    5  A    between atoms: N_19  and  N_20
REMARK                            x       y       z     vdW  Elec       q    Type
REMARK                         _______ _______ _______ _____ _____    ______ ____
ROOT
ATOM      1  S   UNL     1       0.358  -0.145  -2.675  0.00  0.00    +0.062 S 
ATOM      2  O   UNL     1       1.162  -0.893  -3.578  0.00  0.00    -0.153 OA
ATOM      3  O   UNL     1      -1.061  -0.207  -2.689  0.00  0.00    -0.153 OA
ENDROOT
BRANCH   1   4
ATOM      4  C   UNL     1       0.790   1.548  -2.899  0.00  0.00    +0.141 A 
ATOM      5  C   UNL     1      -0.150   2.549  -2.714  0.00  0.00    +0.144 A 
ATOM      6  N   UNL     1       0.207   3.811  -2.890  0.00  0.00    -0.220 NA
ATOM      7  C   UNL     1       1.447   4.121  -3.240  0.00  0.00    +0.229 A 
ATOM      8  N   UNL     1       2.369   3.188  -3.425  0.00  0.00    -0.220 NA
ATOM      9  C   UNL     1       2.080   1.908  -3.259  0.00  0.00    +0.144 A 
ATOM     10  N   UNL     1       1.787   5.451  -3.415  0.00  0.00    -0.252 N 
ATOM     11  H   UNL     1       1.120   6.143  -3.283  0.00  0.00    +0.169 HD
BRANCH  10  12
ATOM     12  N   UNL     1       3.060   5.789  -3.776  0.00  0.00    -0.254 NA
ATOM     13  H   UNL     1       3.331   5.321  -4.628  0.00  0.00    +0.140 HD
ATOM     14  H   UNL     1       3.157   6.789  -3.866  0.00  0.00    +0.140 HD
ENDBRANCH  10  12
ENDBRANCH   1   4
BRANCH   1  15
ATOM     15  N   UNL     1       0.836  -0.575  -1.149  0.00  0.00    -0.182 NA
ATOM     16  H   UNL     1       1.514  -1.258  -1.028  0.00  0.00    +0.149 HD
BRANCH  15  18
ATOM     17  C   UNL     1      -1.286   0.037  -0.130  0.00  0.00    +0.031 C 
ATOM     18  C   UNL     1       0.236   0.077   0.017  0.00  0.00    +0.058 C 
ATOM     19  C   UNL     1       0.627  -0.709   1.268  0.00  0.00    +0.047 C 
ATOM     20  C   UNL     1       1.953  -0.153   1.860  0.00  0.00    +0.168 C 
ATOM     21  S   UNL     1       1.671   1.654   1.604  0.00  0.00    -0.029 S 
ATOM     22  O   UNL     1       2.914   2.286   1.330  0.00  0.00    -0.174 OA
ATOM     23  O   UNL     1       0.844   2.151   2.647  0.00  0.00    -0.174 OA
ATOM     24  C   UNL     1       0.691   1.549   0.049  0.00  0.00    +0.189 C 
ENDBRANCH  15  18
ENDBRANCH   1  15
TORSDOF 4
