REMARK  Name = ZINC29001120
REMARK  12 active torsions:
REMARK  status: ('A' for Active; 'I' for Inactive)
REMARK    1  A    between atoms: C_1  and  C_2
REMARK    2  A    between atoms: C_2  and  C_3
REMARK    3  A    between atoms: C_3  and  N_4
REMARK    4  A    between atoms: N_4  and  C_5
REMARK    5  A    between atoms: C_5  and  N_7
REMARK    6  A    between atoms: N_7  and  N_8
REMARK    7  A    between atoms: C_9  and  C_11
REMARK    8  A    between atoms: C_11  and  C_12
REMARK    9  A    between atoms: C_13  and  C_26
REMARK   10  A    between atoms: C_16  and  C_17
REMARK   11  A    between atoms: C_20  and  C_25
REMARK   12  A    between atoms: C_22  and  C_24
REMARK                            x       y       z     vdW  Elec       q    Type
REMARK                         _______ _______ _______ _____ _____    ______ ____
ROOT
ATOM      1  C   UNL     1      -0.765   7.221   0.046  0.00  0.00    +0.005 A 
ATOM      2  C   UNL     1       0.635   7.227   0.033  0.00  0.00    +0.064 A 
ATOM      3  N   UNL     1       1.053   5.987   0.029  0.00  0.00    -0.169 NA
ATOM      4  N   UNL     1      -0.068   5.146   0.029  0.00  0.00    -0.202 N 
ATOM      5  C   UNL     1      -1.177   5.932   0.043  0.00  0.00    +0.049 A 
ATOM      6  C   UNL     1      -2.606   5.455   0.053  0.00  0.00    +0.066 C 
ATOM      7  C   UNL     1      -0.049   3.752   0.022  0.00  0.00    +0.252 A 
ATOM      8  N   UNL     1       1.115   3.122   0.008  0.00  0.00    -0.216 NA
ATOM      9  C   UNL     1       1.169   1.801   0.001  0.00  0.00    +0.044 A 
ATOM     10  C   UNL     1      -0.013   1.076   0.008  0.00  0.00    +0.046 A 
ATOM     11  C   UNL     1      -1.214   1.768   0.017  0.00  0.00    +0.044 A 
ATOM     12  N   UNL     1      -1.195   3.091   0.030  0.00  0.00    -0.216 NA
ATOM     13  C   UNL     1      -2.523   1.023   0.020  0.00  0.00    +0.066 C 
ATOM     14  C   UNL     1       2.499   1.092  -0.015  0.00  0.00    +0.066 C 
ATOM     15  C   UNL     1       1.512   8.453   0.030  0.00  0.00    +0.068 C 
ENDROOT
BRANCH   1  16
ATOM     16  C   UNL     1      -1.656   8.436   0.061  0.00  0.00    +0.136 C 
BRANCH  16  18
ATOM     17  N   UNL     1      -2.721   9.900   1.746  0.00  0.00    -0.235 N 
ATOM     18  C   UNL     1      -1.940   8.833   1.486  0.00  0.00    +0.233 C 
ATOM     19  O   UNL     1      -1.464   8.193   2.400  0.00  0.00    -0.274 OA
ATOM     20  H   UNL     1      -3.152  10.481   0.917  0.00  0.00    +0.173 HD
BRANCH  17  21
ATOM     21  N   UNL     1      -2.984  10.270   3.071  0.00  0.00    -0.246 N 
ATOM     22  H   UNL     1      -2.553   9.690   3.900  0.00  0.00    +0.172 HD
BRANCH  21  23
ATOM     23  C   UNL     1      -3.765  11.338   3.330  0.00  0.00    +0.147 C 
ATOM     24  S   UNL     1      -4.087  11.789   4.950  0.00  0.00    -0.017 S 
BRANCH  23  25
ATOM     25  N   UNL     1      -4.293  12.049   2.315  0.00  0.00    -0.325 N 
ATOM     26  H   UNL     1      -4.087  11.759   1.274  0.00  0.00    +0.148 HD
BRANCH  25  27
ATOM     27  C   UNL     1      -5.143  13.209   2.597  0.00  0.00    +0.103 C 
BRANCH  27  29
ATOM     28  C   UNL     1      -6.495  15.044   1.574  0.00  0.00    +0.005 C 
ATOM     29  C   UNL     1      -5.608  13.832   1.279  0.00  0.00    +0.015 C 
ENDBRANCH  27  29
ENDBRANCH  25  27
ENDBRANCH  23  25
ENDBRANCH  21  23
ENDBRANCH  17  21
ENDBRANCH  16  18
ENDBRANCH   1  16
TORSDOF 7
