REMARK  Name = ZINC39455901
REMARK  9 active torsions:
REMARK  status: ('A' for Active; 'I' for Inactive)
REMARK    1  A    between atoms: C_1  and  C_2
REMARK    2  A    between atoms: C_2  and  O_3
REMARK    3  A    between atoms: O_3  and  C_4
REMARK    4  A    between atoms: C_20  and  S_21
REMARK    5  A    between atoms: S_21  and  C_24
REMARK    6  A    between atoms: C_24  and  C_25
REMARK    7  A    between atoms: C_24  and  C_26
REMARK    8  A    between atoms: N_29  and  C_30
REMARK    9  A    between atoms: C_30  and  C_31
REMARK                            x       y       z     vdW  Elec       q    Type
REMARK                         _______ _______ _______ _____ _____    ______ ____
ROOT
ATOM      1  C   UNL     1       1.169  -1.825   1.189  0.00  0.00    +0.211 C 
ATOM      2  C   UNL     1       1.614  -2.243   2.595  0.00  0.00    +0.132 C 
ATOM      3  C   UNL     1       1.761  -3.741   2.647  0.00  0.00    +0.185 C 
ATOM      4  O   UNL     1       1.570  -4.329   3.693  0.00  0.00    -0.290 OA
ATOM      5  C   UNL     1       2.120  -4.471   1.490  0.00  0.00    +0.111 A 
ATOM      6  C   UNL     1       2.280  -3.813   0.287  0.00  0.00    +0.083 A 
ATOM      7  C   UNL     1       2.660  -4.570  -0.919  0.00  0.00    +0.100 A 
ATOM      8  C   UNL     1       2.840  -5.973  -0.794  0.00  0.00    +0.067 A 
ATOM      9  C   UNL     1       3.196  -6.733  -1.898  0.00  0.00    +0.027 A 
ATOM     10  C   UNL     1       3.366  -6.069  -3.123  0.00  0.00    +0.026 A 
ATOM     11  C   UNL     1       3.164  -4.619  -3.176  0.00  0.00    +0.074 A 
ATOM     12  N   UNL     1       2.823  -3.952  -2.074  0.00  0.00    -0.245 NA
ATOM     13  C   UNL     1       3.339  -3.961  -4.408  0.00  0.00    +0.028 A 
ATOM     14  C   UNL     1       3.685  -4.680  -5.510  0.00  0.00    +0.004 A 
ATOM     15  C   UNL     1       3.875  -6.058  -5.456  0.00  0.00    +0.028 A 
ATOM     16  C   UNL     1       3.722  -6.754  -4.296  0.00  0.00    +0.098 A 
ATOM     17  C   UNL     1       2.643  -6.599   0.523  0.00  0.00    +0.261 A 
ATOM     18  O   UNL     1       2.792  -7.800   0.654  0.00  0.00    -0.267 OA
ATOM     19  N   UNL     1       2.300  -5.846   1.583  0.00  0.00    -0.299 N 
ATOM     20  N   UNL     1       2.078  -2.448   0.214  0.00  0.00    -0.315 N 
ATOM     21  H   UNL     1       2.524  -1.914  -0.462  0.00  0.00    +0.149 HD
ENDROOT
BRANCH  16  22
ATOM     22  S   UNL     1       3.971  -8.498  -4.266  0.00  0.00    -0.000 S 
ATOM     23  O   UNL     1       2.806  -9.020  -3.641  0.00  0.00    -0.169 OA
ATOM     24  O   UNL     1       4.289  -8.842  -5.607  0.00  0.00    -0.169 OA
BRANCH  22  25
ATOM     25  C   UNL     1       5.416  -8.745  -3.198  0.00  0.00    +0.130 C 
ATOM     26  C   UNL     1       5.803 -10.225  -3.197  0.00  0.00    +0.032 C 
ATOM     27  C   UNL     1       6.587  -7.912  -3.724  0.00  0.00    +0.032 C 
ENDBRANCH  22  25
ENDBRANCH  16  22
BRANCH   1  28
ATOM     28  O   UNL     1       1.233  -0.403   1.066  0.00  0.00    -0.359 OA
BRANCH  28  30
ATOM     29  C   UNL     1       0.677   1.638  -0.103  0.00  0.00    +0.034 C 
ATOM     30  C   UNL     1       0.542   0.114  -0.073  0.00  0.00    +0.159 C 
ENDBRANCH  28  30
ENDBRANCH   1  28
BRANCH  19  31
ATOM     31  C   UNL     1       2.108  -6.499   2.881  0.00  0.00    +0.160 C 
BRANCH  31  32
ATOM     32  C   UNL     1       3.414  -6.516   3.632  0.00  0.00    -0.028 A 
ATOM     33  C   UNL     1       4.350  -7.498   3.369  0.00  0.00    +0.005 A 
ATOM     34  C   UNL     1       5.548  -7.514   4.058  0.00  0.00    +0.000 A 
ATOM     35  C   UNL     1       5.811  -6.547   5.011  0.00  0.00    +0.000 A 
ATOM     36  C   UNL     1       4.875  -5.565   5.274  0.00  0.00    +0.000 A 
ATOM     37  C   UNL     1       3.678  -5.546   4.582  0.00  0.00    +0.005 A 
ENDBRANCH  31  32
ENDBRANCH  19  31
TORSDOF 6
