REMARK  Name = ZINC32722823
REMARK  7 active torsions:
REMARK  status: ('A' for Active; 'I' for Inactive)
REMARK    1  A    between atoms: C_1  and  C_2
REMARK    2  A    between atoms: C_5  and  C_29
REMARK    3  A    between atoms: C_6  and  N_8
REMARK    4  A    between atoms: C_9  and  C_22
REMARK    5  A    between atoms: C_12  and  S_13
REMARK    6  A    between atoms: S_13  and  C_14
REMARK    7  A    between atoms: C_14  and  C_15
REMARK                            x       y       z     vdW  Elec       q    Type
REMARK                         _______ _______ _______ _____ _____    ______ ____
ROOT
ATOM      1  N   UNL     1      -0.032   0.013  -2.415  0.00  0.00    -0.270 N 
ATOM      2  C   UNL     1      -1.145   0.417  -3.119  0.00  0.00    +0.171 A 
ATOM      3  N   UNL     1      -0.716   1.044  -4.190  0.00  0.00    -0.128 NA
ATOM      4  N   UNL     1       0.569   1.060  -4.205  0.00  0.00    -0.122 NA
ATOM      5  C   UNL     1       1.042   0.449  -3.142  0.00  0.00    +0.197 A 
ENDROOT
BRANCH   1  11
ATOM      6  C   UNL     1       0.057  -4.280  -0.015  0.00  0.00    +0.044 C 
ATOM      7  C   UNL     1       0.038  -2.773  -0.012  0.00  0.00    -0.048 A 
ATOM      8  C   UNL     1       0.041  -2.084   1.187  0.00  0.00    +0.004 A 
ATOM      9  C   UNL     1       0.023  -0.702   1.194  0.00  0.00    +0.005 A 
ATOM     10  C   UNL     1       0.002  -0.004   0.002  0.00  0.00    -0.026 A 
ATOM     11  C   UNL     1      -0.006  -0.692  -1.203  0.00  0.00    +0.054 A 
ATOM     12  C   UNL     1       0.018  -2.081  -1.207  0.00  0.00    +0.030 A 
ATOM     13  C   UNL     1      -0.018   1.503   0.010  0.00  0.00    +0.046 C 
ENDBRANCH   1  11
BRANCH   2  14
ATOM     14  C   UNL     1      -2.555   0.189  -2.741  0.00  0.00    +0.038 A 
ATOM     15  C   UNL     1      -2.864  -0.502  -1.568  0.00  0.00    +0.013 A 
ATOM     16  C   UNL     1      -4.182  -0.707  -1.218  0.00  0.00    +0.001 A 
ATOM     17  C   UNL     1      -5.199  -0.239  -2.031  0.00  0.00    +0.001 A 
ATOM     18  C   UNL     1      -4.902   0.443  -3.197  0.00  0.00    +0.021 A 
ATOM     19  C   UNL     1      -3.586   0.660  -3.558  0.00  0.00    +0.052 A 
ATOM     20 CL   UNL     1      -3.214   1.516  -5.021  0.00  0.00    -0.083 Cl
ENDBRANCH   2  14
BRANCH   5  21
ATOM     21  S   UNL     1       2.741   0.229  -2.732  0.00  0.00    -0.082 S 
BRANCH  21  22
ATOM     22  C   UNL     1       3.515   1.059  -4.141  0.00  0.00    +0.123 C 
BRANCH  22  23
ATOM     23  C   UNL     1       5.037   0.993  -3.999  0.00  0.00    +0.205 C 
ATOM     24  C   UNL     1       5.721   1.736  -5.164  0.00  0.00    +0.153 C 
ATOM     25  N   UNL     1       6.473   2.811  -4.500  0.00  0.00    -0.278 N 
ATOM     26  C   UNL     1       6.275   2.727  -3.177  0.00  0.00    +0.401 C 
ATOM     27  O   UNL     1       6.778   3.494  -2.381  0.00  0.00    -0.226 OA
ATOM     28  O   UNL     1       5.471   1.718  -2.812  0.00  0.00    -0.445 OA
ATOM     29  H   UNL     1       7.070   3.515  -5.098  0.00  0.00    +0.152 HD
ENDBRANCH  22  23
ENDBRANCH  21  22
ENDBRANCH   5  21
TORSDOF 5
