REMARK  Name = ZINC09829590
REMARK  8 active torsions:
REMARK  status: ('A' for Active; 'I' for Inactive)
REMARK    1  A    between atoms: C_3  and  C_6
REMARK    2  A    between atoms: C_6  and  C_8
REMARK    3  A    between atoms: C_6  and  N_21
REMARK    4  A    between atoms: C_8  and  N_9
REMARK    5  A    between atoms: C_10  and  C_12
REMARK    6  A    between atoms: N_14  and  C_15
REMARK    7  A    between atoms: C_15  and  C_16
REMARK    8  A    between atoms: N_24  and  C_27
REMARK                            x       y       z     vdW  Elec       q    Type
REMARK                         _______ _______ _______ _____ _____    ______ ____
ROOT
ATOM      1  C   UNL     1       3.609   0.629   0.011  0.00  0.00    +0.017 C 
ENDROOT
BRANCH   1   2
ATOM      2  N   UNL     1       3.995  -0.441   0.940  0.00  0.00    +0.389 N 
ATOM      3  C   UNL     1       3.469  -1.723   0.453  0.00  0.00    -0.059 C 
ATOM      4  C   UNL     1       3.966  -2.855   1.358  0.00  0.00    +0.086 C 
ATOM      5  N   UNL     1       3.600  -2.537   2.747  0.00  0.00    -0.333 N 
ATOM      6  C   UNL     1       3.946  -1.205   3.267  0.00  0.00    +0.086 C 
ATOM      7  C   UNL     1       3.449  -0.151   2.272  0.00  0.00    -0.059 C 
ATOM      8  H   UNL     1       5.001  -0.492   0.994  0.00  0.00    -0.081 HD
BRANCH   5   9
ATOM      9  C   UNL     1       2.942  -3.474   3.550  0.00  0.00    +0.030 A 
ATOM     10  C   UNL     1       2.744  -4.768   3.087  0.00  0.00    +0.026 A 
ATOM     11  C   UNL     1       2.094  -5.692   3.882  0.00  0.00    +0.040 A 
ATOM     12  C   UNL     1       1.641  -5.329   5.139  0.00  0.00    +0.124 A 
ATOM     13  C   UNL     1       1.839  -4.039   5.602  0.00  0.00    +0.040 A 
ATOM     14  C   UNL     1       2.492  -3.113   4.813  0.00  0.00    +0.026 A 
ATOM     15  F   UNL     1       1.006  -6.234   5.915  0.00  0.00    -0.205 F 
ENDBRANCH   5   9
ENDBRANCH   1   2
BRANCH   1  18
ATOM     16  C   UNL     1       0.051   1.589   0.034  0.00  0.00    +0.041 A 
ATOM     17  C   UNL     1       1.424   1.922   0.084  0.00  0.00    +0.043 A 
ATOM     18  C   UNL     1       2.108   0.767  -0.002  0.00  0.00    +0.093 A 
ATOM     19  O   UNL     1       1.228  -0.242  -0.101  0.00  0.00    -0.469 OA
ATOM     20  C   UNL     1      -0.022   0.250  -0.079  0.00  0.00    +0.195 A 
ENDBRANCH   1  18
BRANCH   1  21
ATOM     21  C   UNL     1       4.101   0.284  -1.397  0.00  0.00    +0.097 C 
BRANCH  21  22
ATOM     22  N   UNL     1       5.545   0.041  -1.363  0.00  0.00    -0.309 N 
ATOM     23  C   UNL     1       6.183  -0.383  -2.472  0.00  0.00    +0.299 C 
ATOM     24  O   UNL     1       5.561  -0.562  -3.499  0.00  0.00    -0.265 OA
ATOM     25  H   UNL     1       6.042   0.184  -0.543  0.00  0.00    +0.149 HD
BRANCH  23  26
ATOM     26  C   UNL     1       7.656  -0.631  -2.438  0.00  0.00    +0.299 C 
ATOM     27  O   UNL     1       8.278  -0.452  -1.411  0.00  0.00    -0.265 OA
ATOM     28  N   UNL     1       8.294  -1.055  -3.547  0.00  0.00    -0.303 N 
ATOM     29  H   UNL     1       7.797  -1.198  -4.368  0.00  0.00    +0.149 HD
BRANCH  28  30
ATOM     30  C   UNL     1       9.739  -1.299  -3.514  0.00  0.00    +0.147 C 
BRANCH  30  31
ATOM     31  C   UNL     1      10.202  -1.761  -4.871  0.00  0.00    +0.007 A 
ATOM     32  C   UNL     1      10.644  -1.024  -5.919  0.00  0.00    +0.013 A 
ATOM     33  C   UNL     1      11.022  -1.670  -7.081  0.00  0.00    +0.008 A 
ATOM     34  C   UNL     1      10.939  -3.022  -7.138  0.00  0.00    +0.045 A 
ATOM     35  S   UNL     1      10.317  -3.423  -5.514  0.00  0.00    -0.100 S 
ENDBRANCH  30  31
ENDBRANCH  28  30
ENDBRANCH  23  26
ENDBRANCH  21  22
ENDBRANCH   1  21
TORSDOF 8
