REMARK  Name = ZINC47128517
REMARK  10 active torsions:
REMARK  status: ('A' for Active; 'I' for Inactive)
REMARK    1  A    between atoms: C_1  and  C_2
REMARK    2  A    between atoms: C_2  and  C_4
REMARK    3  A    between atoms: C_2  and  C_26
REMARK    4  A    between atoms: C_4  and  N_5
REMARK    5  A    between atoms: N_5  and  C_6
REMARK    6  A    between atoms: N_9  and  C_10
REMARK    7  A    between atoms: C_10  and  C_12
REMARK    8  A    between atoms: C_10  and  C_13
REMARK    9  A    between atoms: C_16  and  N_19
REMARK   10  A    between atoms: N_22  and  C_23
REMARK                            x       y       z     vdW  Elec       q    Type
REMARK                         _______ _______ _______ _____ _____    ______ ____
ROOT
ATOM      1  C   UNL     1      -2.961  -1.206  -6.006  0.00  0.00    -0.027 A 
ATOM      2  C   UNL     1      -3.127   0.093  -6.449  0.00  0.00    +0.007 A 
ATOM      3  C   UNL     1      -3.309   0.347  -7.795  0.00  0.00    +0.023 A 
ATOM      4  C   UNL     1      -3.327  -0.704  -8.702  0.00  0.00    +0.035 A 
ATOM      5  C   UNL     1      -3.160  -2.007  -8.253  0.00  0.00    +0.023 A 
ATOM      6  C   UNL     1      -2.972  -2.254  -6.908  0.00  0.00    +0.007 A 
ENDROOT
BRANCH   4   7
ATOM      7  N   UNL     1      -3.513  -0.450 -10.066  0.00  0.00    -0.269 N 
ATOM      8  C   UNL     1      -3.029   0.683 -10.612  0.00  0.00    +0.304 C 
ATOM      9  O   UNL     1      -2.349   1.439  -9.944  0.00  0.00    -0.253 OA
ATOM     10  N   UNL     1      -3.299   0.980 -11.899  0.00  0.00    -0.296 N 
ATOM     11  H   UNL     1      -3.989  -1.089 -10.618  0.00  0.00    +0.156 HD
ATOM     12  H   UNL     1      -3.841   0.377 -12.432  0.00  0.00    +0.151 HD
BRANCH  10  13
ATOM     13  C   UNL     1      -2.774   2.212 -12.493  0.00  0.00    +0.075 C 
ATOM     14  C   UNL     1      -3.723   3.036 -13.365  0.00  0.00    +0.024 C 
ATOM     15  C   UNL     1      -2.587   2.240 -14.011  0.00  0.00    +0.024 C 
ENDBRANCH  10  13
ENDBRANCH   4   7
BRANCH   1  16
ATOM     16  C   UNL     1      -2.762  -1.479  -4.537  0.00  0.00    +0.102 C 
ATOM     17  C   UNL     1      -4.116  -1.455  -3.826  0.00  0.00    +0.033 C 
BRANCH  16  22
ATOM     18  N   UNL     1      -0.366   0.224  -2.329  0.00  0.00    -0.287 N 
ATOM     19  C   UNL     1      -0.278   1.545  -2.957  0.00  0.00    +0.133 C 
ATOM     20  C   UNL     1      -1.168  -0.721  -2.857  0.00  0.00    +0.302 C 
ATOM     21  O   UNL     1      -1.240  -1.817  -2.336  0.00  0.00    -0.253 OA
ATOM     22  N   UNL     1      -1.890  -0.452  -3.963  0.00  0.00    -0.293 N 
ATOM     23  H   UNL     1      -1.832   0.423  -4.379  0.00  0.00    +0.151 HD
BRANCH  18  24
ATOM     24  C   UNL     1       0.419  -0.069  -1.127  0.00  0.00    +0.127 C 
BRANCH  24  26
ATOM     25  C   UNL     1      -0.636   1.804   0.146  0.00  0.00    +0.025 C 
ATOM     26  C   UNL     1      -0.397   0.293   0.115  0.00  0.00    +0.106 C 
BRANCH  26  27
ATOM     27  C   UNL     1       0.341  -0.112   1.323  0.00  0.00    +0.067 C 
ATOM     28  N   UNL     1       0.911  -0.424   2.254  0.00  0.00    -0.196 NA
ENDBRANCH  26  27
ENDBRANCH  24  26
ENDBRANCH  18  24
ENDBRANCH  16  22
ENDBRANCH   1  16
TORSDOF 7
