REMARK  Name = ZINC53014646
REMARK  9 active torsions:
REMARK  status: ('A' for Active; 'I' for Inactive)
REMARK    1  A    between atoms: C_1  and  C_2
REMARK    2  A    between atoms: C_6  and  C_28
REMARK    3  A    between atoms: C_7  and  O_8
REMARK    4  A    between atoms: O_8  and  C_9
REMARK    5  A    between atoms: N_12  and  C_15
REMARK    6  A    between atoms: C_15  and  C_17
REMARK    7  A    between atoms: C_15  and  C_18
REMARK    8  A    between atoms: N_24  and  C_25
REMARK    9  A    between atoms: N_24  and  C_26
REMARK                            x       y       z     vdW  Elec       q    Type
REMARK                         _______ _______ _______ _____ _____    ______ ____
ROOT
ATOM      1  C   UNL     1      -1.493   0.003   2.975  0.00  0.00    +0.176 C 
ATOM      2  C   UNL     1      -1.778  -1.267   3.783  0.00  0.00    +0.060 C 
ATOM      3  C   UNL     1      -3.153  -1.148   4.443  0.00  0.00    +0.088 C 
ATOM      4  N   UNL     1      -3.175   0.028   5.322  0.00  0.00    -0.293 NA
ATOM      5  C   UNL     1      -2.952   1.264   4.562  0.00  0.00    +0.088 C 
ATOM      6  C   UNL     1      -1.571   1.217   3.905  0.00  0.00    +0.060 C 
ENDROOT
BRANCH   4   7
ATOM      7  C   UNL     1      -4.433   0.095   6.079  0.00  0.00    +0.122 C 
ATOM      8  C   UNL     1      -4.580  -1.163   6.938  0.00  0.00    +0.032 C 
BRANCH   7   9
ATOM      9  C   UNL     1      -4.419   1.312   6.968  0.00  0.00    +0.153 A 
ATOM     10  N   UNL     1      -3.340   1.601   7.673  0.00  0.00    -0.198 NA
ATOM     11  C   UNL     1      -3.324   2.675   8.460  0.00  0.00    +0.217 A 
ATOM     12  N   UNL     1      -4.395   3.457   8.535  0.00  0.00    -0.181 NA
ATOM     13  C   UNL     1      -5.479   3.163   7.824  0.00  0.00    +0.222 A 
ATOM     14  N   UNL     1      -5.485   2.090   7.037  0.00  0.00    -0.198 NA
ATOM     15  N   UNL     1      -6.594   3.972   7.899  0.00  0.00    -0.306 N 
ATOM     16  C   UNL     1      -6.584   5.155   8.763  0.00  0.00    +0.132 C 
ATOM     17  C   UNL     1      -7.789   3.647   7.116  0.00  0.00    +0.132 C 
ATOM     18  N   UNL     1      -2.196   2.975   9.196  0.00  0.00    -0.327 N 
ATOM     19  H   UNL     1      -1.414   2.404   9.141  0.00  0.00    +0.145 HD
ATOM     20  H   UNL     1      -2.185   3.758   9.768  0.00  0.00    +0.145 HD
ENDBRANCH   7   9
ENDBRANCH   4   7
BRANCH   1  21
ATOM     21  O   UNL     1      -0.187  -0.078   2.403  0.00  0.00    -0.488 OA
BRANCH  21  28
ATOM     22  C   UNL     1       0.529  -2.811   2.367  0.00  0.00    +0.047 C 
ATOM     23  C   UNL     1       0.267  -2.022   1.109  0.00  0.00    -0.009 A 
ATOM     24  C   UNL     1       0.368  -2.635  -0.124  0.00  0.00    +0.007 A 
ATOM     25  C   UNL     1       0.128  -1.913  -1.279  0.00  0.00    +0.001 A 
ATOM     26  C   UNL     1      -0.213  -0.575  -1.201  0.00  0.00    +0.007 A 
ATOM     27  C   UNL     1      -0.315   0.043   0.030  0.00  0.00    -0.009 A 
ATOM     28  C   UNL     1      -0.081  -0.682   1.190  0.00  0.00    +0.127 A 
ATOM     29  C   UNL     1      -0.687   1.500   0.114  0.00  0.00    +0.047 C 
ENDBRANCH  21  28
ENDBRANCH   1  21
TORSDOF 4
