REMARK  Name = ZINC48155871
REMARK  6 active torsions:
REMARK  status: ('A' for Active; 'I' for Inactive)
REMARK    1  A    between atoms: C_1  and  C_2
REMARK    2  A    between atoms: N_6  and  C_31
REMARK    3  A    between atoms: N_9  and  C_10
REMARK    4  A    between atoms: C_10  and  C_11
REMARK    5  A    between atoms: C_14  and  C_17
REMARK    6  A    between atoms: C_23  and  C_25
REMARK                            x       y       z     vdW  Elec       q    Type
REMARK                         _______ _______ _______ _____ _____    ______ ____
ROOT
ATOM      1  C   UNL     1       0.690  -0.572   3.624  0.00  0.00    -0.064 A 
ATOM      2  C   UNL     1       0.571  -1.850   4.142  0.00  0.00    +0.002 A 
ATOM      3  C   UNL     1       1.281  -2.210   5.269  0.00  0.00    +0.012 A 
ATOM      4  C   UNL     1       2.121  -1.281   5.886  0.00  0.00    +0.017 A 
ATOM      5  C   UNL     1       2.237   0.006   5.358  0.00  0.00    +0.012 A 
ATOM      6  C   UNL     1       1.525   0.351   4.228  0.00  0.00    +0.002 A 
ENDROOT
BRANCH   4   7
ATOM      7  C   UNL     1       2.885  -1.659   7.094  0.00  0.00    +0.141 A 
ATOM      8  N   UNL     1       3.695  -0.737   7.686  0.00  0.00    -0.307 N 
ATOM      9  H   UNL     1       3.766   0.155   7.314  0.00  0.00    +0.170 HD
ATOM     10  C   UNL     1       4.399  -1.065   8.790  0.00  0.00    +0.252 A 
ATOM     11  O   UNL     1       5.128  -0.247   9.328  0.00  0.00    -0.268 OA
ATOM     12  C   UNL     1       4.278  -2.367   9.309  0.00  0.00    +0.098 A 
ATOM     13  C   UNL     1       3.440  -3.263   8.667  0.00  0.00    +0.079 A 
ATOM     14  N   UNL     1       2.763  -2.876   7.577  0.00  0.00    -0.229 NA
BRANCH  13  15
ATOM     15  C   UNL     1       3.288  -4.644   9.186  0.00  0.00    +0.003 A 
ATOM     16  C   UNL     1       3.977  -5.061  10.328  0.00  0.00    +0.030 A 
ATOM     17  C   UNL     1       3.806  -6.356  10.778  0.00  0.00    +0.111 A 
ATOM     18  N   UNL     1       3.006  -7.192  10.146  0.00  0.00    -0.263 NA
ATOM     19  C   UNL     1       2.337  -6.838   9.066  0.00  0.00    +0.111 A 
ATOM     20  C   UNL     1       2.446  -5.561   8.551  0.00  0.00    +0.030 A 
ENDBRANCH  13  15
ENDBRANCH   4   7
BRANCH   1  21
ATOM     21  C   UNL     1      -0.089  -0.186   2.393  0.00  0.00    -0.042 C 
BRANCH  21  29
ATOM     22  C   UNL     1      -0.019   1.526   0.010  0.00  0.00    -0.004 C 
ATOM     23  C   UNL     1       0.002  -0.004   0.002  0.00  0.00    +0.017 C 
ATOM     24  C   UNL     1       0.700  -0.486  -1.238  0.00  0.00    +0.201 C 
ATOM     25  O   UNL     1       0.470   0.073  -2.289  0.00  0.00    -0.277 OA
ATOM     26  N   UNL     1       1.565  -1.507  -1.230  0.00  0.00    -0.308 N 
ATOM     27  C   UNL     1       1.925  -2.223  -0.009  0.00  0.00    +0.089 C 
ATOM     28  C   UNL     1       0.891  -1.943   1.083  0.00  0.00    -0.058 C 
ATOM     29  N   UNL     1       0.707  -0.488   1.196  0.00  0.00    +0.391 N 
ATOM     30  C   UNL     1       2.174  -1.923  -2.495  0.00  0.00    +0.132 C 
ATOM     31  H   UNL     1       1.607  -0.036   1.263  0.00  0.00    -0.080 HD
ENDBRANCH  21  29
ENDBRANCH   1  21
TORSDOF 4
