REMARK  Name = ZINC14473283
REMARK  4 active torsions:
REMARK  status: ('A' for Active; 'I' for Inactive)
REMARK    1  A    between atoms: C_1  and  N_2
REMARK    2  A    between atoms: C_3  and  C_5
REMARK    3  A    between atoms: C_12  and  C_21
REMARK    4  A    between atoms: C_23  and  N_28
REMARK                            x       y       z     vdW  Elec       q    Type
REMARK                         _______ _______ _______ _____ _____    ______ ____
ROOT
ATOM      1  C   UNL     1      -1.582   6.508  -1.586  0.00  0.00    +0.058 A 
ATOM      2  C   UNL     1      -2.966   6.396  -1.704  0.00  0.00    +0.015 A 
ATOM      3  C   UNL     1      -3.607   5.259  -1.265  0.00  0.00    +0.001 A 
ATOM      4  C   UNL     1      -2.874   4.229  -0.700  0.00  0.00    +0.006 A 
ATOM      5  C   UNL     1      -1.506   4.324  -0.570  0.00  0.00    -0.019 A 
ATOM      6  C   UNL     1      -0.827   5.461  -1.018  0.00  0.00    +0.044 A 
ATOM      7  N   UNL     1       0.546   5.627  -0.946  0.00  0.00    -0.336 N 
ATOM      8  C   UNL     1       1.310   4.569  -0.265  0.00  0.00    +0.106 C 
ATOM      9  C   UNL     1       0.680   3.247  -0.649  0.00  0.00    +0.029 C 
ATOM     10  C   UNL     1      -0.708   3.251   0.063  0.00  0.00    +0.049 C 
ATOM     11  C   UNL     1      -1.111   1.824   0.017  0.00  0.00    -0.023 C 
ATOM     12  C   UNL     1      -0.013   1.076   0.008  0.00  0.00    -0.030 C 
ATOM     13  C   UNL     1       1.229   1.972   0.001  0.00  0.00    +0.033 C 
ATOM     14  H   UNL     1       0.935   5.824  -1.856  0.00  0.00    +0.147 HD
ENDROOT
BRANCH   8  15
ATOM     15  C   UNL     1       1.234   4.760   1.228  0.00  0.00    -0.007 A 
ATOM     16  C   UNL     1       0.190   5.477   1.782  0.00  0.00    +0.039 A 
ATOM     17  C   UNL     1       0.120   5.651   3.151  0.00  0.00    +0.127 A 
ATOM     18  C   UNL     1       1.093   5.107   3.968  0.00  0.00    +0.034 A 
ATOM     19  C   UNL     1       2.137   4.389   3.416  0.00  0.00    +0.022 A 
ATOM     20  C   UNL     1       2.205   4.211   2.046  0.00  0.00    +0.046 A 
ATOM     21 CL   UNL     1       3.513   3.303   1.352  0.00  0.00    -0.083 Cl
BRANCH  17  22
ATOM     22  N   UNL     1      -0.998   6.420   3.743  0.00  0.00    +0.056 N 
ATOM     23  O   UNL     1      -1.855   6.900   3.023  0.00  0.00    -0.126 OA
ATOM     24  O   UNL     1      -1.060   6.574   4.949  0.00  0.00    -0.126 OA
ENDBRANCH  17  22
ENDBRANCH   8  15
BRANCH   1  27
ATOM     25  C   UNL     1      -0.945   9.943  -3.074  0.00  0.00    +0.128 C 
ATOM     26  N   UNL     1      -1.620   8.731  -2.603  0.00  0.00    -0.314 N 
ATOM     27  C   UNL     1      -0.902   7.728  -2.060  0.00  0.00    +0.246 C 
ATOM     28  O   UNL     1       0.305   7.829  -1.960  0.00  0.00    -0.270 OA
ATOM     29  H   UNL     1      -2.583   8.650  -2.683  0.00  0.00    +0.149 HD
ENDBRANCH   1  27
TORSDOF 3
