REMARK  Name = ZINC66981212
REMARK  8 active torsions:
REMARK  status: ('A' for Active; 'I' for Inactive)
REMARK    1  A    between atoms: C_1  and  C_2
REMARK    2  A    between atoms: N_5  and  C_11
REMARK    3  A    between atoms: C_7  and  C_10
REMARK    4  A    between atoms: C_11  and  C_12
REMARK    5  A    between atoms: C_12  and  N_13
REMARK    6  A    between atoms: N_16  and  C_17
REMARK    7  A    between atoms: C_19  and  N_25
REMARK    8  A    between atoms: C_26  and  C_28
REMARK                            x       y       z     vdW  Elec       q    Type
REMARK                         _______ _______ _______ _____ _____    ______ ____
ROOT
ATOM      1  N   UNL     1       4.908  -0.164  -3.662  0.00  0.00    -0.298 N 
ATOM      2  C   UNL     1       6.134   0.326  -3.930  0.00  0.00    +0.304 C 
ATOM      3  O   UNL     1       6.662   1.099  -3.154  0.00  0.00    -0.253 OA
ATOM      4  N   UNL     1       6.775  -0.040  -5.057  0.00  0.00    -0.267 N 
ATOM      5  H   UNL     1       4.486  -0.781  -4.281  0.00  0.00    +0.150 HD
ATOM      6  H   UNL     1       6.383  -0.706  -5.644  0.00  0.00    +0.156 HD
ENDROOT
BRANCH   4   7
ATOM      7  C   UNL     1       8.009   0.541  -5.383  0.00  0.00    +0.072 A 
ATOM      8  C   UNL     1       8.902   0.881  -4.377  0.00  0.00    +0.052 A 
ATOM      9  C   UNL     1      10.122   1.455  -4.702  0.00  0.00    +0.071 A 
ATOM     10  C   UNL     1      10.448   1.688  -6.034  0.00  0.00    +0.147 A 
ATOM     11  C   UNL     1       9.555   1.349  -7.034  0.00  0.00    +0.080 A 
ATOM     12  C   UNL     1       8.340   0.771  -6.713  0.00  0.00    +0.147 A 
ATOM     13  F   UNL     1       7.472   0.435  -7.692  0.00  0.00    -0.203 F 
ATOM     14  F   UNL     1      11.636   2.248  -6.350  0.00  0.00    -0.203 F 
BRANCH   9  15
ATOM     15  N   UNL     1      11.027   1.800  -3.688  0.00  0.00    -0.283 N 
ATOM     16  C   UNL     1      11.117   1.040  -2.579  0.00  0.00    +0.214 C 
ATOM     17  O   UNL     1      10.361   0.105  -2.421  0.00  0.00    -0.276 OA
ATOM     18  C   UNL     1      12.159   1.352  -1.535  0.00  0.00    +0.109 C 
ATOM     19  H   UNL     1      11.587   2.586  -3.785  0.00  0.00    +0.155 HD
ENDBRANCH   9  15
ENDBRANCH   4   7
BRANCH   1  20
ATOM     20  C   UNL     1       4.211   0.234  -2.436  0.00  0.00    +0.121 C 
BRANCH  20  21
ATOM     21  C   UNL     1       2.849  -0.460  -2.375  0.00  0.00    +0.103 C 
BRANCH  21  25
ATOM     22  C   UNL     1       0.021   1.503   0.119  0.00  0.00    +0.039 C 
ATOM     23  C   UNL     1       0.047  -0.027   0.104  0.00  0.00    +0.130 C 
ATOM     24  C   UNL     1       0.752  -0.514  -1.164  0.00  0.00    +0.115 C 
ATOM     25  N   UNL     1       2.150  -0.061  -1.146  0.00  0.00    -0.296 NA
ATOM     26  C   UNL     1       2.847  -0.568   0.044  0.00  0.00    +0.115 C 
ATOM     27  C   UNL     1       2.121  -0.080   1.301  0.00  0.00    +0.130 C 
ATOM     28  O   UNL     1       0.755  -0.504   1.252  0.00  0.00    -0.371 OA
ATOM     29  C   UNL     1       2.795  -0.670   2.542  0.00  0.00    +0.039 C 
ENDBRANCH  21  25
ENDBRANCH  20  21
ENDBRANCH   1  20
TORSDOF 5
