REMARK  Name = ZINC51570273
REMARK  6 active torsions:
REMARK  status: ('A' for Active; 'I' for Inactive)
REMARK    1  A    between atoms: C_1  and  C_2
REMARK    2  A    between atoms: C_2  and  N_3
REMARK    3  A    between atoms: N_3  and  C_4
REMARK    4  A    between atoms: C_4  and  C_5
REMARK    5  A    between atoms: C_8  and  O_11
REMARK    6  A    between atoms: O_11  and  C_12
REMARK                            x       y       z     vdW  Elec       q    Type
REMARK                         _______ _______ _______ _____ _____    ______ ____
ROOT
ATOM      1  C   UNL     1      -2.862  -2.273   0.012  0.00  0.00    +0.047 A 
ATOM      2  C   UNL     1      -3.538  -2.481  -1.181  0.00  0.00    +0.028 A 
ATOM      3  C   UNL     1      -4.808  -3.033  -1.123  0.00  0.00    +0.071 A 
ATOM      4  C   UNL     1      -5.327  -3.344   0.132  0.00  0.00    +0.240 A 
ATOM      5  N   UNL     1      -4.606  -3.108   1.217  0.00  0.00    -0.111 NA
ATOM      6  N   UNL     1      -3.428  -2.602   1.156  0.00  0.00    -0.153 NA
ENDROOT
BRANCH   1   7
ATOM      7  C   UNL     1      -1.478  -1.676   0.001  0.00  0.00    -0.024 C 
BRANCH   7   8
ATOM      8  N   UNL     1      -1.570  -0.225   0.212  0.00  0.00    +0.383 N 
ATOM      9  H   UNL     1      -2.008  -0.041   1.102  0.00  0.00    -0.085 HD
ATOM     10  H   UNL     1      -2.121   0.188  -0.526  0.00  0.00    -0.085 HD
BRANCH   8  12
ATOM     11  C   UNL     1      -0.316   1.869   0.420  0.00  0.00    -0.017 C 
ATOM     12  C   UNL     1      -0.221   0.358   0.201  0.00  0.00    -0.086 C 
ENDBRANCH   8  12
ENDBRANCH   7   8
ENDBRANCH   1   7
BRANCH   4  13
ATOM     13  O   UNL     1      -6.566  -3.885   0.242  0.00  0.00    -0.435 OA
BRANCH  13  14
ATOM     14  C   UNL     1      -7.073  -4.073   1.489  0.00  0.00    +0.149 A 
ATOM     15  C   UNL     1      -6.923  -5.298   2.123  0.00  0.00    +0.049 A 
ATOM     16  C   UNL     1      -7.439  -5.487   3.390  0.00  0.00    +0.019 A 
ATOM     17  C   UNL     1      -8.104  -4.455   4.029  0.00  0.00    +0.019 A 
ATOM     18  C   UNL     1      -8.254  -3.232   3.400  0.00  0.00    +0.039 A 
ATOM     19  C   UNL     1      -7.735  -3.037   2.134  0.00  0.00    +0.084 A 
ATOM     20 CL   UNL     1      -7.917  -1.500   1.347  0.00  0.00    -0.080 Cl
ATOM     21 BR   UNL     1      -8.809  -4.717   5.764  0.00  0.00    -0.050 Br
ENDBRANCH  13  14
ENDBRANCH   4  13
TORSDOF 5
