REMARK  Name = ZINC64723214
REMARK  9 active torsions:
REMARK  status: ('A' for Active; 'I' for Inactive)
REMARK    1  A    between atoms: C_1  and  C_2
REMARK    2  A    between atoms: C_4  and  C_15
REMARK    3  A    between atoms: C_5  and  C_14
REMARK    4  A    between atoms: N_7  and  C_8
REMARK    5  A    between atoms: C_15  and  C_16
REMARK    6  A    between atoms: C_16  and  C_17
REMARK    7  A    between atoms: N_19  and  C_20
REMARK    8  A    between atoms: C_20  and  C_21
REMARK    9  A    between atoms: C_21  and  C_22
REMARK                            x       y       z     vdW  Elec       q    Type
REMARK                         _______ _______ _______ _____ _____    ______ ____
ROOT
ATOM      1  C   UNL     1      -3.205   0.995  -0.669  0.00  0.00    +0.100 C 
ENDROOT
BRANCH   1   2
ATOM      2  C   UNL     1      -4.288   1.224  -1.692  0.00  0.00    +0.213 C 
ATOM      3  O   UNL     1      -4.469   0.412  -2.574  0.00  0.00    -0.276 OA
ATOM      4  N   UNL     1      -5.055   2.330  -1.626  0.00  0.00    -0.315 N 
ATOM      5  H   UNL     1      -4.910   2.979  -0.920  0.00  0.00    +0.149 HD
BRANCH   4   6
ATOM      6  C   UNL     1      -6.107   2.552  -2.621  0.00  0.00    +0.108 C 
BRANCH   6   7
ATOM      7  C   UNL     1      -6.823   3.870  -2.320  0.00  0.00    +0.052 C 
BRANCH   7   8
ATOM      8  C   UNL     1      -7.906   4.098  -3.344  0.00  0.00    -0.040 C 
ATOM      9  C   UNL     1      -9.216   3.784  -3.225  0.00  0.00    -0.001 A 
ATOM     10  C   UNL     1      -9.995   3.158  -2.150  0.00  0.00    +0.010 A 
ATOM     11  C   UNL     1     -11.322   2.968  -2.327  0.00  0.00    +0.001 A 
ATOM     12  C   UNL     1     -11.971   3.352  -3.508  0.00  0.00    +0.002 A 
ATOM     13  C   UNL     1     -11.323   3.933  -4.540  0.00  0.00    +0.026 A 
ATOM     14  C   UNL     1      -9.925   4.181  -4.463  0.00  0.00    +0.043 A 
ATOM     15  N   UNL     1      -9.085   4.721  -5.313  0.00  0.00    -0.380 N 
ATOM     16  C   UNL     1      -7.749   4.732  -4.708  0.00  0.00    +0.144 C 
ATOM     17  H   UNL     1      -9.311   5.059  -6.194  0.00  0.00    +0.160 HD
ENDBRANCH   7   8
ENDBRANCH   6   7
ENDBRANCH   4   6
ENDBRANCH   1   2
BRANCH   1  18
ATOM     18  C   UNL     1      -2.490  -0.323  -0.969  0.00  0.00    +0.043 C 
BRANCH  18  21
ATOM     19  C   UNL     1      -0.019   1.526   0.010  0.00  0.00    +0.034 C 
ATOM     20  C   UNL     1       0.002  -0.004   0.002  0.00  0.00    +0.118 C 
ATOM     21  C   UNL     1      -1.407  -0.551   0.054  0.00  0.00    -0.030 C 
ATOM     22  C   UNL     1      -1.515  -1.263   1.156  0.00  0.00    +0.020 C 
ATOM     23  N   UNL     1      -0.338  -1.274   1.879  0.00  0.00    -0.268 N 
ATOM     24  N   UNL     1       0.645  -0.516   1.224  0.00  0.00    -0.247 N 
ATOM     25  C   UNL     1      -2.772  -1.979   1.578  0.00  0.00    +0.062 C 
ATOM     26  H   UNL     1      -0.210  -1.740   2.721  0.00  0.00    +0.170 HD
BRANCH  24  27
ATOM     27  C   UNL     1       1.960  -0.293   1.641  0.00  0.00    +0.048 A 
ATOM     28  C   UNL     1       2.811   0.491   0.873  0.00  0.00    +0.025 A 
ATOM     29  C   UNL     1       4.109   0.710   1.289  0.00  0.00    +0.002 A 
ATOM     30  C   UNL     1       4.563   0.148   2.469  0.00  0.00    +0.000 A 
ATOM     31  C   UNL     1       3.719  -0.634   3.235  0.00  0.00    +0.002 A 
ATOM     32  C   UNL     1       2.417  -0.852   2.828  0.00  0.00    +0.025 A 
ENDBRANCH  24  27
ENDBRANCH  18  21
ENDBRANCH   1  18
TORSDOF 7
