REMARK  Name = ZINC10611950
REMARK  6 active torsions:
REMARK  status: ('A' for Active; 'I' for Inactive)
REMARK    1  A    between atoms: C_1  and  C_2
REMARK    2  A    between atoms: C_2  and  C_4
REMARK    3  A    between atoms: C_2  and  N_40
REMARK    4  A    between atoms: C_12  and  C_13
REMARK    5  A    between atoms: C_12  and  N_40
REMARK    6  A    between atoms: C_15  and  N_23
REMARK                            x       y       z     vdW  Elec       q    Type
REMARK                         _______ _______ _______ _____ _____    ______ ____
ROOT
ATOM      1  C   UNL     1       1.090   1.990   2.812  0.00  0.00    -0.042 C 
ENDROOT
BRANCH   1   2
ATOM      2  C   UNL     1       1.793   1.459   4.035  0.00  0.00    -0.020 A 
ATOM      3  C   UNL     1       1.522   2.000   5.277  0.00  0.00    +0.038 A 
ATOM      4  C   UNL     1       2.167   1.513   6.398  0.00  0.00    +0.127 A 
ATOM      5  C   UNL     1       3.085   0.486   6.280  0.00  0.00    +0.042 A 
ATOM      6  C   UNL     1       3.360  -0.058   5.039  0.00  0.00    +0.022 A 
ATOM      7  C   UNL     1       2.709   0.423   3.914  0.00  0.00    +0.130 A 
ATOM      8  O   UNL     1       2.961  -0.111   2.689  0.00  0.00    -0.466 OA
ATOM      9  C   UNL     1       4.148  -0.898   2.559  0.00  0.00    +0.394 C 
ATOM     10  O   UNL     1       4.205  -1.822   3.652  0.00  0.00    -0.339 OA
ATOM     11  C   UNL     1       4.369  -1.173   4.920  0.00  0.00    +0.202 C 
BRANCH   4  12
ATOM     12  N   UNL     1       1.875   2.093   7.728  0.00  0.00    +0.056 N 
ATOM     13  O   UNL     1       1.067   2.998   7.834  0.00  0.00    -0.126 OA
ATOM     14  O   UNL     1       2.443   1.665   8.717  0.00  0.00    -0.126 OA
ENDBRANCH   4  12
ENDBRANCH   1   2
BRANCH   1  15
ATOM     15  N   UNL     1      -0.021   1.084   2.462  0.00  0.00    +0.386 N 
ATOM     16  H   UNL     1       0.353   0.147   2.270  0.00  0.00    -0.085 HD
ATOM     17  H   UNL     1      -0.679   1.035   3.249  0.00  0.00    -0.085 HD
BRANCH  15  19
ATOM     18  C   UNL     1      -0.013   1.086   0.008  0.00  0.00    -0.009 C 
ATOM     19  C   UNL     1      -0.729   1.579   1.267  0.00  0.00    -0.044 C 
BRANCH  19  20
ATOM     20  C   UNL     1      -2.143   1.058   1.278  0.00  0.00    -0.060 A 
ATOM     21  C   UNL     1      -2.397  -0.241   1.677  0.00  0.00    +0.003 A 
ATOM     22  C   UNL     1      -3.693  -0.720   1.692  0.00  0.00    +0.021 A 
ATOM     23  C   UNL     1      -4.737   0.099   1.297  0.00  0.00    +0.059 A 
ATOM     24  C   UNL     1      -4.482   1.397   0.892  0.00  0.00    +0.059 A 
ATOM     25  C   UNL     1      -3.184   1.876   0.882  0.00  0.00    +0.023 A 
ATOM     26 CL   UNL     1      -5.790   2.425   0.395  0.00  0.00    -0.082 Cl
ATOM     27 CL   UNL     1      -6.365  -0.504   1.308  0.00  0.00    -0.082 Cl
ENDBRANCH  19  20
ENDBRANCH  15  19
ENDBRANCH   1  15
TORSDOF 5
