REMARK  Name = ZINC35780345
REMARK  7 active torsions:
REMARK  status: ('A' for Active; 'I' for Inactive)
REMARK    1  A    between atoms: C_1  and  C_2
REMARK    2  A    between atoms: C_2  and  N_3
REMARK    3  A    between atoms: C_5  and  N_8
REMARK    4  A    between atoms: N_8  and  C_9
REMARK    5  A    between atoms: C_12  and  C_22
REMARK    6  A    between atoms: C_16  and  O_21
REMARK    7  A    between atoms: C_19  and  C_20
REMARK                            x       y       z     vdW  Elec       q    Type
REMARK                         _______ _______ _______ _____ _____    ______ ____
ROOT
ATOM      1  C   UNL     1       2.226  -2.489   5.104  0.00  0.00    +0.105 C 
ATOM      2  C   UNL     1       2.163  -3.822   5.879  0.00  0.00    +0.035 C 
ATOM      3  C   UNL     1       1.382  -3.429   7.151  0.00  0.00    +0.019 C 
ATOM      4  C   UNL     1       1.649  -1.951   7.338  0.00  0.00    -0.033 A 
ATOM      5  C   UNL     1       2.135  -1.410   6.161  0.00  0.00    +0.018 A 
ATOM      6  C   UNL     1       2.452  -0.059   6.098  0.00  0.00    +0.122 A 
ATOM      7  C   UNL     1       2.283   0.748   7.213  0.00  0.00    +0.046 A 
ATOM      8  C   UNL     1       1.798   0.206   8.387  0.00  0.00    +0.007 A 
ATOM      9  C   UNL     1       1.480  -1.143   8.451  0.00  0.00    -0.046 A 
ATOM     10  C   UNL     1       0.951  -1.733   9.733  0.00  0.00    +0.044 C 
ATOM     11  C   UNL     1      -0.115  -3.680   6.954  0.00  0.00    +0.012 C 
ENDROOT
BRANCH   1  12
ATOM     12  N   UNL     1       1.098  -2.387   4.175  0.00  0.00    -0.334 N 
ATOM     13  H   UNL     1       0.287  -2.894   4.338  0.00  0.00    +0.147 HD
BRANCH  12  16
ATOM     14  N   UNL     1       0.711  -0.489   1.189  0.00  0.00    -0.270 N 
ATOM     15  C   UNL     1       0.226  -1.367   2.108  0.00  0.00    +0.131 A 
ATOM     16  C   UNL     1       1.190  -1.553   3.044  0.00  0.00    +0.066 A 
ATOM     17  C   UNL     1       2.295  -0.767   2.686  0.00  0.00    +0.157 A 
ATOM     18  N   UNL     1       2.010  -0.137   1.575  0.00  0.00    -0.178 NA
BRANCH  14  20
ATOM     19  C   UNL     1      -0.019   1.526   0.010  0.00  0.00    +0.029 C 
ATOM     20  C   UNL     1       0.002  -0.004   0.002  0.00  0.00    +0.140 C 
ENDBRANCH  14  20
ENDBRANCH  12  16
ENDBRANCH   1  12
BRANCH   6  21
ATOM     21  O   UNL     1       2.930   0.473   4.942  0.00  0.00    -0.506 OA
ATOM     22  H   UNL     1       2.243   0.809   4.351  0.00  0.00    +0.292 HD
ENDBRANCH   6  21
TORSDOF 4
