REMARK  Name = ZINC39850293
REMARK  8 active torsions:
REMARK  status: ('A' for Active; 'I' for Inactive)
REMARK    1  A    between atoms: C_2  and  C_3
REMARK    2  A    between atoms: C_3  and  O_4
REMARK    3  A    between atoms: O_4  and  C_5
REMARK    4  A    between atoms: C_8  and  C_11
REMARK    5  A    between atoms: C_13  and  C_25
REMARK    6  A    between atoms: C_15  and  C_20
REMARK    7  A    between atoms: C_15  and  O_24
REMARK    8  A    between atoms: C_25  and  C_27
REMARK                            x       y       z     vdW  Elec       q    Type
REMARK                         _______ _______ _______ _____ _____    ______ ____
ROOT
ATOM      1  C   UNL     1      -5.759  -5.135  -1.446  0.00  0.00    +0.120 C 
ATOM      2  C   UNL     1      -5.532  -6.437  -0.669  0.00  0.00    +0.144 C 
ATOM      3  C   UNL     1      -6.727  -7.365  -0.913  0.00  0.00    +0.243 C 
ATOM      4  N   UNL     1      -6.897  -7.559  -2.354  0.00  0.00    -0.264 N 
ATOM      5  C   UNL     1      -6.531  -6.615  -3.233  0.00  0.00    +0.302 C 
ATOM      6  O   UNL     1      -6.704  -6.823  -4.419  0.00  0.00    -0.253 OA
ATOM      7  N   UNL     1      -5.983  -5.449  -2.857  0.00  0.00    -0.292 N 
ATOM      8  H   UNL     1      -7.283  -8.388  -2.679  0.00  0.00    +0.153 HD
ATOM      9  H   UNL     1      -5.729  -4.803  -3.534  0.00  0.00    +0.151 HD
ENDROOT
BRANCH   1  13
ATOM     10  C   UNL     1      -2.318  -2.629  -1.069  0.00  0.00    +0.121 A 
ATOM     11  C   UNL     1      -3.437  -2.395  -0.283  0.00  0.00    +0.046 A 
ATOM     12  C   UNL     1      -4.548  -3.206  -0.407  0.00  0.00    +0.009 A 
ATOM     13  C   UNL     1      -4.545  -4.251  -1.313  0.00  0.00    -0.026 A 
ATOM     14  C   UNL     1      -3.431  -4.487  -2.096  0.00  0.00    +0.009 A 
ATOM     15  C   UNL     1      -2.319  -3.675  -1.980  0.00  0.00    +0.046 A 
BRANCH  10  16
ATOM     16  O   UNL     1      -1.224  -1.832  -0.949  0.00  0.00    -0.488 OA
BRANCH  16  17
ATOM     17  C   UNL     1      -1.293  -0.775   0.010  0.00  0.00    +0.256 C 
BRANCH  17  19
ATOM     18  C   UNL     1      -0.016   1.306   0.009  0.00  0.00    +0.007 C 
ATOM     19  C   UNL     1       0.002  -0.004   0.002  0.00  0.00    +0.006 C 
ENDBRANCH  17  19
ENDBRANCH  16  17
ENDBRANCH  10  16
ENDBRANCH   1  13
BRANCH   3  20
ATOM     20  C   UNL     1      -6.471  -8.715  -0.241  0.00  0.00    +0.436 C 
ATOM     21  F   UNL     1      -6.300  -8.527   1.134  0.00  0.00    -0.166 F 
ATOM     22  F   UNL     1      -7.562  -9.562  -0.465  0.00  0.00    -0.166 F 
ATOM     23  F   UNL     1      -5.315  -9.292  -0.780  0.00  0.00    -0.166 F 
ENDBRANCH   3  20
BRANCH   3  24
ATOM     24  O   UNL     1      -7.909  -6.775  -0.367  0.00  0.00    -0.364 OA
ATOM     25  H   UNL     1      -8.706  -7.310  -0.486  0.00  0.00    +0.212 HD
ENDBRANCH   3  24
BRANCH   2  26
ATOM     26  C   UNL     1      -5.414  -6.134   0.802  0.00  0.00    +0.173 C 
ATOM     27  O   UNL     1      -6.003  -5.185   1.276  0.00  0.00    -0.292 OA
BRANCH  26  28
ATOM     28  C   UNL     1      -4.584  -6.989   1.665  0.00  0.00    +0.018 A 
ATOM     29  C   UNL     1      -3.898  -8.081   1.121  0.00  0.00    +0.013 A 
ATOM     30  C   UNL     1      -3.122  -8.877   1.935  0.00  0.00    +0.020 A 
ATOM     31  C   UNL     1      -3.020  -8.600   3.289  0.00  0.00    +0.041 A 
ATOM     32  C   UNL     1      -3.696  -7.520   3.834  0.00  0.00    +0.020 A 
ATOM     33  C   UNL     1      -4.471  -6.711   3.031  0.00  0.00    +0.013 A 
ATOM     34 CL   UNL     1      -2.041  -9.609   4.306  0.00  0.00    -0.084 Cl
ENDBRANCH  26  28
ENDBRANCH   2  26
TORSDOF 8
