REMARK  Name = ZINC67611805
REMARK  4 active torsions:
REMARK  status: ('A' for Active; 'I' for Inactive)
REMARK    1  A    between atoms: C_4  and  C_7
REMARK    2  A    between atoms: C_10  and  N_12
REMARK    3  A    between atoms: N_15  and  C_16
REMARK    4  A    between atoms: C_16  and  C_17
REMARK                            x       y       z     vdW  Elec       q    Type
REMARK                         _______ _______ _______ _____ _____    ______ ____
ROOT
ATOM      1  N   UNL     1       2.945  -1.750  -2.248  0.00  0.00    -0.296 N 
ATOM      2  C   UNL     1       3.276  -2.112  -3.503  0.00  0.00    +0.300 C 
ATOM      3  O   UNL     1       4.435  -2.348  -3.782  0.00  0.00    -0.253 OA
ATOM      4  N   UNL     1       2.321  -2.213  -4.449  0.00  0.00    -0.299 N 
ATOM      5  H   UNL     1       2.020  -1.561  -2.025  0.00  0.00    +0.151 HD
ATOM      6  H   UNL     1       1.396  -2.025  -4.226  0.00  0.00    +0.150 HD
ENDROOT
BRANCH   1   9
ATOM      7  C   UNL     1       3.711  -0.707  -0.038  0.00  0.00    +0.041 C 
ATOM      8  C   UNL     1       3.675  -2.224   0.162  0.00  0.00    +0.033 C 
ATOM      9  C   UNL     1       3.983  -1.640  -1.219  0.00  0.00    +0.082 C 
BRANCH   7  13
ATOM     10  C   UNL     1      -0.017   1.378   0.010  0.00  0.00    +0.000 A 
ATOM     11  C   UNL     1       1.171   2.086   0.002  0.00  0.00    +0.000 A 
ATOM     12  C   UNL     1       2.377   1.411  -0.013  0.00  0.00    +0.004 A 
ATOM     13  C   UNL     1       2.396   0.029  -0.020  0.00  0.00    -0.042 A 
ATOM     14  C   UNL     1       1.208  -0.679  -0.012  0.00  0.00    +0.004 A 
ATOM     15  C   UNL     1       0.002  -0.004   0.002  0.00  0.00    +0.000 A 
ENDBRANCH   7  13
ENDBRANCH   1   9
BRANCH   4  16
ATOM     16  C   UNL     1       2.680  -2.607  -5.813  0.00  0.00    +0.113 C 
BRANCH  16  17
ATOM     17  C   UNL     1       1.421  -2.645  -6.681  0.00  0.00    +0.048 C 
ATOM     18  C   UNL     1       1.773  -3.162  -8.078  0.00  0.00    +0.047 C 
ATOM     19  C   UNL     1       0.615  -2.924  -9.014  0.00  0.00    -0.005 A 
ATOM     20  C   UNL     1       0.562  -3.633 -10.203  0.00  0.00    +0.007 A 
ATOM     21  C   UNL     1      -0.481  -3.438 -11.086  0.00  0.00    +0.000 A 
ATOM     22  C   UNL     1      -1.480  -2.530 -10.784  0.00  0.00    +0.004 A 
ATOM     23  C   UNL     1      -1.434  -1.822  -9.601  0.00  0.00    +0.046 A 
ATOM     24  C   UNL     1      -0.385  -2.018  -8.709  0.00  0.00    +0.124 A 
ATOM     25  O   UNL     1      -0.379  -1.310  -7.549  0.00  0.00    -0.491 OA
ATOM     26  C   UNL     1       0.847  -1.229  -6.822  0.00  0.00    +0.234 C 
ENDBRANCH  16  17
ENDBRANCH   4  16
TORSDOF 4
