REMARK  Name = ZINC07719029
REMARK  12 active torsions:
REMARK  status: ('A' for Active; 'I' for Inactive)
REMARK    1  A    between atoms: C_1  and  C_2
REMARK    2  A    between atoms: C_2  and  C_3
REMARK    3  A    between atoms: C_3  and  C_5
REMARK    4  A    between atoms: C_3  and  C_6
REMARK    5  A    between atoms: C_9  and  C_12
REMARK    6  A    between atoms: C_12  and  C_14
REMARK    7  A    between atoms: C_12  and  N_58
REMARK    8  A    between atoms: C_14  and  C_15
REMARK    9  A    between atoms: C_14  and  C_16
REMARK   10  A    between atoms: C_17  and  C_18
REMARK   11  A    between atoms: C_17  and  N_58
REMARK   12  A    between atoms: C_24  and  C_29
REMARK                            x       y       z     vdW  Elec       q    Type
REMARK                         _______ _______ _______ _____ _____    ______ ____
ROOT
ATOM      1  N   UNL     1      -2.280   3.772   7.662  0.00  0.00    +0.387 N 
ATOM      2  H   UNL     1      -2.965   4.424   8.063  0.00  0.00    -0.084 HD
ATOM      3  H   UNL     1      -1.846   4.198   6.835  0.00  0.00    -0.084 HD
ENDROOT
BRANCH   1   4
ATOM      4  C   UNL     1      -2.967   2.528   7.265  0.00  0.00    -0.038 C 
BRANCH   4   8
ATOM      5  C   UNL     1      -0.762   0.617   4.145  0.00  0.00    -0.045 A 
ATOM      6  C   UNL     1      -0.892   1.994   4.156  0.00  0.00    +0.004 A 
ATOM      7  C   UNL     1      -1.610   2.611   5.163  0.00  0.00    +0.002 A 
ATOM      8  C   UNL     1      -2.189   1.854   6.164  0.00  0.00    -0.061 A 
ATOM      9  C   UNL     1      -2.055   0.478   6.155  0.00  0.00    +0.002 A 
ATOM     10  C   UNL     1      -1.341  -0.140   5.146  0.00  0.00    +0.004 A 
BRANCH   5  11
ATOM     11  C   UNL     1       0.016  -0.057   3.044  0.00  0.00    +0.016 C 
ATOM     12  C   UNL     1       1.458   0.456   3.051  0.00  0.00    +0.012 C 
BRANCH  11  14
ATOM     13  C   UNL     1       0.083  -0.524   0.591  0.00  0.00    +0.004 C 
ATOM     14  C   UNL     1      -0.631   0.259   1.695  0.00  0.00    +0.004 C 
ENDBRANCH  11  14
ENDBRANCH   5  11
ENDBRANCH   4   8
BRANCH   4  15
ATOM     15  C   UNL     1      -4.371   2.868   6.763  0.00  0.00    -0.027 C 
ATOM     16  C   UNL     1      -5.205   3.426   7.918  0.00  0.00    +0.006 C 
ATOM     17  C   UNL     1      -4.276   3.915   5.651  0.00  0.00    +0.006 C 
ENDBRANCH   4  15
ENDBRANCH   1   4
BRANCH   1  18
ATOM     18  C   UNL     1      -1.238   3.484   8.665  0.00  0.00    -0.025 C 
BRANCH  18  19
ATOM     19  C   UNL     1      -0.643   4.782   9.146  0.00  0.00    +0.032 A 
ATOM     20  C   UNL     1      -0.810   5.173  10.461  0.00  0.00    +0.092 A 
ATOM     21  C   UNL     1      -0.244   6.381  10.885  0.00  0.00    +0.258 A 
ATOM     22  O   UNL     1      -0.371   6.752  12.041  0.00  0.00    -0.267 OA
ATOM     23  N   UNL     1       0.439   7.131   9.995  0.00  0.00    -0.268 N 
ATOM     24  C   UNL     1       0.990   8.312  10.390  0.00  0.00    +0.099 A 
ATOM     25  C   UNL     1       1.678   9.081   9.517  0.00  0.00    -0.034 A 
ATOM     26  C   UNL     1       1.832   8.669   8.186  0.00  0.00    +0.008 A 
ATOM     27  C   UNL     1       1.284   7.489   7.779  0.00  0.00    +0.047 A 
ATOM     28  C   UNL     1       0.572   6.703   8.703  0.00  0.00    +0.140 A 
ATOM     29  N   UNL     1       0.035   5.550   8.307  0.00  0.00    -0.236 NA
ATOM     30  C   UNL     1       2.281  10.384   9.975  0.00  0.00    +0.045 C 
ENDBRANCH  18  19
ENDBRANCH   1  18
TORSDOF 7
