REMARK  Name = ZINC49150346
REMARK  8 active torsions:
REMARK  status: ('A' for Active; 'I' for Inactive)
REMARK    1  A    between atoms: C_1  and  C_2
REMARK    2  A    between atoms: C_3  and  N_22
REMARK    3  A    between atoms: C_5  and  S_9
REMARK    4  A    between atoms: S_9  and  N_12
REMARK    5  A    between atoms: N_12  and  C_13
REMARK    6  A    between atoms: C_13  and  C_15
REMARK    7  A    between atoms: C_13  and  C_16
REMARK    8  A    between atoms: C_16  and  N_17
REMARK                            x       y       z     vdW  Elec       q    Type
REMARK                         _______ _______ _______ _____ _____    ______ ____
ROOT
ATOM      1  S   UNL     1       0.063  -4.536  -0.016  0.00  0.00    +0.059 S 
ATOM      2  O   UNL     1      -0.476  -4.952   1.231  0.00  0.00    -0.153 OA
ATOM      3  O   UNL     1      -0.488  -4.947  -1.260  0.00  0.00    -0.153 OA
ENDROOT
BRANCH   1   8
ATOM      4  C   UNL     1      -0.018   1.503   0.010  0.00  0.00    +0.047 C 
ATOM      5  C   UNL     1       0.002  -0.004   0.002  0.00  0.00    -0.011 A 
ATOM      6  C   UNL     1       0.006  -0.693  -1.204  0.00  0.00    +0.031 A 
ATOM      7  C   UNL     1       0.025  -2.082  -1.208  0.00  0.00    +0.051 A 
ATOM      8  C   UNL     1       0.040  -2.774  -0.012  0.00  0.00    +0.108 A 
ATOM      9  C   UNL     1       0.035  -2.087   1.187  0.00  0.00    +0.049 A 
ATOM     10  C   UNL     1       0.023  -0.702   1.194  0.00  0.00    +0.047 A 
ATOM     11 CL   UNL     1       0.026   0.157   2.703  0.00  0.00    -0.083 Cl
BRANCH   6  12
ATOM     12  N   UNL     1      -0.010   0.010  -2.411  0.00  0.00    -0.358 N 
ATOM     13  H   UNL     1      -0.023   0.980  -2.408  0.00  0.00    +0.142 HD
ATOM     14  H   UNL     1      -0.007  -0.472  -3.253  0.00  0.00    +0.142 HD
ENDBRANCH   6  12
ENDBRANCH   1   8
BRANCH   1  15
ATOM     15  N   UNL     1       1.652  -5.004  -0.025  0.00  0.00    -0.189 NA
ATOM     16  H   UNL     1       2.013  -5.480  -0.789  0.00  0.00    +0.148 HD
BRANCH  15  17
ATOM     17  C   UNL     1       2.511  -4.699   1.122  0.00  0.00    +0.057 C 
ATOM     18  C   UNL     1       2.542  -5.900   2.070  0.00  0.00    +0.024 C 
BRANCH  17  19
ATOM     19  C   UNL     1       3.929  -4.401   0.631  0.00  0.00    -0.059 C 
BRANCH  19  20
ATOM     20  N   UNL     1       3.885  -3.326  -0.370  0.00  0.00    +0.381 N 
ATOM     21  C   UNL     1       3.505  -2.043   0.273  0.00  0.00    -0.079 C 
ATOM     22  C   UNL     1       4.039  -0.978  -0.717  0.00  0.00    -0.020 C 
ATOM     23  C   UNL     1       5.370  -1.596  -1.204  0.00  0.00    -0.020 C 
ATOM     24  C   UNL     1       5.231  -3.107  -0.943  0.00  0.00    -0.079 C 
ATOM     25  H   UNL     1       3.229  -3.558  -1.101  0.00  0.00    -0.082 HD
ENDBRANCH  19  20
ENDBRANCH  17  19
ENDBRANCH  15  17
ENDBRANCH   1  15
TORSDOF 6
