REMARK  Name = ZINC66191356
REMARK  6 active torsions:
REMARK  status: ('A' for Active; 'I' for Inactive)
REMARK    1  A    between atoms: C_1  and  C_2
REMARK    2  A    between atoms: C_4  and  C_7
REMARK    3  A    between atoms: C_7  and  N_8
REMARK    4  A    between atoms: N_11  and  C_12
REMARK    5  A    between atoms: C_16  and  C_23
REMARK    6  A    between atoms: C_16  and  C_24
REMARK                            x       y       z     vdW  Elec       q    Type
REMARK                         _______ _______ _______ _____ _____    ______ ____
ROOT
ATOM      1  N   UNL     1       1.423  -3.567  -2.011  0.00  0.00    -0.291 N 
ATOM      2  C   UNL     1       1.679  -4.594  -2.845  0.00  0.00    +0.300 C 
ATOM      3  O   UNL     1       0.761  -5.221  -3.338  0.00  0.00    -0.253 OA
ATOM      4  N   UNL     1       2.953  -4.926  -3.133  0.00  0.00    -0.293 N 
ATOM      5  H   UNL     1       2.155  -3.067  -1.618  0.00  0.00    +0.151 HD
ATOM      6  H   UNL     1       3.685  -4.426  -2.740  0.00  0.00    +0.151 HD
ENDROOT
BRANCH   4   7
ATOM      7  C   UNL     1       3.232  -6.042  -4.040  0.00  0.00    +0.105 C 
ATOM      8  C   UNL     1       4.612  -6.614  -3.725  0.00  0.00    +0.028 C 
ATOM      9  C   UNL     1       4.976  -7.629  -4.816  0.00  0.00    +0.013 C 
ATOM     10  C   UNL     1       5.234  -6.868  -6.115  0.00  0.00    -0.009 C 
ATOM     11  C   UNL     1       4.091  -5.934  -6.417  0.00  0.00    -0.037 A 
ATOM     12  C   UNL     1       3.175  -5.552  -5.463  0.00  0.00    -0.023 A 
ATOM     13  C   UNL     1       2.148  -4.682  -5.807  0.00  0.00    +0.006 A 
ATOM     14  C   UNL     1       2.038  -4.201  -7.096  0.00  0.00    +0.000 A 
ATOM     15  C   UNL     1       2.957  -4.588  -8.053  0.00  0.00    +0.000 A 
ATOM     16  C   UNL     1       3.976  -5.451  -7.714  0.00  0.00    +0.004 A 
ATOM     17  C   UNL     1       5.386  -7.867  -7.263  0.00  0.00    +0.016 C 
ATOM     18  C   UNL     1       6.524  -6.058  -5.977  0.00  0.00    +0.016 C 
ENDBRANCH   4   7
BRANCH   1  19
ATOM     19  C   UNL     1       0.038  -3.206  -1.697  0.00  0.00    +0.204 C 
BRANCH  19  23
ATOM     20  C   UNL     1      -0.018   1.503   0.010  0.00  0.00    +0.091 C 
ATOM     21  C   UNL     1       0.002  -0.004   0.002  0.00  0.00    +0.169 A 
ATOM     22  N   UNL     1       0.008  -0.776  -1.091  0.00  0.00    -0.195 NA
ATOM     23  C   UNL     1       0.026  -2.034  -0.750  0.00  0.00    +0.245 A 
ATOM     24  O   UNL     1       0.033  -2.107   0.587  0.00  0.00    -0.336 OA
ATOM     25  N   UNL     1       0.023  -0.767   1.057  0.00  0.00    -0.062 NA
ENDBRANCH  19  23
ENDBRANCH   1  19
TORSDOF 3
