REMARK  Name = ZINC39945876
REMARK  9 active torsions:
REMARK  status: ('A' for Active; 'I' for Inactive)
REMARK    1  A    between atoms: C_1  and  C_2
REMARK    2  A    between atoms: C_7  and  C_36
REMARK    3  A    between atoms: C_10  and  C_12
REMARK    4  A    between atoms: C_12  and  O_13
REMARK    5  A    between atoms: O_13  and  C_14
REMARK    6  A    between atoms: C_17  and  C_20
REMARK    7  A    between atoms: N_22  and  N_23
REMARK    8  A    between atoms: C_24  and  C_25
REMARK    9  A    between atoms: C_33  and  C_35
REMARK                            x       y       z     vdW  Elec       q    Type
REMARK                         _______ _______ _______ _____ _____    ______ ____
ROOT
ATOM      1  C   UNL     1       3.886   0.643   4.665  0.00  0.00    +0.121 A 
ATOM      2  C   UNL     1       4.130  -0.685   4.996  0.00  0.00    +0.046 A 
ATOM      3  C   UNL     1       4.998  -0.994   6.019  0.00  0.00    +0.016 A 
ATOM      4  C   UNL     1       5.634   0.031   6.726  0.00  0.00    +0.039 A 
ATOM      5  C   UNL     1       5.387   1.365   6.390  0.00  0.00    +0.016 A 
ATOM      6  C   UNL     1       4.522   1.665   5.362  0.00  0.00    +0.046 A 
ENDROOT
BRANCH   4   7
ATOM      7  C   UNL     1       6.564  -0.296   7.824  0.00  0.00    +0.263 C 
ATOM      8  O   UNL     1       6.778  -1.456   8.115  0.00  0.00    -0.268 OA
ATOM      9  N   UNL     1       7.177   0.693   8.504  0.00  0.00    -0.203 N 
ATOM     10  H   UNL     1       7.006   1.620   8.272  0.00  0.00    +0.178 HD
BRANCH   9  11
ATOM     11  N   UNL     1       8.060   0.384   9.547  0.00  0.00    -0.188 NA
ATOM     12  C   UNL     1       8.656   1.345  10.208  0.00  0.00    +0.136 C 
BRANCH  12  13
ATOM     13  C   UNL     1       9.539   1.035  11.251  0.00  0.00    +0.003 C 
ATOM     14  C   UNL     1       9.896  -0.234  11.703  0.00  0.00    +0.005 A 
ATOM     15  C   UNL     1       9.518  -1.533  11.298  0.00  0.00    +0.010 A 
ATOM     16  C   UNL     1      10.036  -2.613  11.935  0.00  0.00    +0.001 A 
ATOM     17  C   UNL     1      10.942  -2.477  12.991  0.00  0.00    +0.002 A 
ATOM     18  C   UNL     1      11.349  -1.263  13.432  0.00  0.00    +0.026 A 
ATOM     19  C   UNL     1      10.851  -0.084  12.815  0.00  0.00    +0.043 A 
ATOM     20  N   UNL     1      11.085   1.189  13.054  0.00  0.00    -0.377 N 
ATOM     21  C   UNL     1      10.310   2.007  12.116  0.00  0.00    +0.109 C 
ATOM     22  C   UNL     1       9.342   2.910  12.884  0.00  0.00    +0.035 C 
ATOM     23  H   UNL     1      11.679   1.532  13.739  0.00  0.00    +0.160 HD
ENDBRANCH  12  13
ENDBRANCH   9  11
ENDBRANCH   4   7
BRANCH   1  24
ATOM     24  O   UNL     1       3.030   0.943   3.656  0.00  0.00    -0.483 OA
BRANCH  24  25
ATOM     25  C   UNL     1       2.412  -0.154   2.982  0.00  0.00    +0.324 C 
BRANCH  25  33
ATOM     26  C   UNL     1      -0.017   1.526   0.009  0.00  0.00    +0.028 C 
ATOM     27  C   UNL     1       0.003  -0.004   0.001  0.00  0.00    +0.073 C 
ATOM     28  C   UNL     1      -1.426  -0.537   0.144  0.00  0.00    +0.022 C 
ATOM     29  C   UNL     1      -1.387  -2.061   0.276  0.00  0.00    +0.004 C 
ATOM     30  C   UNL     1      -0.600  -2.447   1.530  0.00  0.00    +0.022 C 
ATOM     31  C   UNL     1       0.839  -1.935   1.403  0.00  0.00    +0.073 C 
ATOM     32  N   UNL     1       0.808  -0.492   1.130  0.00  0.00    -0.293 N 
ATOM     33  C   UNL     1       1.502   0.368   1.901  0.00  0.00    +0.254 C 
ATOM     34  O   UNL     1       1.393   1.563   1.725  0.00  0.00    -0.272 OA
ATOM     35  C   UNL     1       1.541  -2.661   0.253  0.00  0.00    +0.028 C 
ENDBRANCH  25  33
ENDBRANCH  24  25
ENDBRANCH   1  24
TORSDOF 6
