REMARK  Name = ZINC53363439
REMARK  6 active torsions:
REMARK  status: ('A' for Active; 'I' for Inactive)
REMARK    1  A    between atoms: C_1  and  O_2
REMARK    2  A    between atoms: O_2  and  C_3
REMARK    3  A    between atoms: C_8  and  C_9
REMARK    4  A    between atoms: C_12  and  C_24
REMARK    5  A    between atoms: C_15  and  C_17
REMARK    6  A    between atoms: C_29  and  O_30
REMARK                            x       y       z     vdW  Elec       q    Type
REMARK                         _______ _______ _______ _____ _____    ______ ____
ROOT
ATOM      1  C   UNL     1       0.051  -2.828  -0.033  0.00  0.00    +0.207 C 
ATOM      2  N   UNL     1       0.707  -4.141  -0.005  0.00  0.00    -0.284 NA
ATOM      3  C   UNL     1       0.273  -4.902   1.179  0.00  0.00    +0.095 C 
ATOM      4  C   UNL     1       0.822  -4.201   2.425  0.00  0.00    +0.079 C 
ATOM      5  C   UNL     1       0.548  -2.726   2.333  0.00  0.00    +0.047 C 
ATOM      6  N   UNL     1       0.216  -2.144   1.243  0.00  0.00    -0.264 NA
ATOM      7  H   UNL     1       0.523  -4.655  -0.853  0.00  0.00    +0.125 HD
ENDROOT
BRANCH   5   8
ATOM      8  C   UNL     1       0.667  -1.911   3.558  0.00  0.00    -0.004 A 
ATOM      9  C   UNL     1       1.033  -2.509   4.765  0.00  0.00    +0.011 A 
ATOM     10  C   UNL     1       1.143  -1.742   5.906  0.00  0.00    +0.020 A 
ATOM     11  C   UNL     1       0.892  -0.381   5.855  0.00  0.00    +0.041 A 
ATOM     12  C   UNL     1       0.528   0.219   4.661  0.00  0.00    +0.020 A 
ATOM     13  C   UNL     1       0.420  -0.537   3.512  0.00  0.00    +0.011 A 
ATOM     14 CL   UNL     1       1.033   0.578   7.295  0.00  0.00    -0.084 Cl
ENDBRANCH   5   8
BRANCH   1  20
ATOM     15  C   UNL     1       0.606  -0.607  -1.056  0.00  0.00    +0.127 A 
ATOM     16  C   UNL     1       1.173   0.161  -2.063  0.00  0.00    +0.046 A 
ATOM     17  C   UNL     1       1.786  -0.455  -3.136  0.00  0.00    +0.004 A 
ATOM     18  C   UNL     1       1.836  -1.835  -3.208  0.00  0.00    +0.001 A 
ATOM     19  C   UNL     1       1.271  -2.602  -2.207  0.00  0.00    +0.010 A 
ATOM     20  C   UNL     1       0.661  -1.991  -1.128  0.00  0.00    +0.033 A 
BRANCH  15  22
ATOM     21  C   UNL     1      -0.017   1.425   0.010  0.00  0.00    +0.277 C 
ATOM     22  O   UNL     1       0.002  -0.004   0.002  0.00  0.00    -0.495 OA
ENDBRANCH  15  22
ENDBRANCH   1  20
BRANCH   3  23
ATOM     23  C   UNL     1       0.811  -6.307   1.106  0.00  0.00    +0.011 A 
ATOM     24  C   UNL     1       1.956  -6.572   0.379  0.00  0.00    +0.009 A 
ATOM     25  C   UNL     1       2.450  -7.862   0.311  0.00  0.00    +0.001 A 
ATOM     26  C   UNL     1       1.801  -8.889   0.970  0.00  0.00    +0.004 A 
ATOM     27  C   UNL     1       0.656  -8.630   1.699  0.00  0.00    +0.046 A 
ATOM     28  C   UNL     1       0.161  -7.335   1.773  0.00  0.00    +0.122 A 
BRANCH  28  29
ATOM     29  O   UNL     1      -0.962  -7.076   2.493  0.00  0.00    -0.506 OA
ATOM     30  H   UNL     1      -1.781  -7.153   1.986  0.00  0.00    +0.292 HD
ENDBRANCH  28  29
ENDBRANCH   3  23
TORSDOF 5
