REMARK  Name = ZINC61213368
REMARK  7 active torsions:
REMARK  status: ('A' for Active; 'I' for Inactive)
REMARK    1  A    between atoms: C_1  and  C_2
REMARK    2  A    between atoms: C_2  and  N_3
REMARK    3  A    between atoms: N_3  and  C_4
REMARK    4  A    between atoms: C_4  and  C_6
REMARK    5  A    between atoms: C_4  and  C_7
REMARK    6  A    between atoms: C_7  and  C_8
REMARK    7  A    between atoms: N_13  and  C_14
REMARK                            x       y       z     vdW  Elec       q    Type
REMARK                         _______ _______ _______ _____ _____    ______ ____
ROOT
ATOM      1  N   UNL     1      -1.377  -0.495   0.013  0.00  0.00    -0.282 N 
ATOM      2  C   UNL     1      -1.994  -0.747   1.184  0.00  0.00    +0.307 C 
ATOM      3  O   UNL     1      -3.132  -1.175   1.192  0.00  0.00    -0.252 OA
ATOM      4  N   UNL     1      -1.350  -0.524   2.347  0.00  0.00    -0.268 N 
ATOM      5  H   UNL     1      -0.416  -0.260   2.341  0.00  0.00    +0.156 HD
ENDROOT
BRANCH   4   6
ATOM      6  C   UNL     1      -2.029  -0.672   3.563  0.00  0.00    +0.049 A 
ATOM      7  C   UNL     1      -3.409  -0.536   3.611  0.00  0.00    +0.027 A 
ATOM      8  C   UNL     1      -4.077  -0.683   4.811  0.00  0.00    +0.040 A 
ATOM      9  C   UNL     1      -3.369  -0.966   5.968  0.00  0.00    +0.125 A 
ATOM     10  C   UNL     1      -1.992  -1.102   5.923  0.00  0.00    +0.055 A 
ATOM     11  C   UNL     1      -1.321  -0.961   4.723  0.00  0.00    +0.042 A 
ATOM     12 BR   UNL     1       0.559  -1.155   4.662  0.00  0.00    -0.048 Br
ATOM     13  F   UNL     1      -4.024  -1.108   7.141  0.00  0.00    -0.205 F 
ENDBRANCH   4   6
BRANCH   1  15
ATOM     14  C   UNL     1      -0.037   1.550   0.022  0.00  0.00    +0.024 C 
ATOM     15  C   UNL     1      -0.006   0.020   0.003  0.00  0.00    +0.106 C 
ENDBRANCH   1  15
BRANCH   1  16
ATOM     16  C   UNL     1      -2.078  -0.738  -1.251  0.00  0.00    +0.085 C 
ATOM     17  C   UNL     1      -2.181   0.571  -2.036  0.00  0.00    +0.028 C 
BRANCH  16  18
ATOM     18  C   UNL     1      -1.302  -1.767  -2.075  0.00  0.00    +0.147 C 
BRANCH  18  19
ATOM     19  C   UNL     1      -1.306  -3.092  -1.357  0.00  0.00    +0.358 C 
ATOM     20  O   UNL     1      -1.876  -3.202  -0.285  0.00  0.00    -0.246 OA
ATOM     21  O   UNL     1      -0.738  -4.053  -1.847  0.00  0.00    -0.246 OA
ENDBRANCH  18  19
ENDBRANCH  16  18
ENDBRANCH   1  16
TORSDOF 5
