REMARK  Name = ZINC37538386
REMARK  15 active torsions:
REMARK  status: ('A' for Active; 'I' for Inactive)
REMARK    1  A    between atoms: C_1  and  C_2
REMARK    2  A    between atoms: C_5  and  C_27
REMARK    3  A    between atoms: C_7  and  O_10
REMARK    4  A    between atoms: O_10  and  C_11
REMARK    5  A    between atoms: C_13  and  O_26
REMARK    6  A    between atoms: C_15  and  O_25
REMARK    7  A    between atoms: C_17  and  O_24
REMARK    8  A    between atoms: C_19  and  C_22
REMARK    9  A    between atoms: C_22  and  O_23
REMARK   10  A    between atoms: C_27  and  C_29
REMARK   11  A    between atoms: C_27  and  C_30
REMARK   12  A    between atoms: C_30  and  C_31
REMARK   13  A    between atoms: C_31  and  C_32
REMARK   14  A    between atoms: C_33  and  C_34
REMARK   15  A    between atoms: C_33  and  C_35
REMARK                            x       y       z     vdW  Elec       q    Type
REMARK                         _______ _______ _______ _____ _____    ______ ____
ROOT
ATOM      1  O   UNL     1       0.542  -2.470   1.901  0.00  0.00    -0.345 OA
ENDROOT
BRANCH   1   7
ATOM      2  C   UNL     1       0.968   1.954  -0.367  0.00  0.00    +0.039 C 
ATOM      3  C   UNL     1       0.816   0.455  -0.399  0.00  0.00    -0.074 C 
ATOM      4  C   UNL     1       0.834  -0.132  -1.552  0.00  0.00    -0.027 C 
ATOM      5  C   UNL     1       0.704  -1.615  -1.743  0.00  0.00    +0.033 C 
ATOM      6  C   UNL     1       0.135  -2.261  -0.478  0.00  0.00    +0.025 C 
ATOM      7  C   UNL     1       0.938  -1.757   0.728  0.00  0.00    +0.129 C 
ATOM      8  C   UNL     1       0.659  -0.264   0.908  0.00  0.00    +0.062 C 
BRANCH   6   9
ATOM      9  C   UNL     1       0.253  -3.783  -0.580  0.00  0.00    -0.008 C 
ATOM     10  C   UNL     1      -0.619  -4.287  -1.732  0.00  0.00    +0.008 C 
BRANCH   9  11
ATOM     11  C   UNL     1       1.712  -4.165  -0.841  0.00  0.00    +0.008 C 
BRANCH  11  12
ATOM     12  C   UNL     1       1.852  -5.688  -0.819  0.00  0.00    +0.027 C 
BRANCH  12  13
ATOM     13  C   UNL     1       3.289  -6.064  -1.076  0.00  0.00    -0.028 C 
ATOM     14  C   UNL     1       3.591  -6.852  -2.077  0.00  0.00    -0.080 C 
ATOM     15  C   UNL     1       2.494  -7.478  -2.901  0.00  0.00    +0.038 C 
ATOM     16  C   UNL     1       5.034  -7.133  -2.407  0.00  0.00    +0.038 C 
ENDBRANCH  12  13
ENDBRANCH  11  12
ENDBRANCH   9  11
ENDBRANCH   6   9
ENDBRANCH   1   7
BRANCH   1  17
ATOM     17  C   UNL     1       1.580  -2.613   2.872  0.00  0.00    +0.282 C 
ATOM     18  C   UNL     1       1.131  -3.593   3.959  0.00  0.00    +0.201 C 
ATOM     19  C   UNL     1      -0.098  -3.023   4.673  0.00  0.00    +0.179 C 
ATOM     20  C   UNL     1       0.249  -1.643   5.241  0.00  0.00    +0.177 C 
ATOM     21  C   UNL     1       0.732  -0.739   4.104  0.00  0.00    +0.178 C 
ATOM     22  O   UNL     1       1.858  -1.342   3.463  0.00  0.00    -0.341 OA
BRANCH  20  23
ATOM     23  O   UNL     1      -0.911  -1.071   5.848  0.00  0.00    -0.386 OA
ATOM     24  H   UNL     1      -1.274  -1.595   6.575  0.00  0.00    +0.210 HD
ENDBRANCH  20  23
BRANCH  19  25
ATOM     25  O   UNL     1      -0.481  -3.897   5.737  0.00  0.00    -0.386 OA
ATOM     26  H   UNL     1      -0.709  -4.791   5.448  0.00  0.00    +0.210 HD
ENDBRANCH  19  25
BRANCH  18  27
ATOM     27  O   UNL     1       0.799  -4.848   3.363  0.00  0.00    -0.384 OA
ATOM     28  H   UNL     1       1.532  -5.265   2.889  0.00  0.00    +0.210 HD
ENDBRANCH  18  27
BRANCH  21  29
ATOM     29  C   UNL     1       1.137   0.623   4.673  0.00  0.00    +0.190 C 
BRANCH  29  30
ATOM     30  O   UNL     1       1.478   1.504   3.601  0.00  0.00    -0.392 OA
ATOM     31  H   UNL     1       1.745   2.388   3.888  0.00  0.00    +0.210 HD
ENDBRANCH  29  30
ENDBRANCH  21  29
ENDBRANCH   1  17
TORSDOF 11
