REMARK  Name = ZINC23228010
REMARK  13 active torsions:
REMARK  status: ('A' for Active; 'I' for Inactive)
REMARK    1  A    between atoms: C_1  and  C_2
REMARK    2  A    between atoms: C_3  and  C_8
REMARK    3  A    between atoms: C_4  and  C_7
REMARK    4  A    between atoms: C_8  and  C_9
REMARK    5  A    between atoms: C_9  and  C_10
REMARK    6  A    between atoms: N_12  and  C_13
REMARK    7  A    between atoms: C_13  and  C_14
REMARK    8  A    between atoms: C_14  and  N_15
REMARK    9  A    between atoms: C_19  and  C_20
REMARK   10  A    between atoms: C_23  and  O_28
REMARK   11  A    between atoms: C_24  and  O_26
REMARK   12  A    between atoms: O_26  and  C_27
REMARK   13  A    between atoms: O_28  and  C_29
REMARK                            x       y       z     vdW  Elec       q    Type
REMARK                         _______ _______ _______ _____ _____    ______ ____
ROOT
ATOM      1  N   UNL     1       1.491  -0.254  -0.803  0.00  0.00    -0.227 N 
ATOM      2  C   UNL     1       2.349   0.693  -0.463  0.00  0.00    +0.260 C 
ATOM      3  O   UNL     1       3.526   0.449  -0.266  0.00  0.00    -0.269 OA
ATOM      4  C   UNL     1       1.809   2.061  -0.334  0.00  0.00    +0.080 C 
ATOM      5  C   UNL     1       2.443   3.214  -0.004  0.00  0.00    +0.028 C 
ATOM      6  S   UNL     1       0.089   1.780  -0.733  0.00  0.00    -0.026 S 
ATOM      7  C   UNL     1       0.189   0.020  -1.020  0.00  0.00    +0.286 C 
ATOM      8  O   UNL     1      -0.702  -0.745  -1.336  0.00  0.00    -0.262 OA
ENDROOT
BRANCH   5   9
ATOM      9  C   UNL     1       1.734   4.496  -0.100  0.00  0.00    -0.020 A 
ATOM     10  C   UNL     1       2.319   5.663   0.406  0.00  0.00    +0.012 A 
ATOM     11  C   UNL     1       1.651   6.864   0.315  0.00  0.00    +0.050 A 
ATOM     12  C   UNL     1       0.397   6.921  -0.279  0.00  0.00    +0.168 A 
ATOM     13  C   UNL     1      -0.193   5.764  -0.785  0.00  0.00    +0.162 A 
ATOM     14  C   UNL     1       0.471   4.556  -0.703  0.00  0.00    +0.057 A 
BRANCH  13  15
ATOM     15  O   UNL     1      -1.421   5.826  -1.366  0.00  0.00    -0.491 OA
ATOM     16  C   UNL     1      -1.966   4.602  -1.864  0.00  0.00    +0.277 C 
ENDBRANCH  13  15
BRANCH  12  17
ATOM     17  O   UNL     1      -0.257   8.109  -0.366  0.00  0.00    -0.431 OA
BRANCH  17  18
ATOM     18  C   UNL     1       0.405   9.255   0.173  0.00  0.00    +0.541 C 
ATOM     19  F   UNL     1       0.644   9.057   1.537  0.00  0.00    -0.166 F 
ATOM     20  F   UNL     1       1.621   9.446  -0.491  0.00  0.00    -0.166 F 
ENDBRANCH  17  18
ENDBRANCH  12  17
ENDBRANCH   5   9
BRANCH   1  21
ATOM     21  C   UNL     1       1.966  -1.633  -0.948  0.00  0.00    +0.136 C 
BRANCH  21  22
ATOM     22  C   UNL     1       2.415  -1.869  -2.391  0.00  0.00    +0.123 C 
BRANCH  22  25
ATOM     23  C   UNL     1       3.338  -3.684  -3.729  0.00  0.00    +0.213 C 
ATOM     24  O   UNL     1       3.348  -2.936  -4.683  0.00  0.00    -0.276 OA
ATOM     25  N   UNL     1       2.890  -3.247  -2.535  0.00  0.00    -0.314 N 
ATOM     26  H   UNL     1       2.881  -3.926  -1.669  0.00  0.00    +0.149 HD
BRANCH  23  27
ATOM     27  C   UNL     1       3.826  -5.102  -3.877  0.00  0.00    +0.100 C 
BRANCH  27  28
ATOM     28  C   UNL     1       4.276  -5.338  -5.320  0.00  0.00    +0.049 C 
BRANCH  28  31
ATOM     29  C   UNL     1       7.297  -6.447  -4.913  0.00  0.00    +0.069 C 
ATOM     30  C   UNL     1       6.078  -7.247  -5.293  0.00  0.00    +0.084 A 
ATOM     31  C   UNL     1       4.764  -6.756  -5.469  0.00  0.00    +0.018 A 
ATOM     32  C   UNL     1       4.047  -7.855  -5.807  0.00  0.00    +0.138 A 
ATOM     33  O   UNL     1       4.907  -8.883  -5.812  0.00  0.00    -0.359 OA
ATOM     34  N   UNL     1       6.026  -8.528  -5.522  0.00  0.00    -0.083 NA
ATOM     35  C   UNL     1       2.573  -7.910  -6.116  0.00  0.00    +0.089 C 
ENDBRANCH  28  31
ENDBRANCH  27  28
ENDBRANCH  23  27
ENDBRANCH  22  25
ENDBRANCH  21  22
ENDBRANCH   1  21
TORSDOF 10
