REMARK  Name = ZINC66740628
REMARK  6 active torsions:
REMARK  status: ('A' for Active; 'I' for Inactive)
REMARK    1  A    between atoms: C_1  and  C_2
REMARK    2  A    between atoms: C_2  and  O_3
REMARK    3  A    between atoms: O_3  and  C_4
REMARK    4  A    between atoms: C_9  and  C_10
REMARK    5  A    between atoms: C_14  and  C_22
REMARK    6  A    between atoms: C_24  and  C_27
REMARK                            x       y       z     vdW  Elec       q    Type
REMARK                         _______ _______ _______ _____ _____    ______ ____
ROOT
ATOM      1  C   UNL     1       1.993  -1.399  -3.487  0.00  0.00    +0.193 C 
ATOM      2  N   UNL     1       2.083  -2.110  -4.773  0.00  0.00    -0.319 N 
ATOM      3  C   UNL     1       0.909  -2.191  -5.534  0.00  0.00    +0.082 A 
ATOM      4  C   UNL     1       0.455  -3.029  -6.470  0.00  0.00    +0.055 A 
ATOM      5  N   UNL     1      -0.783  -2.581  -6.834  0.00  0.00    -0.279 N 
ATOM      6  H   UNL     1      -1.351  -3.001  -7.499  0.00  0.00    +0.189 HD
ATOM      7  N   UNL     1      -1.088  -1.518  -6.167  0.00  0.00    -0.167 NA
ATOM      8  C   UNL     1      -0.118  -1.207  -5.359  0.00  0.00    +0.168 A 
ATOM      9  C   UNL     1       0.083  -0.110  -4.392  0.00  0.00    +0.268 C 
ATOM     10  O   UNL     1      -0.679   0.836  -4.334  0.00  0.00    -0.268 OA
ATOM     11  N   UNL     1       1.155  -0.209  -3.574  0.00  0.00    -0.288 N 
ATOM     12  C   UNL     1       1.171  -4.237  -7.018  0.00  0.00    +0.067 C 
ATOM     13  H   UNL     1       2.916  -2.504  -5.078  0.00  0.00    +0.148 HD
ATOM     14  H   UNL     1       1.377   0.552  -3.015  0.00  0.00    +0.151 HD
ENDROOT
BRANCH   1  20
ATOM     15  C   UNL     1       0.777  -1.811  -1.336  0.00  0.00    +0.127 A 
ATOM     16  C   UNL     1       0.243  -2.672  -0.388  0.00  0.00    +0.053 A 
ATOM     17  C   UNL     1       0.352  -4.034  -0.558  0.00  0.00    +0.001 A 
ATOM     18  C   UNL     1       0.985  -4.564  -1.675  0.00  0.00    +0.125 A 
ATOM     19  C   UNL     1       1.523  -3.695  -2.620  0.00  0.00    +0.056 A 
ATOM     20  C   UNL     1       1.413  -2.330  -2.454  0.00  0.00    +0.036 A 
ATOM     21  O   UNL     1       0.961  -5.926  -1.656  0.00  0.00    -0.488 OA
ATOM     22  C   UNL     1       0.703  -6.376  -0.315  0.00  0.00    +0.175 C 
ATOM     23  C   UNL     1      -0.108  -5.205   0.289  0.00  0.00    +0.083 C 
ATOM     24  C   UNL     1       2.013  -6.583   0.449  0.00  0.00    +0.052 C 
BRANCH  15  25
ATOM     25  O   UNL     1       0.671  -0.465  -1.174  0.00  0.00    -0.492 OA
BRANCH  25  27
ATOM     26  C   UNL     1      -0.019   1.526   0.010  0.00  0.00    +0.048 C 
ATOM     27  C   UNL     1       0.002  -0.004   0.002  0.00  0.00    +0.225 C 
ENDBRANCH  25  27
ENDBRANCH  15  25
ENDBRANCH   1  20
TORSDOF 3
