REMARK  Name = ZINC32479966
REMARK  8 active torsions:
REMARK  status: ('A' for Active; 'I' for Inactive)
REMARK    1  A    between atoms: C_1  and  C_2
REMARK    2  A    between atoms: C_7  and  C_9
REMARK    3  A    between atoms: C_7  and  C_10
REMARK    4  A    between atoms: N_13  and  C_17
REMARK    5  A    between atoms: C_17  and  C_18
REMARK    6  A    between atoms: N_20  and  C_21
REMARK    7  A    between atoms: N_20  and  C_27
REMARK    8  A    between atoms: C_21  and  C_22
REMARK                            x       y       z     vdW  Elec       q    Type
REMARK                         _______ _______ _______ _____ _____    ______ ____
ROOT
ATOM      1  C   UNL     1      -2.150  -3.417  -4.554  0.00  0.00    +0.238 C 
ATOM      2  O   UNL     1      -1.693  -2.370  -4.963  0.00  0.00    -0.273 OA
ATOM      3  N   UNL     1      -3.321  -3.876  -5.040  0.00  0.00    -0.265 N 
ENDROOT
BRANCH   3   4
ATOM      4  C   UNL     1      -4.060  -3.096  -5.939  0.00  0.00    +0.040 A 
ATOM      5  C   UNL     1      -4.212  -3.510  -7.256  0.00  0.00    +0.027 A 
ATOM      6  C   UNL     1      -4.939  -2.741  -8.143  0.00  0.00    +0.051 A 
ATOM      7  C   UNL     1      -5.521  -1.555  -7.723  0.00  0.00    +0.162 A 
ATOM      8  C   UNL     1      -5.373  -1.139  -6.405  0.00  0.00    +0.164 A 
ATOM      9  C   UNL     1      -4.646  -1.912  -5.514  0.00  0.00    +0.073 A 
ATOM     10  O   UNL     1      -5.943   0.019  -5.972  0.00  0.00    -0.485 OA
ATOM     11  C   UNL     1      -6.354   0.951  -6.978  0.00  0.00    +0.270 C 
ATOM     12  C   UNL     1      -7.113   0.179  -8.066  0.00  0.00    +0.270 C 
ATOM     13  O   UNL     1      -6.232  -0.808  -8.613  0.00  0.00    -0.485 OA
ENDBRANCH   3   4
BRANCH   1  14
ATOM     14  C   UNL     1      -1.410  -4.204  -3.504  0.00  0.00    +0.214 C 
BRANCH  14  26
ATOM     15  C   UNL     1       1.306   1.485  -1.107  0.00  0.00    +0.007 C 
ATOM     16  C   UNL     1       1.121  -0.025  -0.929  0.00  0.00    -0.011 C 
ATOM     17  C   UNL     1       1.603  -0.745  -2.191  0.00  0.00    +0.038 C 
ATOM     18  C   UNL     1       1.378  -2.244  -2.045  0.00  0.00    +0.113 C 
ATOM     19  C   UNL     1       2.002  -2.814  -0.786  0.00  0.00    +0.041 C 
ATOM     20  C   UNL     1       1.788  -2.000   0.478  0.00  0.00    -0.032 C 
ATOM     21  C   UNL     1       1.962  -0.503   0.253  0.00  0.00    +0.009 C 
ATOM     22  C   UNL     1       2.842  -2.445   1.516  0.00  0.00    +0.011 C 
ATOM     23  C   UNL     1       0.408  -2.284   1.078  0.00  0.00    +0.011 C 
ATOM     24  C   UNL     1      -0.087  -2.583  -2.158  0.00  0.00    +0.247 C 
ATOM     25  O   UNL     1      -1.014  -2.126  -1.524  0.00  0.00    -0.273 OA
ATOM     26  N   UNL     1      -0.177  -3.500  -3.145  0.00  0.00    -0.215 N 
ATOM     27  C   UNL     1       1.001  -3.684  -3.751  0.00  0.00    +0.310 C 
ATOM     28  O   UNL     1       1.171  -4.450  -4.680  0.00  0.00    -0.252 OA
ATOM     29  N   UNL     1       1.974  -2.928  -3.215  0.00  0.00    -0.285 N 
ATOM     30  H   UNL     1       2.888  -2.837  -3.522  0.00  0.00    +0.151 HD
ENDBRANCH  14  26
ENDBRANCH   1  14
BRANCH   3  31
ATOM     31  C   UNL     1      -3.821  -5.189  -4.627  0.00  0.00    +0.156 C 
BRANCH  31  32
ATOM     32  C   UNL     1      -4.679  -5.037  -3.398  0.00  0.00    +0.007 A 
ATOM     33  C   UNL     1      -6.015  -4.825  -3.312  0.00  0.00    +0.013 A 
ATOM     34  C   UNL     1      -6.597  -4.716  -2.062  0.00  0.00    +0.008 A 
ATOM     35  C   UNL     1      -5.814  -4.826  -0.961  0.00  0.00    +0.045 A 
ATOM     36  S   UNL     1      -4.202  -5.097  -1.679  0.00  0.00    -0.100 S 
ENDBRANCH  31  32
ENDBRANCH   3  31
TORSDOF 5
