REMARK  Name = ZINC01199529
REMARK  7 active torsions:
REMARK  status: ('A' for Active; 'I' for Inactive)
REMARK    1  A    between atoms: C_1  and  C_2
REMARK    2  A    between atoms: C_4  and  O_25
REMARK    3  A    between atoms: C_6  and  O_24
REMARK    4  A    between atoms: C_8  and  O_23
REMARK    5  A    between atoms: C_10  and  N_13
REMARK    6  A    between atoms: N_13  and  C_14
REMARK    7  A    between atoms: C_18  and  N_20
REMARK                            x       y       z     vdW  Elec       q    Type
REMARK                         _______ _______ _______ _____ _____    ______ ____
ROOT
ATOM      1  C   UNL     1       3.010  -0.341   2.380  0.00  0.00    +0.041 C 
ATOM      2  C   UNL     1       2.216   0.101   1.149  0.00  0.00    +0.149 C 
ATOM      3  C   UNL     1       0.809  -0.499   1.206  0.00  0.00    +0.174 C 
ATOM      4  C   UNL     1       0.002  -0.004   0.002  0.00  0.00    +0.178 C 
ATOM      5  C   UNL     1      -0.019   1.528   0.010  0.00  0.00    +0.192 C 
ATOM      6  C   UNL     1       1.420   2.050  -0.001  0.00  0.00    +0.235 C 
ATOM      7  O   UNL     1       2.124   1.527   1.128  0.00  0.00    -0.351 OA
ENDROOT
BRANCH   6   8
ATOM      8  N   UNL     1       2.086   1.621  -1.233  0.00  0.00    -0.317 N 
ATOM      9  H   UNL     1       1.879   0.756  -1.621  0.00  0.00    +0.149 HD
BRANCH   8  10
ATOM     10  C   UNL     1       3.020   2.457  -1.850  0.00  0.00    +0.031 A 
ATOM     11  C   UNL     1       3.318   3.696  -1.296  0.00  0.00    +0.023 A 
ATOM     12  C   UNL     1       4.241   4.520  -1.908  0.00  0.00    +0.004 A 
ATOM     13  C   UNL     1       4.869   4.114  -3.071  0.00  0.00    +0.033 A 
ATOM     14  C   UNL     1       4.574   2.882  -3.625  0.00  0.00    +0.128 A 
ATOM     15  C   UNL     1       3.656   2.050  -3.015  0.00  0.00    +0.055 A 
BRANCH  14  16
ATOM     16  N   UNL     1       5.249   2.451  -4.870  0.00  0.00    +0.056 N 
ATOM     17  O   UNL     1       6.063   3.181  -5.406  0.00  0.00    -0.126 OA
ATOM     18  O   UNL     1       4.990   1.365  -5.359  0.00  0.00    -0.126 OA
ENDBRANCH  14  16
ENDBRANCH   8  10
ENDBRANCH   6   8
BRANCH   5  19
ATOM     19  O   UNL     1      -0.685   1.990   1.187  0.00  0.00    -0.385 OA
ATOM     20  H   UNL     1      -0.736   2.953   1.258  0.00  0.00    +0.210 HD
ENDBRANCH   5  19
BRANCH   4  21
ATOM     21  O   UNL     1      -1.335  -0.501   0.086  0.00  0.00    -0.386 OA
ATOM     22  H   UNL     1      -1.906  -0.220  -0.642  0.00  0.00    +0.210 HD
ENDBRANCH   4  21
BRANCH   3  23
ATOM     23  O   UNL     1       0.164  -0.092   2.414  0.00  0.00    -0.387 OA
ATOM     24  H   UNL     1       0.622  -0.372   3.218  0.00  0.00    +0.210 HD
ENDBRANCH   3  23
TORSDOF 6
