REMARK  Name = ZINC51096566
REMARK  5 active torsions:
REMARK  status: ('A' for Active; 'I' for Inactive)
REMARK    1  A    between atoms: C_1  and  C_2
REMARK    2  A    between atoms: C_8  and  N_10
REMARK    3  A    between atoms: C_11  and  C_13
REMARK    4  A    between atoms: C_17  and  N_19
REMARK    5  A    between atoms: N_19  and  N_20
REMARK                            x       y       z     vdW  Elec       q    Type
REMARK                         _______ _______ _______ _____ _____    ______ ____
ROOT
ATOM      1  C   UNL     1       4.184   0.640   2.378  0.00  0.00    +0.146 A 
ATOM      2  C   UNL     1       4.881   0.768   3.576  0.00  0.00    +0.072 A 
ATOM      3  C   UNL     1       6.184   1.250   3.554  0.00  0.00    +0.026 A 
ATOM      4  C   UNL     1       6.744   1.586   2.336  0.00  0.00    +0.046 A 
ATOM      5  C   UNL     1       5.990   1.434   1.173  0.00  0.00    +0.133 A 
ATOM      6  N   UNL     1       4.756   0.969   1.224  0.00  0.00    -0.225 NA
ATOM      7 CL   UNL     1       4.131   0.332   5.080  0.00  0.00    -0.081 Cl
ENDROOT
BRANCH   1   9
ATOM      8  N   UNL     1       2.116  -0.004   1.231  0.00  0.00    -0.307 N 
ATOM      9  C   UNL     1       2.795   0.128   2.388  0.00  0.00    +0.264 C 
ATOM     10  O   UNL     1       2.267  -0.174   3.440  0.00  0.00    -0.268 OA
ATOM     11  H   UNL     1       2.538   0.237   0.392  0.00  0.00    +0.149 HD
BRANCH   8  18
ATOM     12  C   UNL     1      -0.019   1.526   0.010  0.00  0.00    +0.009 C 
ATOM     13  C   UNL     1       0.002  -0.004   0.002  0.00  0.00    +0.006 C 
ATOM     14  C   UNL     1       0.718  -0.497  -1.257  0.00  0.00    +0.005 C 
ATOM     15  C   UNL     1       0.739  -2.027  -1.265  0.00  0.00    +0.000 C 
ATOM     16  C   UNL     1       1.479  -2.534  -0.026  0.00  0.00    +0.002 C 
ATOM     17  C   UNL     1       0.763  -2.041   1.233  0.00  0.00    +0.022 C 
ATOM     18  C   UNL     1       0.742  -0.511   1.242  0.00  0.00    +0.076 C 
ENDBRANCH   8  18
ENDBRANCH   1   9
BRANCH   5  19
ATOM     19  N   UNL     1       6.547   1.771  -0.056  0.00  0.00    -0.268 N 
ATOM     20  H   UNL     1       7.455   2.110  -0.101  0.00  0.00    +0.167 HD
BRANCH  19  21
ATOM     21  N   UNL     1       5.816   1.624  -1.200  0.00  0.00    -0.255 NA
ATOM     22  H   UNL     1       4.948   2.135  -1.143  0.00  0.00    +0.140 HD
ATOM     23  H   UNL     1       6.349   1.907  -2.009  0.00  0.00    +0.140 HD
ENDBRANCH  19  21
ENDBRANCH   5  19
TORSDOF 4
