REMARK  Name = ZINC13071112
REMARK  18 active torsions:
REMARK  status: ('A' for Active; 'I' for Inactive)
REMARK    1  A    between atoms: C_1  and  C_2
REMARK    2  A    between atoms: C_4  and  C_36
REMARK    3  A    between atoms: C_6  and  O_8
REMARK    4  A    between atoms: O_8  and  C_9
REMARK    5  A    between atoms: C_9  and  C_10
REMARK    6  A    between atoms: N_12  and  C_13
REMARK    7  A    between atoms: N_12  and  C_14
REMARK    8  A    between atoms: C_14  and  C_15
REMARK    9  A    between atoms: N_17  and  C_18
REMARK   10  A    between atoms: N_17  and  C_22
REMARK   11  A    between atoms: C_18  and  C_19
REMARK   12  A    between atoms: C_19  and  C_20
REMARK   13  A    between atoms: C_19  and  C_21
REMARK   14  A    between atoms: C_23  and  N_35
REMARK   15  A    between atoms: N_24  and  C_31
REMARK   16  A    between atoms: C_31  and  C_32
REMARK   17  A    between atoms: C_32  and  C_33
REMARK   18  A    between atoms: C_32  and  C_34
REMARK                            x       y       z     vdW  Elec       q    Type
REMARK                         _______ _______ _______ _____ _____    ______ ____
ROOT
ATOM      1  C   UNL     1       6.931   6.174  -1.144  0.00  0.00    +0.237 C 
ATOM      2  O   UNL     1       6.256   5.449  -1.845  0.00  0.00    -0.274 OA
ATOM      3  N   UNL     1       8.034   6.764  -1.649  0.00  0.00    -0.263 N 
ENDROOT
BRANCH   3   4
ATOM      4  C   UNL     1       8.344   6.625  -3.019  0.00  0.00    +0.140 A 
ATOM      5  C   UNL     1       9.514   6.011  -3.415  0.00  0.00    +0.127 A 
ATOM      6  N   UNL     1       9.788   5.890  -4.758  0.00  0.00    -0.280 N 
ATOM      7  C   UNL     1       8.925   6.365  -5.674  0.00  0.00    +0.331 A 
ATOM      8  O   UNL     1       9.186   6.249  -6.856  0.00  0.00    -0.246 OA
ATOM      9  N   UNL     1       7.780   6.968  -5.306  0.00  0.00    -0.273 N 
ATOM     10  H   UNL     1       7.158   7.316  -6.008  0.00  0.00    +0.173 HD
ATOM     11  C   UNL     1       7.462   7.107  -4.005  0.00  0.00    +0.277 A 
ATOM     12  O   UNL     1       6.419   7.650  -3.683  0.00  0.00    -0.266 OA
BRANCH   5  13
ATOM     13  N   UNL     1      10.395   5.525  -2.479  0.00  0.00    -0.343 N 
ATOM     14  H   UNL     1      10.157   5.532  -1.539  0.00  0.00    +0.144 HD
ATOM     15  H   UNL     1      11.255   5.174  -2.759  0.00  0.00    +0.144 HD
ENDBRANCH   5  13
BRANCH   6  16
ATOM     16  C   UNL     1      11.026   5.239  -5.192  0.00  0.00    +0.131 C 
BRANCH  16  17
ATOM     17  C   UNL     1      10.779   3.739  -5.367  0.00  0.00    +0.003 C 
ATOM     18  C   UNL     1       9.783   3.515  -6.507  0.00  0.00    +0.009 C 
ATOM     19  C   UNL     1      12.099   3.040  -5.700  0.00  0.00    +0.009 C 
ENDBRANCH  16  17
ENDBRANCH   6  16
ENDBRANCH   3   4
BRANCH   1  20
ATOM     20  C   UNL     1       6.537   6.416   0.290  0.00  0.00    +0.203 C 
BRANCH  20  23
ATOM     21  C   UNL     1       5.230   4.488   1.006  0.00  0.00    +0.253 C 
ATOM     22  O   UNL     1       6.268   3.885   1.180  0.00  0.00    -0.272 OA
ATOM     23  N   UNL     1       5.255   5.760   0.562  0.00  0.00    -0.293 N 
ATOM     24  C   UNL     1       4.001   6.488   0.352  0.00  0.00    +0.132 C 
BRANCH  21  25
ATOM     25  C   UNL     1       3.912   3.813   1.285  0.00  0.00    +0.324 C 
BRANCH  25  26
ATOM     26  O   UNL     1       4.146   2.480   1.741  0.00  0.00    -0.483 OA
BRANCH  26  32
ATOM     27  C   UNL     1      -0.709   2.078   2.039  0.00  0.00    +0.044 C 
ATOM     28  C   UNL     1       0.673   1.499   2.200  0.00  0.00    -0.047 A 
ATOM     29  C   UNL     1       0.829   0.199   2.646  0.00  0.00    +0.007 A 
ATOM     30  C   UNL     1       2.096  -0.337   2.790  0.00  0.00    -0.047 A 
ATOM     31  C   UNL     1       3.208   0.425   2.487  0.00  0.00    +0.049 A 
ATOM     32  C   UNL     1       3.053   1.729   2.039  0.00  0.00    +0.122 A 
ATOM     33  C   UNL     1       1.782   2.264   1.896  0.00  0.00    +0.049 A 
ATOM     34  C   UNL     1       2.263  -1.753   3.277  0.00  0.00    +0.044 C 
ENDBRANCH  26  32
ENDBRANCH  25  26
ENDBRANCH  21  25
ENDBRANCH  20  23
ENDBRANCH   1  20
BRANCH   3  35
ATOM     35  C   UNL     1       8.910   7.549  -0.776  0.00  0.00    +0.117 C 
BRANCH  35  36
ATOM     36  C   UNL     1       8.367   8.975  -0.657  0.00  0.00    +0.001 C 
ATOM     37  C   UNL     1       9.188   9.748   0.377  0.00  0.00    +0.009 C 
ATOM     38  C   UNL     1       8.467   9.674  -2.014  0.00  0.00    +0.009 C 
ENDBRANCH  35  36
ENDBRANCH   3  35
TORSDOF 11
