REMARK  Name = ZINC46084909
REMARK  7 active torsions:
REMARK  status: ('A' for Active; 'I' for Inactive)
REMARK    1  A    between atoms: C_1  and  C_2
REMARK    2  A    between atoms: C_5  and  O_8
REMARK    3  A    between atoms: O_8  and  C_9
REMARK    4  A    between atoms: C_9  and  C_10
REMARK    5  A    between atoms: C_10  and  C_11
REMARK    6  A    between atoms: C_11  and  N_12
REMARK    7  A    between atoms: N_22  and  O_23
REMARK                            x       y       z     vdW  Elec       q    Type
REMARK                         _______ _______ _______ _____ _____    ______ ____
ROOT
ATOM      1  N   UNL     1       0.124  -8.453   2.200  0.00  0.00    -0.264 N 
ATOM      2  C   UNL     1      -1.017  -9.244   2.093  0.00  0.00    +0.066 A 
ATOM      3  C   UNL     1      -0.644 -10.581   1.908  0.00  0.00    +0.032 A 
ATOM      4  C   UNL     1      -1.611 -11.570   1.774  0.00  0.00    +0.013 A 
ATOM      5  C   UNL     1      -2.949 -11.233   1.824  0.00  0.00    +0.022 A 
ATOM      6  C   UNL     1      -3.325  -9.912   2.006  0.00  0.00    +0.061 A 
ATOM      7  C   UNL     1      -2.369  -8.921   2.141  0.00  0.00    +0.081 A 
ATOM      8 CL   UNL     1      -2.859  -7.271   2.369  0.00  0.00    -0.080 Cl
ATOM      9 CL   UNL     1      -5.009  -9.497   2.067  0.00  0.00    -0.082 Cl
ATOM     10  C   UNL     1       0.839 -10.605   1.902  0.00  0.00    +0.173 C 
ATOM     11  N   UNL     1       1.615 -11.640   1.758  0.00  0.00    -0.082 NA
ATOM     12  C   UNL     1       1.244  -9.188   2.090  0.00  0.00    +0.273 C 
ATOM     13  O   UNL     1       2.384  -8.769   2.140  0.00  0.00    -0.268 OA
ENDROOT
BRANCH  11  14
ATOM     14  O   UNL     1       3.022 -11.479   1.777  0.00  0.00    -0.409 OA
ATOM     15  H   UNL     1       3.514 -12.303   1.662  0.00  0.00    +0.328 HD
ENDBRANCH  11  14
BRANCH   1  16
ATOM     16  C   UNL     1       0.106  -7.002   2.400  0.00  0.00    +0.117 C 
BRANCH  16  17
ATOM     17  C   UNL     1       0.090  -6.300   1.040  0.00  0.00    +0.060 C 
BRANCH  17  18
ATOM     18  C   UNL     1       0.072  -4.785   1.249  0.00  0.00    +0.230 C 
BRANCH  18  19
ATOM     19  O   UNL     1       0.057  -4.129  -0.021  0.00  0.00    -0.492 OA
BRANCH  19  24
ATOM     20  C   UNL     1      -0.018   1.503   0.010  0.00  0.00    +0.044 C 
ATOM     21  C   UNL     1       0.002  -0.004   0.002  0.00  0.00    -0.050 A 
ATOM     22  C   UNL     1       0.006  -0.688  -1.200  0.00  0.00    +0.007 A 
ATOM     23  C   UNL     1       0.024  -2.069  -1.210  0.00  0.00    +0.046 A 
ATOM     24  C   UNL     1       0.039  -2.770  -0.013  0.00  0.00    +0.121 A 
ATOM     25  C   UNL     1       0.036  -2.082   1.191  0.00  0.00    +0.046 A 
ATOM     26  C   UNL     1       0.023  -0.701   1.196  0.00  0.00    +0.007 A 
ENDBRANCH  19  24
ENDBRANCH  18  19
ENDBRANCH  17  18
ENDBRANCH  16  17
ENDBRANCH   1  16
TORSDOF 6
