REMARK  Name = ZINC65774552
REMARK  11 active torsions:
REMARK  status: ('A' for Active; 'I' for Inactive)
REMARK    1  A    between atoms: C_1  and  C_2
REMARK    2  A    between atoms: C_6  and  C_26
REMARK    3  A    between atoms: C_7  and  O_8
REMARK    4  A    between atoms: O_8  and  C_9
REMARK    5  A    between atoms: C_9  and  C_10
REMARK    6  A    between atoms: C_9  and  C_11
REMARK    7  A    between atoms: N_13  and  N_14
REMARK    8  A    between atoms: N_17  and  C_18
REMARK    9  A    between atoms: N_22  and  C_23
REMARK   10  A    between atoms: C_23  and  C_24
REMARK   11  A    between atoms: C_23  and  C_25
REMARK                            x       y       z     vdW  Elec       q    Type
REMARK                         _______ _______ _______ _____ _____    ______ ____
ROOT
ATOM      1  C   UNL     1      -1.049  -0.086   4.005  0.00  0.00    +0.270 C 
ATOM      2  O   UNL     1       0.035  -0.221   4.532  0.00  0.00    -0.270 OA
ATOM      3  N   UNL     1      -2.166  -0.066   4.759  0.00  0.00    -0.230 N 
ATOM      4  H   UNL     1      -3.033   0.042   4.338  0.00  0.00    +0.173 HD
ENDROOT
BRANCH   3   5
ATOM      5  N   UNL     1      -2.075  -0.200   6.151  0.00  0.00    -0.218 N 
ATOM      6  C   UNL     1      -3.192  -0.180   6.904  0.00  0.00    +0.321 C 
ATOM      7  O   UNL     1      -3.113  -0.297   8.112  0.00  0.00    -0.251 OA
ATOM      8  N   UNL     1      -4.397  -0.030   6.319  0.00  0.00    -0.253 N 
ATOM      9  H   UNL     1      -1.208  -0.308   6.572  0.00  0.00    +0.174 HD
ATOM     10  H   UNL     1      -4.460   0.063   5.356  0.00  0.00    +0.158 HD
BRANCH   8  11
ATOM     11  C   UNL     1      -5.554  -0.009   7.099  0.00  0.00    +0.125 A 
ATOM     12  C   UNL     1      -5.612  -0.122   8.454  0.00  0.00    +0.065 A 
ATOM     13  C   UNL     1      -6.955  -0.052   8.832  0.00  0.00    +0.136 A 
ATOM     14  N   UNL     1      -7.679   0.098   7.753  0.00  0.00    -0.178 NA
ATOM     15  N   UNL     1      -6.820   0.134   6.647  0.00  0.00    -0.248 N 
BRANCH  15  16
ATOM     16  C   UNL     1      -7.223   0.295   5.247  0.00  0.00    +0.103 C 
ATOM     17  C   UNL     1      -8.153  -0.852   4.849  0.00  0.00    +0.032 C 
ATOM     18  C   UNL     1      -7.955   1.628   5.078  0.00  0.00    +0.032 C 
ENDBRANCH  15  16
ENDBRANCH   8  11
ENDBRANCH   3   5
BRANCH   1  19
ATOM     19  C   UNL     1      -1.147   0.059   2.509  0.00  0.00    +0.257 C 
ATOM     20  C   UNL     1      -1.683   1.450   2.165  0.00  0.00    +0.062 C 
BRANCH  19  21
ATOM     21  O   UNL     1       0.148  -0.110   1.928  0.00  0.00    -0.479 OA
BRANCH  21  28
ATOM     22  C   UNL     1       0.141  -2.934   1.892  0.00  0.00    +0.047 C 
ATOM     23  C   UNL     1       0.205  -2.106   0.635  0.00  0.00    -0.007 A 
ATOM     24  C   UNL     1       0.257  -2.725  -0.599  0.00  0.00    +0.027 A 
ATOM     25  C   UNL     1       0.316  -1.965  -1.754  0.00  0.00    +0.042 A 
ATOM     26  C   UNL     1       0.323  -0.584  -1.675  0.00  0.00    +0.027 A 
ATOM     27  C   UNL     1       0.270   0.039  -0.443  0.00  0.00    -0.007 A 
ATOM     28  C   UNL     1       0.205  -0.721   0.715  0.00  0.00    +0.127 A 
ATOM     29  C   UNL     1       0.278   1.544  -0.358  0.00  0.00    +0.047 C 
ATOM     30 CL   UNL     1       0.383  -2.746  -3.303  0.00  0.00    -0.084 Cl
ENDBRANCH  21  28
ENDBRANCH  19  21
ENDBRANCH   1  19
TORSDOF 6
