REMARK  Name = ZINC14257957
REMARK  8 active torsions:
REMARK  status: ('A' for Active; 'I' for Inactive)
REMARK    1  A    between atoms: C_1  and  C_2
REMARK    2  A    between atoms: C_9  and  C_11
REMARK    3  A    between atoms: C_14  and  C_24
REMARK    4  A    between atoms: C_15  and  N_17
REMARK    5  A    between atoms: C_18  and  C_20
REMARK    6  A    between atoms: C_20  and  C_21
REMARK    7  A    between atoms: C_20  and  C_22
REMARK    8  A    between atoms: C_20  and  C_23
REMARK                            x       y       z     vdW  Elec       q    Type
REMARK                         _______ _______ _______ _____ _____    ______ ____
ROOT
ATOM      1  C   UNL     1      -1.052  -3.453   0.015  0.00  0.00    +0.039 A 
ATOM      2  C   UNL     1      -2.448  -3.485   0.038  0.00  0.00    +0.013 A 
ATOM      3  C   UNL     1      -3.110  -4.696   0.029  0.00  0.00    +0.006 A 
ATOM      4  C   UNL     1      -2.397  -5.880   0.006  0.00  0.00    -0.029 A 
ATOM      5  C   UNL     1      -1.007  -5.858  -0.012  0.00  0.00    +0.037 A 
ATOM      6  C   UNL     1      -0.332  -4.647  -0.008  0.00  0.00    +0.036 A 
ATOM      7  C   UNL     1      -3.128  -7.197   0.002  0.00  0.00    +0.045 C 
ENDROOT
BRANCH   1  16
ATOM      8  C   UNL     1       1.191   3.586   0.059  0.00  0.00    +0.044 C 
ATOM      9  C   UNL     1       1.209   2.079   0.043  0.00  0.00    -0.047 A 
ATOM     10  C   UNL     1       2.421   1.405   0.021  0.00  0.00    +0.005 A 
ATOM     11  C   UNL     1       2.454   0.029   0.006  0.00  0.00    +0.032 A 
ATOM     12  C   UNL     1       1.257  -0.692   0.014  0.00  0.00    +0.110 A 
ATOM     13  C   UNL     1       0.033  -0.006   0.037  0.00  0.00    +0.156 A 
ATOM     14  C   UNL     1       0.020   1.381   0.051  0.00  0.00    +0.052 A 
ATOM     15  O   UNL     1      -0.934  -0.950   0.039  0.00  0.00    -0.435 OA
ATOM     16  C   UNL     1      -0.340  -2.158   0.019  0.00  0.00    +0.228 A 
ATOM     17  N   UNL     1       0.961  -2.017   0.004  0.00  0.00    -0.209 NA
ENDBRANCH   1  16
BRANCH   5  18
ATOM     18  N   UNL     1      -0.289  -7.060  -0.034  0.00  0.00    -0.285 N 
ATOM     19  C   UNL     1       0.871  -7.139  -0.715  0.00  0.00    +0.223 C 
ATOM     20  O   UNL     1       1.335  -6.149  -1.240  0.00  0.00    -0.275 OA
ATOM     21  H   UNL     1      -0.627  -7.835   0.441  0.00  0.00    +0.155 HD
BRANCH  19  22
ATOM     22  C   UNL     1       1.592  -8.458  -0.823  0.00  0.00    +0.039 C 
ATOM     23  C   UNL     1       2.872  -8.273  -1.642  0.00  0.00    +0.020 C 
ATOM     24  C   UNL     1       1.950  -8.960   0.577  0.00  0.00    +0.020 C 
ATOM     25  C   UNL     1       0.687  -9.479  -1.515  0.00  0.00    +0.020 C 
ENDBRANCH  19  22
ENDBRANCH   5  18
TORSDOF 3
