REMARK  Name = ZINC06772561
REMARK  8 active torsions:
REMARK  status: ('A' for Active; 'I' for Inactive)
REMARK    1  A    between atoms: C_1  and  C_2
REMARK    2  A    between atoms: C_7  and  N_8
REMARK    3  A    between atoms: C_9  and  C_11
REMARK    4  A    between atoms: C_12  and  N_25
REMARK    5  A    between atoms: N_13  and  C_16
REMARK    6  A    between atoms: C_16  and  C_17
REMARK    7  A    between atoms: C_20  and  S_23
REMARK    8  A    between atoms: S_23  and  C_24
REMARK                            x       y       z     vdW  Elec       q    Type
REMARK                         _______ _______ _______ _____ _____    ______ ____
ROOT
ATOM      1  C   UNL     1       0.144   0.091  -4.844  0.00  0.00    +0.188 A 
ATOM      2  C   UNL     1       0.244  -0.464  -6.114  0.00  0.00    +0.147 A 
ATOM      3  N   UNL     1       0.293   0.575  -6.981  0.00  0.00    -0.226 N 
ATOM      4  N   UNL     1       0.221   1.748  -6.218  0.00  0.00    -0.063 NA
ATOM      5  N   UNL     1       0.130   1.431  -4.974  0.00  0.00    -0.123 NA
ENDROOT
BRANCH   1   7
ATOM      6  N   UNL     1      -0.033   0.011  -2.412  0.00  0.00    -0.280 N 
ATOM      7  C   UNL     1       0.062  -0.653  -3.581  0.00  0.00    +0.272 C 
ATOM      8  O   UNL     1       0.078  -1.870  -3.590  0.00  0.00    -0.268 OA
ATOM      9  H   UNL     1      -0.127   0.977  -2.409  0.00  0.00    +0.155 HD
BRANCH   6  16
ATOM     10  C   UNL     1      -1.255   1.195  -0.132  0.00  0.00    +0.045 C 
ATOM     11  C   UNL     1      -0.579  -0.151  -0.066  0.00  0.00    -0.029 A 
ATOM     12  C   UNL     1      -0.545  -0.849   1.125  0.00  0.00    +0.006 A 
ATOM     13  C   UNL     1       0.074  -2.083   1.188  0.00  0.00    +0.020 A 
ATOM     14  C   UNL     1       0.662  -2.624   0.057  0.00  0.00    +0.043 A 
ATOM     15  C   UNL     1       0.632  -1.929  -1.138  0.00  0.00    +0.043 A 
ATOM     16  C   UNL     1       0.005  -0.691  -1.204  0.00  0.00    +0.038 A 
ATOM     17 CL   UNL     1       1.439  -4.174   0.139  0.00  0.00    -0.083 Cl
ENDBRANCH   6  16
ENDBRANCH   1   7
BRANCH   2  18
ATOM     18  N   UNL     1       0.285  -1.806  -6.428  0.00  0.00    -0.341 N 
ATOM     19  H   UNL     1       0.243  -2.471  -5.723  0.00  0.00    +0.144 HD
ATOM     20  H   UNL     1       0.357  -2.086  -7.354  0.00  0.00    +0.144 HD
ENDBRANCH   2  18
BRANCH   3  21
ATOM     21  C   UNL     1       0.400   0.488  -8.440  0.00  0.00    +0.182 C 
BRANCH  21  22
ATOM     22  C   UNL     1      -0.980   0.439  -9.043  0.00  0.00    -0.026 A 
ATOM     23  C   UNL     1      -1.599  -0.780  -9.252  0.00  0.00    +0.006 A 
ATOM     24  C   UNL     1      -2.866  -0.829  -9.799  0.00  0.00    +0.015 A 
ATOM     25  C   UNL     1      -3.515   0.349 -10.150  0.00  0.00    +0.008 A 
ATOM     26  C   UNL     1      -2.888   1.572  -9.943  0.00  0.00    +0.015 A 
ATOM     27  C   UNL     1      -1.623   1.613  -9.391  0.00  0.00    +0.006 A 
BRANCH  25  28
ATOM     28  S   UNL     1      -5.129   0.292 -10.854  0.00  0.00    -0.129 S 
ATOM     29  C   UNL     1      -5.515  -1.479 -10.924  0.00  0.00    +0.090 C 
ENDBRANCH  25  28
ENDBRANCH  21  22
ENDBRANCH   3  21
TORSDOF 6
