REMARK  Name = ZINC12911771
REMARK  8 active torsions:
REMARK  status: ('A' for Active; 'I' for Inactive)
REMARK    1  A    between atoms: C_1  and  C_2
REMARK    2  A    between atoms: C_2  and  C_29
REMARK    3  A    between atoms: N_5  and  N_9
REMARK    4  A    between atoms: C_10  and  C_12
REMARK    5  A    between atoms: C_12  and  N_68
REMARK    6  A    between atoms: C_16  and  C_18
REMARK    7  A    between atoms: C_29  and  C_30
REMARK    8  A    between atoms: C_30  and  C_31
REMARK                            x       y       z     vdW  Elec       q    Type
REMARK                         _______ _______ _______ _____ _____    ______ ____
ROOT
ATOM      1  N   UNL     1      -1.145  -0.490  -4.201  0.00  0.00    -0.225 N 
ATOM      2  C   UNL     1      -1.687  -0.019  -5.341  0.00  0.00    +0.213 C 
ATOM      3  O   UNL     1      -2.232   1.064  -5.351  0.00  0.00    -0.276 OA
ATOM      4  H   UNL     1      -0.709  -1.357  -4.193  0.00  0.00    +0.173 HD
ENDROOT
BRANCH   1   9
ATOM      5  C   UNL     1      -0.589   3.134  -1.357  0.00  0.00    +0.041 C 
ATOM      6  C   UNL     1      -0.702   1.612  -1.249  0.00  0.00    +0.112 C 
ATOM      7  C   UNL     1      -0.169   0.944  -2.501  0.00  0.00    +0.263 C 
ATOM      8  O   UNL     1       0.960   1.004  -2.939  0.00  0.00    -0.271 OA
ATOM      9  N   UNL     1      -1.211   0.271  -3.027  0.00  0.00    -0.137 N 
ATOM     10  C   UNL     1      -2.317   0.419  -2.288  0.00  0.00    +0.326 C 
ATOM     11  O   UNL     1      -3.385  -0.093  -2.561  0.00  0.00    -0.251 OA
ATOM     12  N   UNL     1      -2.115   1.199  -1.211  0.00  0.00    -0.284 N 
ATOM     13  H   UNL     1      -2.772   1.442  -0.540  0.00  0.00    +0.151 HD
BRANCH   6  14
ATOM     14  C   UNL     1       0.041   1.105  -0.011  0.00  0.00    +0.040 C 
BRANCH  14  15
ATOM     15  C   UNL     1      -0.664   1.611   1.249  0.00  0.00    +0.038 C 
BRANCH  15  16
ATOM     16  C   UNL     1       0.068   1.112   2.469  0.00  0.00    -0.047 A 
ATOM     17  C   UNL     1      -0.287  -0.095   3.041  0.00  0.00    +0.003 A 
ATOM     18  C   UNL     1       0.387  -0.555   4.157  0.00  0.00    +0.000 A 
ATOM     19  C   UNL     1       1.409   0.196   4.706  0.00  0.00    +0.000 A 
ATOM     20  C   UNL     1       1.760   1.406   4.136  0.00  0.00    +0.000 A 
ATOM     21  C   UNL     1       1.089   1.864   3.018  0.00  0.00    +0.003 A 
ENDBRANCH  15  16
ENDBRANCH  14  15
ENDBRANCH   6  14
ENDBRANCH   1   9
BRANCH   2  22
ATOM     22  C   UNL     1      -1.616  -0.838  -6.604  0.00  0.00    +0.021 C 
BRANCH  22  27
ATOM     23  C   UNL     1      -3.745  -0.157  -7.555  0.00  0.00    -0.077 C 
ATOM     24  C   UNL     1      -4.282  -0.189  -9.008  0.00  0.00    -0.020 C 
ATOM     25  C   UNL     1      -3.225  -1.078  -9.713  0.00  0.00    -0.013 C 
ATOM     26  C   UNL     1      -1.911  -0.683  -9.007  0.00  0.00    -0.037 C 
ATOM     27  N   UNL     1      -2.279  -0.095  -7.707  0.00  0.00    +0.390 N 
ATOM     28  H   UNL     1      -1.977   0.886  -7.679  0.00  0.00    -0.080 HD
BRANCH  26  29
ATOM     29  C   UNL     1      -1.047  -1.902  -8.812  0.00  0.00    -0.057 A 
ATOM     30  C   UNL     1       0.264  -1.896  -9.252  0.00  0.00    +0.006 A 
ATOM     31  C   UNL     1       1.063  -3.011  -9.076  0.00  0.00    +0.049 A 
ATOM     32  C   UNL     1       0.544  -4.136  -8.458  0.00  0.00    +0.162 A 
ATOM     33  C   UNL     1      -0.771  -4.143  -8.016  0.00  0.00    +0.162 A 
ATOM     34  C   UNL     1      -1.566  -3.022  -8.188  0.00  0.00    +0.051 A 
ATOM     35  O   UNL     1      -1.272  -5.256  -7.407  0.00  0.00    -0.488 OA
ATOM     36  C   UNL     1      -0.729  -5.565  -6.122  0.00  0.00    +0.232 C 
ATOM     37  C   UNL     1       0.562  -6.357  -6.259  0.00  0.00    +0.082 C 
ATOM     38  C   UNL     1       1.666  -5.554  -6.928  0.00  0.00    +0.232 C 
ATOM     39  O   UNL     1       1.321  -5.244  -8.279  0.00  0.00    -0.488 OA
ENDBRANCH  26  29
ENDBRANCH  22  27
ENDBRANCH   2  22
TORSDOF 7
