REMARK  Name = ZINC24719763
REMARK  6 active torsions:
REMARK  status: ('A' for Active; 'I' for Inactive)
REMARK    1  A    between atoms: C_6  and  N_7
REMARK    2  A    between atoms: C_10  and  C_15
REMARK    3  A    between atoms: C_15  and  S_16
REMARK    4  A    between atoms: S_16  and  C_17
REMARK    5  A    between atoms: C_20  and  C_23
REMARK    6  A    between atoms: N_21  and  N_22
REMARK                            x       y       z     vdW  Elec       q    Type
REMARK                         _______ _______ _______ _____ _____    ______ ____
ROOT
ATOM      1  N   UNL     1      -0.073   1.314  -0.263  0.00  0.00    -0.284 N 
ATOM      2  C   UNL     1      -1.279   1.973  -0.123  0.00  0.00    +0.224 A 
ATOM      3  N   UNL     1      -2.410   1.278  -0.028  0.00  0.00    -0.198 NA
ATOM      4  C   UNL     1      -3.564   1.907   0.111  0.00  0.00    +0.146 A 
ATOM      5  N   UNL     1      -3.601   3.227   0.146  0.00  0.00    -0.199 NA
ATOM      6  C   UNL     1      -2.474   3.929   0.046  0.00  0.00    +0.217 A 
ATOM      7  N   UNL     1      -1.312   3.300  -0.089  0.00  0.00    -0.181 NA
ATOM      8  N   UNL     1      -2.514   5.308   0.083  0.00  0.00    -0.327 N 
ATOM      9  H   UNL     1      -0.035   0.216  -0.201  0.00  0.00    +0.155 HD
ATOM     10  H   UNL     1      -1.582   5.887   0.000  0.00  0.00    +0.145 HD
ATOM     11  H   UNL     1      -3.477   5.828   0.195  0.00  0.00    +0.145 HD
ENDROOT
BRANCH   1  17
ATOM     12  C   UNL     1       1.061   3.218  -1.223  0.00  0.00    +0.025 A 
ATOM     13  C   UNL     1       2.220   3.939  -1.434  0.00  0.00    +0.022 A 
ATOM     14  C   UNL     1       3.422   3.485  -0.921  0.00  0.00    +0.041 A 
ATOM     15  C   UNL     1       3.465   2.311  -0.189  0.00  0.00    +0.022 A 
ATOM     16  C   UNL     1       2.308   1.590   0.030  0.00  0.00    +0.025 A 
ATOM     17  C   UNL     1       1.101   2.043  -0.484  0.00  0.00    +0.034 A 
ATOM     18 CL   UNL     1       4.878   4.390  -1.195  0.00  0.00    -0.084 Cl
ENDBRANCH   1  17
BRANCH   4  19
ATOM     19  C   UNL     1      -4.842   1.116   0.225  0.00  0.00    +0.153 C 
BRANCH  19  20
ATOM     20  S   UNL     1      -5.529   0.839  -1.426  0.00  0.00    -0.077 S 
BRANCH  20  21
ATOM     21  C   UNL     1      -6.973  -0.079  -1.006  0.00  0.00    +0.209 A 
ATOM     22  N   UNL     1      -7.354  -0.423   0.204  0.00  0.00    -0.121 NA
ATOM     23  N   UNL     1      -8.454  -1.085   0.149  0.00  0.00    -0.127 NA
ATOM     24  C   UNL     1      -8.839  -1.212  -1.100  0.00  0.00    +0.183 A 
ATOM     25  N   UNL     1      -7.903  -0.571  -1.878  0.00  0.00    -0.224 N 
BRANCH  24  26
ATOM     26  C   UNL     1     -10.050  -1.910  -1.579  0.00  0.00    +0.039 A 
ATOM     27  C   UNL     1      -9.963  -2.824  -2.631  0.00  0.00    +0.014 A 
ATOM     28  C   UNL     1     -11.095  -3.477  -3.070  0.00  0.00    +0.021 A 
ATOM     29  C   UNL     1     -12.321  -3.219  -2.478  0.00  0.00    +0.042 A 
ATOM     30  C   UNL     1     -12.416  -2.310  -1.439  0.00  0.00    +0.040 A 
ATOM     31  C   UNL     1     -11.289  -1.654  -0.986  0.00  0.00    +0.053 A 
ATOM     32 CL   UNL     1     -11.410  -0.513   0.317  0.00  0.00    -0.083 Cl
ATOM     33 CL   UNL     1     -13.743  -4.040  -3.042  0.00  0.00    -0.083 Cl
ENDBRANCH  24  26
BRANCH  25  34
ATOM     34  N   UNL     1      -7.902  -0.453  -3.239  0.00  0.00    -0.295 N 
ATOM     35  H   UNL     1      -8.716  -0.898  -3.830  0.00  0.00    +0.163 HD
ATOM     36  H   UNL     1      -7.088   0.089  -3.744  0.00  0.00    +0.163 HD
ENDBRANCH  25  34
ENDBRANCH  20  21
ENDBRANCH  19  20
ENDBRANCH   4  19
TORSDOF 6
