REMARK  Name = ZINC36635380
REMARK  7 active torsions:
REMARK  status: ('A' for Active; 'I' for Inactive)
REMARK    1  A    between atoms: C_1  and  C_2
REMARK    2  A    between atoms: C_7  and  N_8
REMARK    3  A    between atoms: C_12  and  N_16
REMARK    4  A    between atoms: N_16  and  C_17
REMARK    5  A    between atoms: C_18  and  C_25
REMARK    6  A    between atoms: C_20  and  C_24
REMARK    7  A    between atoms: C_22  and  C_23
REMARK                            x       y       z     vdW  Elec       q    Type
REMARK                         _______ _______ _______ _____ _____    ______ ____
ROOT
ATOM      1  N   UNL     1      -1.802   2.040   3.575  0.00  0.00    -0.209 N 
ATOM      2  C   UNL     1      -1.845   2.935   4.569  0.00  0.00    +0.228 C 
ATOM      3  O   UNL     1      -2.803   3.621   4.856  0.00  0.00    -0.275 OA
ATOM      4  C   UNL     1      -0.510   2.954   5.280  0.00  0.00    +0.128 C 
ATOM      5  C   UNL     1       0.322   1.904   4.515  0.00  0.00    +0.166 C 
ATOM      6  C   UNL     1      -0.633   1.398   3.456  0.00  0.00    +0.247 C 
ATOM      7  O   UNL     1      -0.380   0.547   2.631  0.00  0.00    -0.273 OA
ENDROOT
BRANCH   1  14
ATOM      8  C   UNL     1      -2.035   3.574   1.189  0.00  0.00    +0.045 C 
ATOM      9  C   UNL     1      -3.044   2.517   1.556  0.00  0.00    -0.029 A 
ATOM     10  C   UNL     1      -4.117   2.266   0.723  0.00  0.00    +0.005 A 
ATOM     11  C   UNL     1      -5.043   1.296   1.060  0.00  0.00    +0.000 A 
ATOM     12  C   UNL     1      -4.898   0.575   2.231  0.00  0.00    +0.002 A 
ATOM     13  C   UNL     1      -3.828   0.821   3.068  0.00  0.00    +0.024 A 
ATOM     14  C   UNL     1      -2.893   1.791   2.730  0.00  0.00    +0.047 A 
ENDBRANCH   1  14
BRANCH   5  15
ATOM     15  N   UNL     1       1.499   2.525   3.903  0.00  0.00    -0.332 N 
ATOM     16  H   UNL     1       1.500   2.737   2.957  0.00  0.00    +0.147 HD
BRANCH  15  17
ATOM     17  C   UNL     1       2.622   2.812   4.683  0.00  0.00    +0.034 A 
ATOM     18  C   UNL     1       3.458   1.785   5.104  0.00  0.00    -0.029 A 
ATOM     19  C   UNL     1       4.568   2.073   5.875  0.00  0.00    +0.008 A 
ATOM     20  C   UNL     1       4.846   3.380   6.228  0.00  0.00    -0.050 A 
ATOM     21  C   UNL     1       4.016   4.404   5.811  0.00  0.00    +0.008 A 
ATOM     22  C   UNL     1       2.908   4.125   5.035  0.00  0.00    -0.029 A 
ATOM     23  C   UNL     1       2.008   5.242   4.575  0.00  0.00    +0.045 C 
ATOM     24  C   UNL     1       6.057   3.690   7.070  0.00  0.00    +0.044 C 
ATOM     25  C   UNL     1       3.155   0.360   4.721  0.00  0.00    +0.045 C 
ENDBRANCH  15  17
ENDBRANCH   5  15
TORSDOF 3
