REMARK  Name = ZINC34923871
REMARK  9 active torsions:
REMARK  status: ('A' for Active; 'I' for Inactive)
REMARK    1  A    between atoms: C_1  and  C_2
REMARK    2  A    between atoms: C_3  and  C_31
REMARK    3  A    between atoms: C_4  and  C_24
REMARK    4  A    between atoms: C_7  and  C_12
REMARK    5  A    between atoms: C_13  and  N_15
REMARK    6  A    between atoms: N_15  and  C_16
REMARK    7  A    between atoms: C_16  and  C_17
REMARK    8  A    between atoms: C_31  and  O_33
REMARK    9  A    between atoms: O_33  and  C_34
REMARK                            x       y       z     vdW  Elec       q    Type
REMARK                         _______ _______ _______ _____ _____    ______ ____
ROOT
ATOM      1  C   UNL     1       0.328   1.163   0.895  0.00  0.00    +0.066 C 
ATOM      2  C   UNL     1       0.260  -0.292   0.512  0.00  0.00    +0.053 C 
ATOM      3  C   UNL     1      -0.965  -0.929   0.447  0.00  0.00    +0.082 C 
ATOM      4  C   UNL     1      -0.980  -2.390   0.057  0.00  0.00    +0.150 C 
ATOM      5  N   UNL     1       0.333  -3.029  -0.227  0.00  0.00    -0.267 N 
ATOM      6  C   UNL     1       0.556  -4.340  -0.598  0.00  0.00    +0.048 C 
ATOM      7  C   UNL     1       1.835  -4.722  -0.810  0.00  0.00    +0.072 C 
ATOM      8  S   UNL     1       2.729  -3.216  -0.484  0.00  0.00    -0.060 S 
ATOM      9  C   UNL     1       1.430  -2.222  -0.105  0.00  0.00    +0.166 C 
ATOM     10  N   UNL     1       1.373  -0.951   0.234  0.00  0.00    -0.230 NA
ENDROOT
BRANCH   4  11
ATOM     11  C   UNL     1      -1.639  -3.161   1.172  0.00  0.00    -0.019 A 
ATOM     12  C   UNL     1      -0.958  -3.382   2.355  0.00  0.00    +0.006 A 
ATOM     13  C   UNL     1      -1.561  -4.088   3.379  0.00  0.00    +0.003 A 
ATOM     14  C   UNL     1      -2.845  -4.576   3.220  0.00  0.00    +0.038 A 
ATOM     15  C   UNL     1      -3.527  -4.355   2.036  0.00  0.00    +0.124 A 
ATOM     16  C   UNL     1      -2.924  -3.642   1.014  0.00  0.00    +0.044 A 
ATOM     17  F   UNL     1      -4.782  -4.831   1.880  0.00  0.00    -0.205 F 
ENDBRANCH   4  11
BRANCH   6  18
ATOM     18  C   UNL     1      -0.557  -5.287  -0.755  0.00  0.00    +0.091 C 
ATOM     19  C   UNL     1      -0.306  -6.589  -0.990  0.00  0.00    +0.239 C 
ATOM     20  O   UNL     1       0.969  -7.049  -0.958  0.00  0.00    -0.271 OA
BRANCH  19  21
ATOM     21  N   UNL     1      -1.349  -7.457  -1.264  0.00  0.00    -0.308 N 
ATOM     22  H   UNL     1      -2.266  -7.144  -1.214  0.00  0.00    +0.149 HD
BRANCH  21  23
ATOM     23  C   UNL     1      -1.068  -8.848  -1.629  0.00  0.00    +0.140 C 
BRANCH  23  24
ATOM     24  C   UNL     1      -2.356  -9.541  -1.993  0.00  0.00    -0.028 A 
ATOM     25  C   UNL     1      -3.094 -10.184  -1.016  0.00  0.00    +0.005 A 
ATOM     26  C   UNL     1      -4.275 -10.821  -1.348  0.00  0.00    +0.003 A 
ATOM     27  C   UNL     1      -4.719 -10.816  -2.657  0.00  0.00    +0.038 A 
ATOM     28  C   UNL     1      -3.981 -10.173  -3.636  0.00  0.00    +0.124 A 
ATOM     29  C   UNL     1      -2.801  -9.530  -3.301  0.00  0.00    +0.043 A 
ATOM     30  F   UNL     1      -4.414 -10.168  -4.915  0.00  0.00    -0.205 F 
ENDBRANCH  23  24
ENDBRANCH  21  23
ENDBRANCH  19  21
ENDBRANCH   6  18
BRANCH   3  31
ATOM     31  C   UNL     1      -2.152  -0.244   0.733  0.00  0.00    +0.339 C 
ATOM     32  O   UNL     1      -2.116   0.933   1.045  0.00  0.00    -0.245 OA
BRANCH  31  33
ATOM     33  O   UNL     1      -3.338  -0.888   0.662  0.00  0.00    -0.465 OA
ATOM     34  C   UNL     1      -4.508  -0.128   0.967  0.00  0.00    +0.280 C 
ENDBRANCH  31  33
ENDBRANCH   3  31
TORSDOF 7
