REMARK  Name = ZINC64128486
REMARK  4 active torsions:
REMARK  status: ('A' for Active; 'I' for Inactive)
REMARK    1  A    between atoms: C_4  and  N_20
REMARK    2  A    between atoms: C_5  and  N_7
REMARK    3  A    between atoms: C_8  and  C_10
REMARK    4  A    between atoms: C_12  and  N_17
REMARK                            x       y       z     vdW  Elec       q    Type
REMARK                         _______ _______ _______ _____ _____    ______ ____
ROOT
ATOM      1  N   UNL     1       1.232  -2.045  -0.020  0.00  0.00    -0.280 N 
ATOM      2  C   UNL     1       0.268  -2.719  -0.678  0.00  0.00    +0.249 C 
ATOM      3  O   UNL     1      -0.557  -2.113  -1.335  0.00  0.00    -0.270 OA
ATOM      4  H   UNL     1       1.935  -2.530   0.440  0.00  0.00    +0.155 HD
ENDROOT
BRANCH   2   5
ATOM      5  C   UNL     1       0.214  -4.194  -0.603  0.00  0.00    +0.053 A 
ATOM      6  C   UNL     1       1.156  -4.892   0.155  0.00  0.00    +0.047 A 
ATOM      7  C   UNL     1       1.100  -6.268   0.222  0.00  0.00    +0.127 A 
ATOM      8  C   UNL     1       0.113  -6.958  -0.461  0.00  0.00    +0.034 A 
ATOM      9  C   UNL     1      -0.824  -6.274  -1.213  0.00  0.00    +0.018 A 
ATOM     10  C   UNL     1      -0.783  -4.895  -1.284  0.00  0.00    +0.030 A 
ATOM     11 BR   UNL     1      -2.070  -3.960  -2.308  0.00  0.00    -0.050 Br
BRANCH   7  12
ATOM     12  N   UNL     1       2.098  -7.010   1.024  0.00  0.00    +0.056 N 
ATOM     13  O   UNL     1       2.961  -6.409   1.621  0.00  0.00    -0.126 OA
ATOM     14  O   UNL     1       2.050  -8.217   1.084  0.00  0.00    -0.126 OA
ENDBRANCH   7  12
ENDBRANCH   2   5
BRANCH   1  19
ATOM     15  C   UNL     1       0.001   1.419   0.053  0.00  0.00    +0.002 A 
ATOM     16  C   UNL     1       1.191   2.124   0.040  0.00  0.00    +0.002 A 
ATOM     17  C   UNL     1       2.397   1.451   0.007  0.00  0.00    +0.029 A 
ATOM     18  C   UNL     1       2.418   0.065  -0.013  0.00  0.00    +0.086 A 
ATOM     19  C   UNL     1       1.218  -0.646   0.001  0.00  0.00    +0.059 A 
ATOM     20  C   UNL     1       0.011   0.037   0.033  0.00  0.00    +0.025 A 
BRANCH  18  21
ATOM     21  N   UNL     1       3.641  -0.620  -0.047  0.00  0.00    -0.238 N 
ATOM     22  C   UNL     1       4.866  -0.057  -0.152  0.00  0.00    +0.114 A 
ATOM     23  C   UNL     1       5.780  -1.055  -0.150  0.00  0.00    +0.041 A 
ATOM     24  C   UNL     1       5.092  -2.268  -0.039  0.00  0.00    +0.135 A 
ATOM     25  N   UNL     1       3.811  -2.009   0.029  0.00  0.00    -0.175 NA
ENDBRANCH  18  21
ENDBRANCH   1  19
TORSDOF 4
