REMARK  Name = ZINC37065555
REMARK  6 active torsions:
REMARK  status: ('A' for Active; 'I' for Inactive)
REMARK    1  A    between atoms: C_1  and  C_2
REMARK    2  A    between atoms: C_5  and  C_21
REMARK    3  A    between atoms: C_6  and  O_8
REMARK    4  A    between atoms: O_8  and  C_9
REMARK    5  A    between atoms: C_9  and  C_10
REMARK    6  A    between atoms: C_15  and  N_16
REMARK                            x       y       z     vdW  Elec       q    Type
REMARK                         _______ _______ _______ _____ _____    ______ ____
ROOT
ATOM      1  C   UNL     1       0.063  -2.932   4.751  0.00  0.00    +0.014 A 
ATOM      2  C   UNL     1       0.086  -4.300   4.560  0.00  0.00    +0.058 A 
ATOM      3  C   UNL     1       0.103  -5.156   5.651  0.00  0.00    +0.163 A 
ATOM      4  C   UNL     1       0.099  -4.636   6.940  0.00  0.00    +0.164 A 
ATOM      5  C   UNL     1       0.075  -3.263   7.132  0.00  0.00    +0.072 A 
ATOM      6  C   UNL     1       0.062  -2.410   6.037  0.00  0.00    +0.035 A 
ATOM      7  O   UNL     1       0.124  -5.460   8.024  0.00  0.00    -0.485 OA
ATOM      8  C   UNL     1      -0.228  -6.830   7.799  0.00  0.00    +0.270 C 
ATOM      9  C   UNL     1       0.518  -7.319   6.550  0.00  0.00    +0.270 C 
ATOM     10  O   UNL     1       0.122  -6.502   5.443  0.00  0.00    -0.485 OA
ENDROOT
BRANCH   6  11
ATOM     11  N   UNL     1       0.042  -1.024   6.231  0.00  0.00    -0.358 N 
ATOM     12  H   UNL     1       0.030  -0.428   5.465  0.00  0.00    +0.142 HD
ATOM     13  H   UNL     1       0.042  -0.659   7.130  0.00  0.00    +0.142 HD
ENDBRANCH   6  11
BRANCH   1  14
ATOM     14  C   UNL     1       0.045  -2.006   3.562  0.00  0.00    +0.266 C 
BRANCH  14  15
ATOM     15  O   UNL     1       0.050  -2.776   2.358  0.00  0.00    -0.487 OA
BRANCH  15  21
ATOM     16  C   UNL     1      -0.018   1.503   0.010  0.00  0.00    +0.044 C 
ATOM     17  C   UNL     1       0.002  -0.004   0.002  0.00  0.00    -0.047 A 
ATOM     18  C   UNL     1       0.006  -0.688  -1.200  0.00  0.00    +0.004 A 
ATOM     19  C   UNL     1       0.024  -2.071  -1.211  0.00  0.00    +0.007 A 
ATOM     20  C   UNL     1       0.039  -2.772  -0.020  0.00  0.00    -0.009 A 
ATOM     21  C   UNL     1       0.035  -2.088   1.186  0.00  0.00    +0.124 A 
ATOM     22  C   UNL     1       0.023  -0.700   1.195  0.00  0.00    +0.049 A 
ATOM     23  C   UNL     1       0.059  -4.279  -0.033  0.00  0.00    +0.047 C 
ENDBRANCH  15  21
ENDBRANCH  14  15
ENDBRANCH   1  14
TORSDOF 4
