REMARK  Name = ZINC33626475
REMARK  10 active torsions:
REMARK  status: ('A' for Active; 'I' for Inactive)
REMARK    1  A    between atoms: C_1  and  C_2
REMARK    2  A    between atoms: C_2  and  C_3
REMARK    3  A    between atoms: C_6  and  N_9
REMARK    4  A    between atoms: C_10  and  N_30
REMARK    5  A    between atoms: C_12  and  C_29
REMARK    6  A    between atoms: C_17  and  S_18
REMARK    7  A    between atoms: S_18  and  C_19
REMARK    8  A    between atoms: C_19  and  C_20
REMARK    9  A    between atoms: N_22  and  C_23
REMARK   10  A    between atoms: C_23  and  C_24
REMARK                            x       y       z     vdW  Elec       q    Type
REMARK                         _______ _______ _______ _____ _____    ______ ____
ROOT
ATOM      1  N   UNL     1      -5.111  -2.075   0.843  0.00  0.00    -0.277 N 
ATOM      2  C   UNL     1      -5.313  -3.196   0.148  0.00  0.00    +0.115 A 
ATOM      3  C   UNL     1      -6.635  -3.558  -0.172  0.00  0.00    +0.079 A 
ATOM      4  C   UNL     1      -7.225  -4.635  -0.869  0.00  0.00    +0.072 A 
ATOM      5  N   UNL     1      -8.517  -4.469  -0.868  0.00  0.00    -0.177 NA
ATOM      6  N   UNL     1      -8.841  -3.293  -0.180  0.00  0.00    -0.260 N 
ATOM      7  C   UNL     1      -7.684  -2.720   0.256  0.00  0.00    +0.162 A 
ATOM      8  N   UNL     1      -7.391  -1.618   0.945  0.00  0.00    -0.204 NA
ATOM      9  C   UNL     1      -6.137  -1.314   1.232  0.00  0.00    +0.177 A 
ATOM     10  C   UNL     1      -6.485  -5.782  -1.507  0.00  0.00    +0.068 C 
ATOM     11  H   UNL     1      -9.736  -2.946  -0.039  0.00  0.00    +0.191 HD
ENDROOT
BRANCH   1  15
ATOM     12  C   UNL     1      -1.241  -0.947   1.822  0.00  0.00    -0.047 A 
ATOM     13  C   UNL     1      -2.133  -1.290   2.823  0.00  0.00    +0.005 A 
ATOM     14  C   UNL     1      -3.422  -1.666   2.502  0.00  0.00    +0.026 A 
ATOM     15  C   UNL     1      -3.824  -1.700   1.169  0.00  0.00    +0.050 A 
ATOM     16  C   UNL     1      -2.921  -1.353   0.165  0.00  0.00    +0.026 A 
ATOM     17  C   UNL     1      -1.637  -0.974   0.497  0.00  0.00    +0.005 A 
BRANCH  12  19
ATOM     18  C   UNL     1       0.215   0.975   2.398  0.00  0.00    +0.009 C 
ATOM     19  C   UNL     1       0.165  -0.538   2.178  0.00  0.00    +0.032 C 
ENDBRANCH  12  19
ENDBRANCH   1  15
BRANCH   2  20
ATOM     20  N   UNL     1      -4.250  -3.983  -0.247  0.00  0.00    -0.344 N 
ATOM     21  H   UNL     1      -3.341  -3.663  -0.134  0.00  0.00    +0.144 HD
ATOM     22  H   UNL     1      -4.412  -4.856  -0.638  0.00  0.00    +0.144 HD
ENDBRANCH   2  20
BRANCH   9  23
ATOM     23  S   UNL     1      -5.807   0.152   2.152  0.00  0.00    -0.078 S 
BRANCH  23  24
ATOM     24  C   UNL     1      -7.450   0.856   2.460  0.00  0.00    +0.173 C 
BRANCH  24  25
ATOM     25  C   UNL     1      -7.311   2.131   3.251  0.00  0.00    +0.224 C 
ATOM     26  O   UNL     1      -6.211   2.526   3.575  0.00  0.00    -0.275 OA
ATOM     27  N   UNL     1      -8.408   2.833   3.598  0.00  0.00    -0.308 N 
ATOM     28  H   UNL     1      -9.288   2.517   3.339  0.00  0.00    +0.149 HD
BRANCH  27  29
ATOM     29  C   UNL     1      -8.272   4.073   4.366  0.00  0.00    +0.178 C 
BRANCH  29  30
ATOM     30  C   UNL     1      -9.637   4.657   4.622  0.00  0.00    +0.122 A 
ATOM     31  C   UNL     1     -10.417   4.399   5.687  0.00  0.00    +0.046 A 
ATOM     32  C   UNL     1     -11.600   5.155   5.521  0.00  0.00    +0.041 A 
ATOM     33  C   UNL     1     -11.472   5.831   4.365  0.00  0.00    +0.195 A 
ATOM     34  O   UNL     1     -10.279   5.530   3.828  0.00  0.00    -0.466 OA
ENDBRANCH  29  30
ENDBRANCH  27  29
ENDBRANCH  24  25
ENDBRANCH  23  24
ENDBRANCH   9  23
TORSDOF 8
