REMARK  Name = ZINC37351080
REMARK  6 active torsions:
REMARK  status: ('A' for Active; 'I' for Inactive)
REMARK    1  A    between atoms: C_1  and  C_2
REMARK    2  A    between atoms: C_2  and  C_3
REMARK    3  A    between atoms: C_2  and  C_4
REMARK    4  A    between atoms: C_7  and  C_10
REMARK    5  A    between atoms: C_11  and  C_16
REMARK    6  A    between atoms: C_14  and  N_15
REMARK                            x       y       z     vdW  Elec       q    Type
REMARK                         _______ _______ _______ _____ _____    ______ ____
ROOT
ATOM      1  C   UNL     1      -5.400  -1.998   0.044  0.00  0.00    +0.075 A 
ATOM      2  C   UNL     1      -5.789  -3.351   0.150  0.00  0.00    +0.195 A 
ATOM      3  N   UNL     1      -7.090  -3.403   0.124  0.00  0.00    -0.071 NA
ATOM      4  O   UNL     1      -7.594  -2.087  -0.001  0.00  0.00    -0.339 OA
ATOM      5  C   UNL     1      -6.552  -1.240  -0.043  0.00  0.00    +0.224 A 
ENDROOT
BRANCH   1   9
ATOM      6  C   UNL     1      -1.412  -0.526   0.013  0.00  0.00    -0.045 A 
ATOM      7  C   UNL     1      -2.257  -0.202   1.059  0.00  0.00    +0.004 A 
ATOM      8  C   UNL     1      -3.553  -0.677   1.074  0.00  0.00    +0.009 A 
ATOM      9  C   UNL     1      -4.009  -1.484   0.033  0.00  0.00    -0.011 A 
ATOM     10  C   UNL     1      -3.152  -1.806  -1.019  0.00  0.00    +0.009 A 
ATOM     11  C   UNL     1      -1.860  -1.321  -1.026  0.00  0.00    +0.004 A 
BRANCH   6  13
ATOM     12  C   UNL     1      -0.019   1.526   0.010  0.00  0.00    +0.012 C 
ATOM     13  C   UNL     1       0.002  -0.004   0.002  0.00  0.00    +0.013 C 
ATOM     14  C   UNL     1       0.742  -0.511   1.242  0.00  0.00    +0.012 C 
ENDBRANCH   6  13
ENDBRANCH   1   9
BRANCH   2  15
ATOM     15  C   UNL     1      -4.860  -4.531   0.273  0.00  0.00    +0.438 C 
ATOM     16  F   UNL     1      -4.604  -4.784   1.625  0.00  0.00    -0.164 F 
ATOM     17  F   UNL     1      -5.456  -5.656  -0.307  0.00  0.00    -0.164 F 
ATOM     18  F   UNL     1      -3.658  -4.249  -0.385  0.00  0.00    -0.164 F 
ENDBRANCH   2  15
BRANCH   5  19
ATOM     19  N   UNL     1      -6.619   0.132  -0.154  0.00  0.00    -0.327 N 
ATOM     20  H   UNL     1      -5.804   0.657  -0.178  0.00  0.00    +0.145 HD
ATOM     21  H   UNL     1      -7.482   0.573  -0.208  0.00  0.00    +0.145 HD
ENDBRANCH   5  19
TORSDOF 4
