REMARK  Name = ZINC22667718
REMARK  11 active torsions:
REMARK  status: ('A' for Active; 'I' for Inactive)
REMARK    1  A    between atoms: C_1  and  C_2
REMARK    2  A    between atoms: C_3  and  C_30
REMARK    3  A    between atoms: C_4  and  C_29
REMARK    4  A    between atoms: C_7  and  C_8
REMARK    5  A    between atoms: C_8  and  O_10
REMARK    6  A    between atoms: O_10  and  C_11
REMARK    7  A    between atoms: C_11  and  C_12
REMARK    8  A    between atoms: N_14  and  C_15
REMARK    9  A    between atoms: N_14  and  C_23
REMARK   10  A    between atoms: C_30  and  O_32
REMARK   11  A    between atoms: O_32  and  C_33
REMARK                            x       y       z     vdW  Elec       q    Type
REMARK                         _______ _______ _______ _____ _____    ______ ____
ROOT
ATOM      1  C   UNL     1      -0.194  -0.819   4.848  0.00  0.00    +0.328 C 
ENDROOT
BRANCH   1   2
ATOM      2  C   UNL     1      -0.065  -1.969   5.813  0.00  0.00    +0.254 C 
ATOM      3  O   UNL     1      -0.196  -3.109   5.420  0.00  0.00    -0.272 OA
ATOM      4  N   UNL     1       0.197  -1.731   7.114  0.00  0.00    -0.291 N 
BRANCH   4   5
ATOM      5  C   UNL     1       0.183  -0.357   7.624  0.00  0.00    +0.099 C 
ATOM      6  C   UNL     1       1.268   0.464   6.908  0.00  0.00    +0.047 C 
ATOM      7  C   UNL     1       1.029   1.967   7.230  0.00  0.00    +0.168 C 
ATOM      8  S   UNL     1      -0.808   2.048   7.115  0.00  0.00    -0.029 S 
ATOM      9  O   UNL     1      -1.308   2.797   8.215  0.00  0.00    -0.174 OA
ATOM     10  O   UNL     1      -1.173   2.420   5.793  0.00  0.00    -0.174 OA
ATOM     11  C   UNL     1      -1.208   0.272   7.369  0.00  0.00    +0.188 C 
ENDBRANCH   4   5
BRANCH   4  12
ATOM     12  C   UNL     1       0.495  -2.845   8.017  0.00  0.00    +0.077 C 
ATOM     13  C   UNL     1       1.738  -3.586   7.520  0.00  0.00    +0.022 C 
ATOM     14  C   UNL     1       2.049  -4.750   8.464  0.00  0.00    +0.002 C 
ATOM     15  C   UNL     1       0.860  -5.712   8.496  0.00  0.00    +0.000 C 
ATOM     16  C   UNL     1      -0.383  -4.971   8.993  0.00  0.00    +0.002 C 
ATOM     17  C   UNL     1      -0.694  -3.807   8.049  0.00  0.00    +0.022 C 
ENDBRANCH   4  12
ENDBRANCH   1   2
BRANCH   1  18
ATOM     18  O   UNL     1      -0.645  -1.308   3.583  0.00  0.00    -0.451 OA
BRANCH  18  19
ATOM     19  C   UNL     1      -0.814  -0.399   2.600  0.00  0.00    +0.356 C 
ATOM     20  O   UNL     1      -0.583   0.776   2.812  0.00  0.00    -0.243 OA
BRANCH  19  27
ATOM     21  C   UNL     1      -1.287   1.478   0.154  0.00  0.00    +0.047 C 
ATOM     22  C   UNL     1      -1.485  -0.016   0.201  0.00  0.00    -0.005 A 
ATOM     23  C   UNL     1      -1.917  -0.840  -0.862  0.00  0.00    +0.083 A 
ATOM     24  C   UNL     1      -1.957  -2.136  -0.380  0.00  0.00    +0.028 A 
ATOM     25  N   UNL     1      -1.574  -2.122   0.905  0.00  0.00    -0.352 N 
ATOM     26  H   UNL     1      -1.513  -2.900   1.482  0.00  0.00    +0.166 HD
ATOM     27  C   UNL     1      -1.275  -0.829   1.276  0.00  0.00    +0.128 A 
ATOM     28  C   UNL     1      -2.364  -3.356  -1.166  0.00  0.00    +0.064 C 
BRANCH  23  29
ATOM     29  C   UNL     1      -2.260  -0.402  -2.225  0.00  0.00    +0.341 C 
ATOM     30  O   UNL     1      -1.402  -0.363  -3.085  0.00  0.00    -0.245 OA
BRANCH  29  31
ATOM     31  O   UNL     1      -3.526  -0.045  -2.520  0.00  0.00    -0.464 OA
ATOM     32  C   UNL     1      -3.788   0.369  -3.862  0.00  0.00    +0.280 C 
ENDBRANCH  29  31
ENDBRANCH  23  29
ENDBRANCH  19  27
ENDBRANCH  18  19
ENDBRANCH   1  18
TORSDOF 8
