REMARK  Name = ZINC43595616
REMARK  11 active torsions:
REMARK  status: ('A' for Active; 'I' for Inactive)
REMARK    1  A    between atoms: C_1  and  C_2
REMARK    2  A    between atoms: C_5  and  N_8
REMARK    3  A    between atoms: C_9  and  C_26
REMARK    4  A    between atoms: C_11  and  C_14
REMARK    5  A    between atoms: C_12  and  C_13
REMARK    6  A    between atoms: C_15  and  C_16
REMARK    7  A    between atoms: C_15  and  C_18
REMARK    8  A    between atoms: N_20  and  C_21
REMARK    9  A    between atoms: C_21  and  C_22
REMARK   10  A    between atoms: C_22  and  O_24
REMARK   11  A    between atoms: O_24  and  C_25
REMARK                            x       y       z     vdW  Elec       q    Type
REMARK                         _______ _______ _______ _____ _____    ______ ____
ROOT
ATOM      1  N   UNL     1      -0.122  -4.261  -0.034  0.00  0.00    -0.317 N 
ATOM      2  C   UNL     1      -1.222  -5.073  -0.025  0.00  0.00    +0.022 A 
ATOM      3  C   UNL     1      -0.836  -6.337   0.214  0.00  0.00    +0.031 A 
ATOM      4  C   UNL     1       0.626  -6.304   0.366  0.00  0.00    -0.003 A 
ATOM      5  C   UNL     1       0.995  -4.980   0.193  0.00  0.00    +0.028 A 
ATOM      6  C   UNL     1       2.400  -4.438   0.251  0.00  0.00    +0.064 C 
ATOM      7  C   UNL     1      -2.642  -4.622  -0.248  0.00  0.00    +0.064 C 
ENDROOT
BRANCH   1  12
ATOM      8  C   UNL     1      -0.243   1.343  -0.923  0.00  0.00    +0.044 C 
ATOM      9  C   UNL     1      -0.210  -0.145  -0.687  0.00  0.00    -0.050 A 
ATOM     10  C   UNL     1      -0.590  -1.012  -1.695  0.00  0.00    +0.005 A 
ATOM     11  C   UNL     1      -0.562  -2.376  -1.482  0.00  0.00    +0.026 A 
ATOM     12  C   UNL     1      -0.151  -2.877  -0.254  0.00  0.00    +0.047 A 
ATOM     13  C   UNL     1       0.230  -2.004   0.757  0.00  0.00    +0.026 A 
ATOM     14  C   UNL     1       0.204  -0.641   0.535  0.00  0.00    +0.005 A 
ENDBRANCH   1  12
BRANCH   4  15
ATOM     15  C   UNL     1       1.483  -7.402   0.630  0.00  0.00    +0.033 C 
ATOM     16  C   UNL     1       1.308  -8.593  -0.046  0.00  0.00    +0.114 C 
BRANCH  16  17
ATOM     17  C   UNL     1       0.380  -8.663  -1.183  0.00  0.00    +0.255 C 
ATOM     18  O   UNL     1      -0.149  -7.649  -1.600  0.00  0.00    -0.269 OA
ATOM     19  N   UNL     1       0.114  -9.849  -1.765  0.00  0.00    -0.300 N 
ATOM     20  H   UNL     1       0.535 -10.657  -1.433  0.00  0.00    +0.150 HD
BRANCH  19  21
ATOM     21  C   UNL     1      -0.811  -9.918  -2.899  0.00  0.00    +0.225 C 
BRANCH  21  22
ATOM     22  C   UNL     1      -0.934 -11.347  -3.361  0.00  0.00    +0.324 C 
ATOM     23  O   UNL     1      -0.312 -12.219  -2.800  0.00  0.00    -0.249 OA
BRANCH  22  24
ATOM     24  O   UNL     1      -1.734 -11.652  -4.394  0.00  0.00    -0.467 OA
ATOM     25  C   UNL     1      -1.802 -13.027  -4.779  0.00  0.00    +0.280 C 
ENDBRANCH  22  24
ENDBRANCH  21  22
ENDBRANCH  19  21
ENDBRANCH  16  17
BRANCH  16  26
ATOM     26  C   UNL     1       2.030  -9.761   0.360  0.00  0.00    +0.104 C 
ATOM     27  N   UNL     1       2.604 -10.687   0.683  0.00  0.00    -0.191 NA
ENDBRANCH  16  26
ENDBRANCH   4  15
TORSDOF 7
