REMARK  Name = ZINC59363612
REMARK  10 active torsions:
REMARK  status: ('A' for Active; 'I' for Inactive)
REMARK    1  A    between atoms: C_1  and  C_2
REMARK    2  A    between atoms: C_2  and  C_3
REMARK    3  A    between atoms: C_4  and  C_24
REMARK    4  A    between atoms: C_5  and  C_23
REMARK    5  A    between atoms: C_8  and  C_9
REMARK    6  A    between atoms: N_11  and  C_12
REMARK    7  A    between atoms: C_12  and  C_13
REMARK    8  A    between atoms: C_14  and  C_22
REMARK    9  A    between atoms: C_16  and  C_21
REMARK   10  A    between atoms: C_24  and  C_26
REMARK                            x       y       z     vdW  Elec       q    Type
REMARK                         _______ _______ _______ _____ _____    ______ ____
ROOT
ATOM      1  C   UNL     1      -1.698  -1.050  -2.486  0.00  0.00    +0.261 C 
ATOM      2  O   UNL     1      -0.578  -0.686  -2.788  0.00  0.00    -0.269 OA
ATOM      3  N   UNL     1      -2.531  -1.524  -3.434  0.00  0.00    -0.306 N 
ATOM      4  H   UNL     1      -3.425  -1.815  -3.193  0.00  0.00    +0.149 HD
ENDROOT
BRANCH   1  10
ATOM      5  C   UNL     1      -1.404  -0.514  -0.041  0.00  0.00    -0.007 A 
ATOM      6  C   UNL     1      -2.219  -0.610   1.113  0.00  0.00    +0.041 A 
ATOM      7  C   UNL     1      -3.435  -1.135   0.707  0.00  0.00    +0.024 A 
ATOM      8  N   UNL     1      -3.381  -1.353  -0.615  0.00  0.00    -0.354 N 
ATOM      9  H   UNL     1      -4.101  -1.718  -1.154  0.00  0.00    +0.166 HD
ATOM     10  C   UNL     1      -2.144  -0.972  -1.089  0.00  0.00    +0.106 A 
ATOM     11  C   UNL     1      -4.617  -1.415   1.599  0.00  0.00    +0.064 C 
BRANCH   6  12
ATOM     12  C   UNL     1      -1.846  -0.226   2.478  0.00  0.00    +0.162 C 
ATOM     13  O   UNL     1      -2.087   0.893   2.881  0.00  0.00    -0.292 OA
ATOM     14  C   UNL     1      -1.165  -1.221   3.382  0.00  0.00    +0.091 C 
ENDBRANCH   6  12
BRANCH   5  16
ATOM     15  C   UNL     1      -0.007   1.510  -0.352  0.00  0.00    +0.009 C 
ATOM     16  C   UNL     1       0.011   0.001  -0.099  0.00  0.00    +0.035 C 
ENDBRANCH   5  16
ENDBRANCH   1  10
BRANCH   3  17
ATOM     17  C   UNL     1      -2.086  -1.602  -4.827  0.00  0.00    +0.145 C 
BRANCH  17  18
ATOM     18  C   UNL     1      -3.196  -2.163  -5.678  0.00  0.00    +0.037 A 
ATOM     19  C   UNL     1      -4.044  -1.327  -6.344  0.00  0.00    -0.039 A 
ATOM     20  C   UNL     1      -5.069  -1.873  -7.130  0.00  0.00    +0.024 A 
ATOM     21  C   UNL     1      -5.207  -3.217  -7.221  0.00  0.00    +0.016 A 
ATOM     22  N   UNL     1      -4.362  -4.047  -6.557  0.00  0.00    -0.326 N 
ATOM     23  H   UNL     1      -4.476  -5.008  -6.633  0.00  0.00    +0.169 HD
ATOM     24  C   UNL     1      -3.365  -3.553  -5.799  0.00  0.00    +0.254 A 
ATOM     25  O   UNL     1      -2.611  -4.312  -5.213  0.00  0.00    -0.268 OA
ATOM     26  C   UNL     1      -6.311  -3.797  -8.067  0.00  0.00    +0.063 C 
ATOM     27  C   UNL     1      -3.882   0.167  -6.236  0.00  0.00    +0.044 C 
ENDBRANCH  17  18
ENDBRANCH   3  17
TORSDOF 5
