REMARK  Name = ZINC01060240
REMARK  9 active torsions:
REMARK  status: ('A' for Active; 'I' for Inactive)
REMARK    1  A    between atoms: C_1  and  C_2
REMARK    2  A    between atoms: C_5  and  N_8
REMARK    3  A    between atoms: C_11  and  C_20
REMARK    4  A    between atoms: C_13  and  C_16
REMARK    5  A    between atoms: C_14  and  N_15
REMARK    6  A    between atoms: C_16  and  O_18
REMARK    7  A    between atoms: O_18  and  C_19
REMARK    8  A    between atoms: C_23  and  O_26
REMARK    9  A    between atoms: O_26  and  C_27
REMARK                            x       y       z     vdW  Elec       q    Type
REMARK                         _______ _______ _______ _____ _____    ______ ____
ROOT
ATOM      1  N   UNL     1       0.129  -4.149  -0.042  0.00  0.00    -0.261 N 
ATOM      2  C   UNL     1       0.177  -4.828   1.148  0.00  0.00    +0.024 C 
ATOM      3  C   UNL     1       0.520  -6.132   1.183  0.00  0.00    +0.025 C 
ATOM      4  C   UNL     1       0.862  -6.878  -0.082  0.00  0.00    +0.094 C 
ATOM      5  C   UNL     1       0.363  -6.147  -1.294  0.00  0.00    +0.084 C 
ATOM      6  C   UNL     1       0.019  -4.830  -1.230  0.00  0.00    +0.103 C 
ATOM      7  C   UNL     1       0.575  -6.835   2.400  0.00  0.00    +0.162 C 
ATOM      8  O   UNL     1       0.870  -8.014   2.395  0.00  0.00    -0.292 OA
ATOM      9  C   UNL     1       0.274  -6.155   3.708  0.00  0.00    +0.080 C 
ATOM     10  C   UNL     1       0.619  -4.668   3.587  0.00  0.00    +0.014 C 
ATOM     11  C   UNL     1      -0.168  -4.081   2.413  0.00  0.00    +0.052 C 
ENDROOT
BRANCH   1  16
ATOM     12  C   UNL     1       0.366   1.520  -0.061  0.00  0.00    +0.044 C 
ATOM     13  C   UNL     1       0.303   0.015  -0.056  0.00  0.00    -0.050 A 
ATOM     14  C   UNL     1       1.470  -0.724   0.009  0.00  0.00    +0.005 A 
ATOM     15  C   UNL     1       1.416  -2.104   0.014  0.00  0.00    +0.024 A 
ATOM     16  C   UNL     1       0.188  -2.750  -0.046  0.00  0.00    +0.040 A 
ATOM     17  C   UNL     1      -0.983  -2.005  -0.112  0.00  0.00    +0.024 A 
ATOM     18  C   UNL     1      -0.922  -0.625  -0.111  0.00  0.00    +0.005 A 
ENDBRANCH   1  16
BRANCH   4  19
ATOM     19  C   UNL     1       2.358  -7.027  -0.178  0.00  0.00    -0.035 A 
ATOM     20  C   UNL     1       3.163  -5.904  -0.213  0.00  0.00    +0.008 A 
ATOM     21  C   UNL     1       4.535  -6.038  -0.302  0.00  0.00    +0.046 A 
ATOM     22  C   UNL     1       5.106  -7.302  -0.356  0.00  0.00    +0.120 A 
ATOM     23  C   UNL     1       4.296  -8.428  -0.321  0.00  0.00    +0.046 A 
ATOM     24  C   UNL     1       2.925  -8.288  -0.227  0.00  0.00    +0.008 A 
BRANCH  22  25
ATOM     25  O   UNL     1       6.455  -7.436  -0.444  0.00  0.00    -0.495 OA
ATOM     26  C   UNL     1       6.972  -8.768  -0.495  0.00  0.00    +0.277 C 
ENDBRANCH  22  25
ENDBRANCH   4  19
BRANCH   6  27
ATOM     27  N   UNL     1      -0.431  -4.183  -2.352  0.00  0.00    -0.346 N 
ATOM     28  H   UNL     1      -0.210  -3.249  -2.494  0.00  0.00    +0.143 HD
ATOM     29  H   UNL     1      -0.971  -4.658  -3.002  0.00  0.00    +0.143 HD
ENDBRANCH   6  27
BRANCH   5  30
ATOM     30  C   UNL     1       0.243  -6.833  -2.511  0.00  0.00    +0.339 C 
ATOM     31  O   UNL     1      -0.130  -6.241  -3.509  0.00  0.00    -0.245 OA
BRANCH  30  32
ATOM     32  O   UNL     1       0.542  -8.148  -2.578  0.00  0.00    -0.465 OA
ATOM     33  C   UNL     1       0.397  -8.783  -3.851  0.00  0.00    +0.280 C 
ENDBRANCH  30  32
ENDBRANCH   5  30
TORSDOF 6
