REMARK  Name = ZINC42314077
REMARK  10 active torsions:
REMARK  status: ('A' for Active; 'I' for Inactive)
REMARK    1  A    between atoms: C_1  and  C_2
REMARK    2  A    between atoms: C_2  and  C_3
REMARK    3  A    between atoms: C_3  and  N_4
REMARK    4  A    between atoms: C_5  and  C_7
REMARK    5  A    between atoms: C_7  and  C_9
REMARK    6  A    between atoms: C_7  and  N_10
REMARK    7  A    between atoms: N_10  and  C_11
REMARK    8  A    between atoms: C_11  and  C_12
REMARK    9  A    between atoms: N_14  and  C_15
REMARK   10  A    between atoms: C_20  and  C_21
REMARK                            x       y       z     vdW  Elec       q    Type
REMARK                         _______ _______ _______ _____ _____    ______ ____
ROOT
ATOM      1  C   UNL     1       2.142  -6.068  -3.459  0.00  0.00    +0.016 C 
ENDROOT
BRANCH   1   2
ATOM      2  C   UNL     1       2.857  -6.553  -4.693  0.00  0.00    +0.200 C 
ATOM      3  O   UNL     1       3.225  -5.758  -5.532  0.00  0.00    -0.278 OA
ATOM      4  N   UNL     1       3.089  -7.869  -4.865  0.00  0.00    -0.287 N 
ATOM      5  H   UNL     1       2.867  -8.496  -4.159  0.00  0.00    +0.155 HD
BRANCH   4   6
ATOM      6  C   UNL     1       3.648  -8.331  -6.061  0.00  0.00    +0.038 A 
ATOM      7  C   UNL     1       3.500  -7.594  -7.229  0.00  0.00    +0.043 A 
ATOM      8  C   UNL     1       4.055  -8.053  -8.409  0.00  0.00    +0.043 A 
ATOM      9  C   UNL     1       4.757  -9.245  -8.427  0.00  0.00    +0.020 A 
ATOM     10  C   UNL     1       4.905  -9.981  -7.265  0.00  0.00    +0.006 A 
ATOM     11  C   UNL     1       4.358  -9.524  -6.082  0.00  0.00    -0.029 A 
ATOM     12  C   UNL     1       4.526 -10.324  -4.816  0.00  0.00    +0.045 C 
ATOM     13 CL   UNL     1       3.871  -7.132  -9.869  0.00  0.00    -0.083 Cl
ENDBRANCH   4   6
ENDBRANCH   1   2
BRANCH   1  14
ATOM     14  N   UNL     1       2.014  -4.605  -3.509  0.00  0.00    +0.392 N 
ATOM     15  H   UNL     1       1.488  -4.341  -4.328  0.00  0.00    -0.084 HD
ATOM     16  H   UNL     1       2.933  -4.189  -3.550  0.00  0.00    -0.084 HD
BRANCH  14  17
ATOM     17  C   UNL     1       1.317  -4.133  -2.305  0.00  0.00    +0.013 C 
ATOM     18  C   UNL     1      -0.118  -4.664  -2.306  0.00  0.00    -0.004 C 
BRANCH  17  20
ATOM     19  N   UNL     1       0.702  -1.967  -1.281  0.00  0.00    -0.317 N 
ATOM     20  C   UNL     1       1.294  -2.626  -2.297  0.00  0.00    +0.199 C 
ATOM     21  O   UNL     1       1.809  -2.007  -3.204  0.00  0.00    -0.278 OA
ATOM     22  H   UNL     1       0.291  -2.462  -0.556  0.00  0.00    +0.149 HD
BRANCH  19  23
ATOM     23  C   UNL     1       0.680  -0.502  -1.273  0.00  0.00    +0.104 C 
BRANCH  23  25
ATOM     24  C   UNL     1      -0.069   1.520  -0.010  0.00  0.00    +0.005 C 
ATOM     25  C   UNL     1      -0.046  -0.010  -0.019  0.00  0.00    +0.015 C 
ENDBRANCH  23  25
ENDBRANCH  19  23
ENDBRANCH  17  20
ENDBRANCH  14  17
ENDBRANCH   1  14
TORSDOF 7
