REMARK  Name = ZINC21237602
REMARK  6 active torsions:
REMARK  status: ('A' for Active; 'I' for Inactive)
REMARK    1  A    between atoms: C_1  and  C_2
REMARK    2  A    between atoms: C_11  and  N_30
REMARK    3  A    between atoms: C_13  and  S_15
REMARK    4  A    between atoms: S_15  and  C_16
REMARK    5  A    between atoms: C_16  and  C_17
REMARK    6  A    between atoms: N_19  and  C_20
REMARK                            x       y       z     vdW  Elec       q    Type
REMARK                         _______ _______ _______ _____ _____    ______ ____
ROOT
ATOM      1  C   UNL     1      13.701  -8.726  -1.440  0.00  0.00    +0.008 C 
ATOM      2  C   UNL     1      12.414  -7.906  -1.338  0.00  0.00    -0.009 C 
ATOM      3  C   UNL     1      12.593  -6.787  -0.308  0.00  0.00    +0.008 C 
ATOM      4  C   UNL     1      11.410  -5.820  -0.381  0.00  0.00    +0.037 C 
ATOM      5  C   UNL     1      10.114  -6.617  -0.269  0.00  0.00    -0.025 A 
ATOM      6  C   UNL     1      10.100  -7.945  -0.502  0.00  0.00    -0.004 A 
ATOM      7  S   UNL     1       8.414  -8.440  -0.260  0.00  0.00    -0.073 S 
ATOM      8  C   UNL     1       7.728  -6.857   0.155  0.00  0.00    +0.115 A 
ATOM      9  C   UNL     1       8.839  -5.992   0.091  0.00  0.00    +0.051 A 
ATOM     10  C   UNL     1       8.570  -4.627   0.387  0.00  0.00    +0.129 A 
ATOM     11  N   UNL     1       7.337  -4.262   0.692  0.00  0.00    -0.207 NA
ATOM     12  C   UNL     1       6.333  -5.131   0.733  0.00  0.00    +0.191 A 
ATOM     13  N   UNL     1       6.526  -6.417   0.473  0.00  0.00    -0.214 NA
ATOM     14  C   UNL     1      11.260  -8.812  -0.884  0.00  0.00    +0.046 C 
ENDROOT
BRANCH  10  15
ATOM     15  N   UNL     1       9.588  -3.691   0.354  0.00  0.00    -0.343 N 
ATOM     16  H   UNL     1       9.374  -2.636   0.583  0.00  0.00    +0.144 HD
ATOM     17  H   UNL     1      10.612  -4.001   0.099  0.00  0.00    +0.144 HD
ENDBRANCH  10  15
BRANCH  12  18
ATOM     18  S   UNL     1       4.717  -4.566   1.148  0.00  0.00    -0.077 S 
BRANCH  18  19
ATOM     19  C   UNL     1       5.053  -2.804   1.395  0.00  0.00    +0.173 C 
BRANCH  19  20
ATOM     20  C   UNL     1       3.776  -2.097   1.769  0.00  0.00    +0.227 C 
ATOM     21  O   UNL     1       2.741  -2.722   1.860  0.00  0.00    -0.275 OA
ATOM     22  N   UNL     1       3.785  -0.770   2.003  0.00  0.00    -0.285 N 
ATOM     23  H   UNL     1       4.704  -0.188   1.837  0.00  0.00    +0.155 HD
BRANCH  22  24
ATOM     24  C   UNL     1       2.624  -0.131   2.457  0.00  0.00    +0.037 A 
ATOM     25  C   UNL     1       1.743  -0.803   3.294  0.00  0.00    +0.027 A 
ATOM     26  C   UNL     1       0.597  -0.174   3.741  0.00  0.00    +0.051 A 
ATOM     27  C   UNL     1       0.323   1.130   3.356  0.00  0.00    +0.162 A 
ATOM     28  C   UNL     1       1.205   1.807   2.521  0.00  0.00    +0.164 A 
ATOM     29  C   UNL     1       2.353   1.175   2.071  0.00  0.00    +0.072 A 
ATOM     30  O   UNL     1       0.957   3.090   2.140  0.00  0.00    -0.485 OA
ATOM     31  C   UNL     1      -0.384   3.563   2.304  0.00  0.00    +0.270 C 
ATOM     32  C   UNL     1      -0.868   3.159   3.704  0.00  0.00    +0.270 C 
ATOM     33  O   UNL     1      -0.816   1.731   3.800  0.00  0.00    -0.485 OA
ENDBRANCH  22  24
ENDBRANCH  19  20
ENDBRANCH  18  19
ENDBRANCH  12  18
TORSDOF 5
