REMARK  Name = ZINC25607371
REMARK  5 active torsions:
REMARK  status: ('A' for Active; 'I' for Inactive)
REMARK    1  A    between atoms: C_4  and  C_7
REMARK    2  A    between atoms: C_7  and  N_8
REMARK    3  A    between atoms: N_16  and  C_17
REMARK    4  A    between atoms: C_17  and  C_19
REMARK    5  A    between atoms: N_21  and  C_26
REMARK                            x       y       z     vdW  Elec       q    Type
REMARK                         _______ _______ _______ _____ _____    ______ ____
ROOT
ATOM      1  N   UNL     1       3.474   6.184  -0.974  0.00  0.00    +0.386 N 
ATOM      2  C   UNL     1       4.671   6.974  -1.293  0.00  0.00    -0.072 C 
ATOM      3  C   UNL     1       5.191   6.615  -2.688  0.00  0.00    +0.035 C 
ATOM      4  C   UNL     1       4.030   6.728  -3.671  0.00  0.00    +0.024 A 
ATOM      5  C   UNL     1       2.754   6.736  -3.198  0.00  0.00    -0.004 A 
ATOM      6  S   UNL     1       1.793   6.882  -4.678  0.00  0.00    -0.059 S 
ATOM      7  C   UNL     1       3.126   6.921  -5.794  0.00  0.00    +0.164 A 
ATOM      8  N   UNL     1       4.165   6.824  -4.989  0.00  0.00    -0.339 N 
ATOM      9  N   UNL     1       3.102   7.027  -7.178  0.00  0.00    -0.151 NA
ATOM     10  C   UNL     1       2.321   6.639  -1.776  0.00  0.00    -0.033 C 
ATOM     11  H   UNL     1       5.168   6.823  -5.440  0.00  0.00    +0.167 HD
ATOM     12  H   UNL     1       3.682   5.134  -1.229  0.00  0.00    -0.081 HD
ENDROOT
BRANCH   9  13
ATOM     13  C   UNL     1       4.256   7.040  -7.873  0.00  0.00    +0.285 C 
ATOM     14  O   UNL     1       5.320   6.959  -7.288  0.00  0.00    -0.267 OA
BRANCH  13  15
ATOM     15  C   UNL     1       4.231   7.153  -9.335  0.00  0.00    +0.124 C 
ATOM     16  N   UNL     1       3.092   7.239  -9.951  0.00  0.00    -0.172 NA
ATOM     17  N   UNL     1       3.029   7.346 -11.344  0.00  0.00    -0.160 N 
ATOM     18  C   UNL     1       4.081   6.982 -12.104  0.00  0.00    +0.240 C 
ATOM     19  O   UNL     1       4.019   7.072 -13.311  0.00  0.00    -0.273 OA
ATOM     20  C   UNL     1       5.335   6.464 -11.447  0.00  0.00    +0.104 C 
ATOM     21  C   UNL     1       5.527   7.172 -10.101  0.00  0.00    +0.072 C 
BRANCH  17  22
ATOM     22  C   UNL     1       1.866   7.832 -11.953  0.00  0.00    +0.060 A 
ATOM     23  C   UNL     1       0.626   7.320 -11.594  0.00  0.00    +0.025 A 
ATOM     24  C   UNL     1      -0.519   7.805 -12.193  0.00  0.00    +0.002 A 
ATOM     25  C   UNL     1      -0.432   8.793 -13.157  0.00  0.00    +0.000 A 
ATOM     26  C   UNL     1       0.801   9.302 -13.520  0.00  0.00    +0.002 A 
ATOM     27  C   UNL     1       1.950   8.824 -12.921  0.00  0.00    +0.025 A 
ENDBRANCH  17  22
ENDBRANCH  13  15
ENDBRANCH   9  13
BRANCH   1  28
ATOM     28  C   UNL     1       3.173   6.241   0.462  0.00  0.00    -0.043 C 
BRANCH  28  32
ATOM     29  C   UNL     1      -0.669   4.515   1.176  0.00  0.00    +0.000 A 
ATOM     30  C   UNL     1       0.463   3.722   1.214  0.00  0.00    +0.000 A 
ATOM     31  C   UNL     1       1.706   4.280   0.982  0.00  0.00    +0.002 A 
ATOM     32  C   UNL     1       1.818   5.632   0.716  0.00  0.00    -0.064 A 
ATOM     33  C   UNL     1       0.686   6.426   0.683  0.00  0.00    +0.002 A 
ATOM     34  C   UNL     1      -0.557   5.868   0.915  0.00  0.00    +0.000 A 
ENDBRANCH  28  32
ENDBRANCH   1  28
TORSDOF 5
