REMARK  Name = ZINC08740164
REMARK  10 active torsions:
REMARK  status: ('A' for Active; 'I' for Inactive)
REMARK    1  A    between atoms: C_1  and  C_2
REMARK    2  A    between atoms: C_2  and  C_3
REMARK    3  A    between atoms: C_8  and  O_9
REMARK    4  A    between atoms: O_9  and  C_10
REMARK    5  A    between atoms: C_12  and  O_25
REMARK    6  A    between atoms: C_14  and  O_24
REMARK    7  A    between atoms: C_16  and  O_23
REMARK    8  A    between atoms: C_18  and  C_21
REMARK    9  A    between atoms: C_21  and  O_22
REMARK   10  A    between atoms: C_28  and  C_31
REMARK                            x       y       z     vdW  Elec       q    Type
REMARK                         _______ _______ _______ _____ _____    ______ ____
ROOT
ATOM      1  C   UNL     1       1.170   3.179   0.008  0.00  0.00    -0.005 A 
ATOM      2  C   UNL     1      -0.012   3.863   0.024  0.00  0.00    +0.022 A 
ATOM      3  C   UNL     1      -1.218   3.162   0.031  0.00  0.00    +0.065 A 
ATOM      4  C   UNL     1      -1.223   1.756   0.017  0.00  0.00    +0.142 A 
ATOM      5  C   UNL     1      -0.013   1.076   0.008  0.00  0.00    +0.093 A 
ATOM      6  C   UNL     1       1.176   1.786   0.000  0.00  0.00    +0.131 A 
ATOM      7  O   UNL     1      -2.389   1.080   0.031  0.00  0.00    -0.462 OA
ATOM      8  C   UNL     1      -3.583   1.678   0.047  0.00  0.00    +0.208 A 
ATOM      9  C   UNL     1      -3.724   3.028   0.056  0.00  0.00    +0.064 A 
ATOM     10  C   UNL     1      -2.513   3.866   0.049  0.00  0.00    +0.200 A 
ATOM     11  O   UNL     1      -2.578   5.083   0.057  0.00  0.00    -0.286 OA
ENDROOT
BRANCH   9  12
ATOM     12  C   UNL     1      -5.072   3.648   0.073  0.00  0.00    -0.008 A 
ATOM     13  C   UNL     1      -5.375   4.635   1.009  0.00  0.00    +0.012 A 
ATOM     14  C   UNL     1      -6.627   5.214   1.020  0.00  0.00    +0.050 A 
ATOM     15  C   UNL     1      -7.591   4.809   0.110  0.00  0.00    +0.166 A 
ATOM     16  C   UNL     1      -7.295   3.819  -0.825  0.00  0.00    +0.167 A 
ATOM     17  C   UNL     1      -6.039   3.240  -0.844  0.00  0.00    +0.058 A 
ATOM     18  O   UNL     1      -8.400   3.604  -1.598  0.00  0.00    -0.453 OA
ATOM     19  C   UNL     1      -9.499   4.177  -0.865  0.00  0.00    +0.466 C 
ATOM     20  O   UNL     1      -8.882   5.214  -0.078  0.00  0.00    -0.453 OA
ENDBRANCH   9  12
BRANCH   1  22
ATOM     21  C   UNL     1       2.964   4.090  -1.441  0.00  0.00    +0.009 C 
ATOM     22  C   UNL     1       2.474   3.935  -0.000  0.00  0.00    +0.035 C 
ENDBRANCH   1  22
BRANCH   6  23
ATOM     23  O   UNL     1       2.358   1.119  -0.015  0.00  0.00    -0.460 OA
BRANCH  23  24
ATOM     24  C   UNL     1       2.297  -0.308  -0.022  0.00  0.00    +0.339 C 
ATOM     25  C   UNL     1       3.698  -0.880   0.211  0.00  0.00    +0.214 C 
ATOM     26  C   UNL     1       3.635  -2.409   0.142  0.00  0.00    +0.180 C 
ATOM     27  C   UNL     1       3.056  -2.824  -1.214  0.00  0.00    +0.177 C 
ATOM     28  C   UNL     1       1.680  -2.177  -1.393  0.00  0.00    +0.179 C 
ATOM     29  O   UNL     1       1.806  -0.758  -1.287  0.00  0.00    -0.331 OA
BRANCH  27  30
ATOM     30  O   UNL     1       3.929  -2.390  -2.259  0.00  0.00    -0.386 OA
ATOM     31  H   UNL     1       4.821  -2.758  -2.205  0.00  0.00    +0.210 HD
ENDBRANCH  27  30
BRANCH  26  32
ATOM     32  O   UNL     1       2.797  -2.901   1.190  0.00  0.00    -0.386 OA
ATOM     33  H   UNL     1       3.101  -2.669   2.078  0.00  0.00    +0.210 HD
ENDBRANCH  26  32
BRANCH  25  34
ATOM     34  O   UNL     1       4.169  -0.479   1.499  0.00  0.00    -0.383 OA
ATOM     35  H   UNL     1       4.230   0.479   1.614  0.00  0.00    +0.210 HD
ENDBRANCH  25  34
BRANCH  28  36
ATOM     36  C   UNL     1       1.122  -2.539  -2.771  0.00  0.00    +0.190 C 
BRANCH  36  37
ATOM     37  O   UNL     1      -0.209  -2.033  -2.893  0.00  0.00    -0.392 OA
ATOM     38  H   UNL     1      -0.627  -2.225  -3.743  0.00  0.00    +0.210 HD
ENDBRANCH  36  37
ENDBRANCH  28  36
ENDBRANCH  23  24
ENDBRANCH   6  23
TORSDOF 9
