REMARK  Name = ZINC40117789
REMARK  8 active torsions:
REMARK  status: ('A' for Active; 'I' for Inactive)
REMARK    1  A    between atoms: C_1  and  C_2
REMARK    2  A    between atoms: C_7  and  O_8
REMARK    3  A    between atoms: O_8  and  C_9
REMARK    4  A    between atoms: C_9  and  C_11
REMARK    5  A    between atoms: C_9  and  C_12
REMARK    6  A    between atoms: N_14  and  C_15
REMARK    7  A    between atoms: C_19  and  C_21
REMARK    8  A    between atoms: C_21  and  C_28
REMARK                            x       y       z     vdW  Elec       q    Type
REMARK                         _______ _______ _______ _____ _____    ______ ____
ROOT
ATOM      1  C   UNL     1      -1.918   0.026   6.738  0.00  0.00    +0.034 A 
ATOM      2  C   UNL     1      -2.909   0.892   6.293  0.00  0.00    +0.023 A 
ATOM      3  C   UNL     1      -3.729   1.526   7.205  0.00  0.00    +0.002 A 
ATOM      4  C   UNL     1      -3.565   1.300   8.560  0.00  0.00    +0.006 A 
ATOM      5  C   UNL     1      -2.580   0.439   9.005  0.00  0.00    -0.014 A 
ATOM      6  C   UNL     1      -1.760  -0.204   8.098  0.00  0.00    +0.029 A 
ENDROOT
BRANCH   5   7
ATOM      7  C   UNL     1      -2.405   0.195  10.482  0.00  0.00    +0.135 C 
ATOM      8  C   UNL     1      -2.738  -1.242  10.829  0.00  0.00    +0.248 C 
ATOM      9  O   UNL     1      -2.185  -2.241  10.422  0.00  0.00    -0.273 OA
ATOM     10  N   UNL     1      -3.777  -1.179  11.686  0.00  0.00    -0.238 N 
ATOM     11  C   UNL     1      -4.142   0.086  11.926  0.00  0.00    +0.307 C 
ATOM     12  O   UNL     1      -5.054   0.397  12.666  0.00  0.00    -0.252 OA
ATOM     13  N   UNL     1      -3.386   0.975  11.256  0.00  0.00    -0.282 N 
ATOM     14  C   UNL     1      -0.979   0.541  10.918  0.00  0.00    +0.047 C 
ATOM     15  H   UNL     1      -4.207  -1.954  12.079  0.00  0.00    +0.159 HD
ATOM     16  H   UNL     1      -3.471   1.941  11.279  0.00  0.00    +0.152 HD
ENDBRANCH   5   7
BRANCH   1  19
ATOM     17  C   UNL     1      -0.737   0.004   4.673  0.00  0.00    +0.258 C 
ATOM     18  O   UNL     1      -1.069   1.155   4.483  0.00  0.00    -0.271 OA
ATOM     19  N   UNL     1      -1.085  -0.619   5.817  0.00  0.00    -0.282 N 
ATOM     20  H   UNL     1      -0.758  -1.513   6.001  0.00  0.00    +0.155 HD
BRANCH  17  21
ATOM     21  C   UNL     1       0.066  -0.730   3.630  0.00  0.00    +0.256 C 
ATOM     22  C   UNL     1       1.401  -1.172   4.232  0.00  0.00    +0.062 C 
BRANCH  21  23
ATOM     23  O   UNL     1       0.307   0.135   2.518  0.00  0.00    -0.480 OA
BRANCH  23  30
ATOM     24  C   UNL     1       0.532   1.821   0.264  0.00  0.00    +0.047 C 
ATOM     25  C   UNL     1       0.651   0.322   0.172  0.00  0.00    -0.007 A 
ATOM     26  C   UNL     1       0.886  -0.279  -1.050  0.00  0.00    +0.027 A 
ATOM     27  C   UNL     1       0.996  -1.655  -1.135  0.00  0.00    +0.041 A 
ATOM     28  C   UNL     1       0.871  -2.433   0.003  0.00  0.00    +0.023 A 
ATOM     29  C   UNL     1       0.637  -1.836   1.227  0.00  0.00    +0.047 A 
ATOM     30  C   UNL     1       0.532  -0.455   1.315  0.00  0.00    +0.125 A 
ATOM     31 CL   UNL     1       1.290  -2.408  -2.671  0.00  0.00    -0.084 Cl
ENDBRANCH  23  30
ENDBRANCH  21  23
ENDBRANCH  17  21
ENDBRANCH   1  19
TORSDOF 5
