REMARK  Name = ZINC37757228
REMARK  6 active torsions:
REMARK  status: ('A' for Active; 'I' for Inactive)
REMARK    1  A    between atoms: C_1  and  C_2
REMARK    2  A    between atoms: C_2  and  C_3
REMARK    3  A    between atoms: C_2  and  N_4
REMARK    4  A    between atoms: C_5  and  C_7
REMARK    5  A    between atoms: C_7  and  N_8
REMARK    6  A    between atoms: N_8  and  C_9
REMARK                            x       y       z     vdW  Elec       q    Type
REMARK                         _______ _______ _______ _____ _____    ______ ____
ROOT
ATOM      1  C   UNL     1       0.294  -1.634   5.941  0.00  0.00    +0.100 A 
ATOM      2  C   UNL     1      -0.587  -1.693   6.969  0.00  0.00    +0.050 A 
ATOM      3  C   UNL     1      -0.158  -2.132   8.244  0.00  0.00    -0.010 A 
ATOM      4  C   UNL     1      -1.035  -2.208   9.331  0.00  0.00    +0.009 A 
ATOM      5  C   UNL     1      -0.573  -2.639  10.541  0.00  0.00    +0.001 A 
ATOM      6  C   UNL     1       0.758  -3.004  10.709  0.00  0.00    +0.001 A 
ATOM      7  C   UNL     1       1.640  -2.940   9.667  0.00  0.00    +0.014 A 
ATOM      8  C   UNL     1       1.197  -2.504   8.417  0.00  0.00    +0.047 A 
ATOM      9  C   UNL     1       2.099  -2.418   7.265  0.00  0.00    +0.258 A 
ATOM     10  O   UNL     1       3.272  -2.729   7.372  0.00  0.00    -0.267 OA
ATOM     11  N   UNL     1       1.607  -1.993   6.083  0.00  0.00    -0.310 N 
ATOM     12  H   UNL     1       2.199  -1.937   5.316  0.00  0.00    +0.170 HD
ENDROOT
BRANCH   1  13
ATOM     13  N   UNL     1      -0.150  -1.201   4.706  0.00  0.00    -0.322 N 
ATOM     14  H   UNL     1      -1.077  -0.942   4.588  0.00  0.00    +0.148 HD
BRANCH  13  15
ATOM     15  C   UNL     1       0.780  -1.133   3.576  0.00  0.00    +0.198 C 
BRANCH  15  17
ATOM     16  N   UNL     1       0.711  -0.489   1.189  0.00  0.00    -0.312 N 
ATOM     17  C   UNL     1       0.051  -0.633   2.355  0.00  0.00    +0.230 C 
ATOM     18  O   UNL     1      -1.129  -0.361   2.423  0.00  0.00    -0.274 OA
ATOM     19  H   UNL     1       1.654  -0.707   1.135  0.00  0.00    +0.149 HD
BRANCH  16  21
ATOM     20  C   UNL     1      -0.019   1.526   0.010  0.00  0.00    +0.027 C 
ATOM     21  C   UNL     1       0.002  -0.004   0.002  0.00  0.00    +0.067 C 
ATOM     22  C   UNL     1       0.718  -0.497  -1.257  0.00  0.00    +0.027 C 
ENDBRANCH  16  21
ENDBRANCH  15  17
ENDBRANCH  13  15
ENDBRANCH   1  13
TORSDOF 4
