REMARK  Name = ZINC10041775
REMARK  8 active torsions:
REMARK  status: ('A' for Active; 'I' for Inactive)
REMARK    1  A    between atoms: C_1  and  C_2
REMARK    2  A    between atoms: C_2  and  C_3
REMARK    3  A    between atoms: C_2  and  C_4
REMARK    4  A    between atoms: C_4  and  C_6
REMARK    5  A    between atoms: C_4  and  N_19
REMARK    6  A    between atoms: N_8  and  N_9
REMARK    7  A    between atoms: N_9  and  C_10
REMARK    8  A    between atoms: C_20  and  C_22
REMARK                            x       y       z     vdW  Elec       q    Type
REMARK                         _______ _______ _______ _____ _____    ______ ____
ROOT
ATOM      1  C   UNL     1      -1.354  -0.556  -0.083  0.00  0.00    +0.163 C 
ENDROOT
BRANCH   1   2
ATOM      2  C   UNL     1      -1.280  -2.049   0.111  0.00  0.00    +0.250 C 
ATOM      3  O   UNL     1      -1.694  -2.794  -0.751  0.00  0.00    -0.272 OA
ATOM      4  N   UNL     1      -0.754  -2.556   1.244  0.00  0.00    -0.235 N 
ATOM      5  H   UNL     1      -0.356  -1.964   1.901  0.00  0.00    +0.173 HD
BRANCH   4   6
ATOM      6  N   UNL     1      -0.780  -3.938   1.471  0.00  0.00    -0.271 N 
ATOM      7  H   UNL     1      -1.177  -4.530   0.814  0.00  0.00    +0.169 HD
BRANCH   6   8
ATOM      8  C   UNL     1      -0.256  -4.442   2.598  0.00  0.00    +0.099 C 
ATOM      9  C   UNL     1      -0.282  -5.821   2.825  0.00  0.00    +0.038 C 
ATOM     10  C   UNL     1      -0.851  -6.698   1.875  0.00  0.00    +0.028 C 
ATOM     11  C   UNL     1      -0.867  -8.036   2.115  0.00  0.00    +0.019 C 
ATOM     12  C   UNL     1      -0.333  -8.573   3.283  0.00  0.00    +0.019 C 
ATOM     13  C   UNL     1       0.230  -7.782   4.238  0.00  0.00    +0.052 C 
ATOM     14  C   UNL     1       0.287  -6.390   4.053  0.00  0.00    +0.187 C 
ATOM     15  O   UNL     1       0.794  -5.668   4.900  0.00  0.00    -0.287 OA
ATOM     16 BR   UNL     1      -1.634  -9.195   0.832  0.00  0.00    -0.050 Br
ENDBRANCH   6   8
ENDBRANCH   4   6
ENDBRANCH   1   2
BRANCH   1  17
ATOM     17  N   UNL     1      -2.371  -0.245  -1.091  0.00  0.00    -0.300 N 
ATOM     18  C   UNL     1      -2.976   0.959  -1.088  0.00  0.00    +0.245 C 
ATOM     19  O   UNL     1      -2.679   1.787  -0.249  0.00  0.00    -0.270 OA
ATOM     20  H   UNL     1      -2.609  -0.906  -1.760  0.00  0.00    +0.150 HD
BRANCH  18  21
ATOM     21  C   UNL     1      -4.002   1.273  -2.104  0.00  0.00    +0.037 A 
ATOM     22  C   UNL     1      -4.351   0.322  -3.065  0.00  0.00    +0.014 A 
ATOM     23  C   UNL     1      -5.309   0.621  -4.011  0.00  0.00    +0.021 A 
ATOM     24  C   UNL     1      -5.925   1.862  -4.008  0.00  0.00    +0.041 A 
ATOM     25  C   UNL     1      -5.584   2.809  -3.057  0.00  0.00    +0.021 A 
ATOM     26  C   UNL     1      -4.631   2.520  -2.103  0.00  0.00    +0.014 A 
ATOM     27 CL   UNL     1      -7.130   2.231  -5.202  0.00  0.00    -0.084 Cl
ENDBRANCH  18  21
ENDBRANCH   1  17
BRANCH   1  29
ATOM     28  C   UNL     1       0.314  -0.596  -1.943  0.00  0.00    +0.009 C 
ATOM     29  C   UNL     1       0.005  -0.035  -0.553  0.00  0.00    +0.012 C 
ATOM     30  C   UNL     1      -0.028   1.493  -0.616  0.00  0.00    +0.009 C 
ENDBRANCH   1  29
TORSDOF 6
