REMARK  Name = ZINC60811772
REMARK  7 active torsions:
REMARK  status: ('A' for Active; 'I' for Inactive)
REMARK    1  A    between atoms: C_1  and  C_2
REMARK    2  A    between atoms: C_2  and  C_3
REMARK    3  A    between atoms: C_3  and  C_4
REMARK    4  A    between atoms: C_4  and  C_24
REMARK    5  A    between atoms: N_7  and  C_11
REMARK    6  A    between atoms: C_11  and  C_12
REMARK    7  A    between atoms: C_15  and  C_17
REMARK                            x       y       z     vdW  Elec       q    Type
REMARK                         _______ _______ _______ _____ _____    ______ ____
ROOT
ATOM      1  C   UNL     1      -4.008  -4.046   1.774  0.00  0.00    +0.176 C 
ENDROOT
BRANCH   1   5
ATOM      2  C   UNL     1      -1.413  -2.063   0.004  0.00  0.00    +0.110 C 
ATOM      3  C   UNL     1      -2.819  -2.617   0.123  0.00  0.00    +0.247 C 
ATOM      4  O   UNL     1      -3.739  -2.451  -0.649  0.00  0.00    -0.273 OA
ATOM      5  N   UNL     1      -2.834  -3.331   1.266  0.00  0.00    -0.218 N 
ATOM      6  C   UNL     1      -1.645  -3.307   1.879  0.00  0.00    +0.310 C 
ATOM      7  O   UNL     1      -1.413  -3.879   2.926  0.00  0.00    -0.252 OA
ATOM      8  N   UNL     1      -0.735  -2.579   1.207  0.00  0.00    -0.285 N 
ATOM      9  C   UNL     1      -0.731  -2.584  -1.263  0.00  0.00    +0.041 C 
ATOM     10  H   UNL     1       0.187  -2.425   1.463  0.00  0.00    +0.151 HD
BRANCH   2  11
ATOM     11  C   UNL     1      -1.433  -0.534   0.013  0.00  0.00    +0.035 C 
BRANCH  11  13
ATOM     12  C   UNL     1      -0.019   1.526   0.010  0.00  0.00    +0.004 C 
ATOM     13  C   UNL     1       0.002  -0.004   0.002  0.00  0.00    -0.001 C 
ENDBRANCH  11  13
ENDBRANCH   2  11
ENDBRANCH   1   5
BRANCH   1  14
ATOM     14  C   UNL     1      -4.016  -5.451   1.228  0.00  0.00    +0.098 A 
ATOM     15  C   UNL     1      -3.531  -6.543   1.845  0.00  0.00    +0.222 A 
ATOM     16  O   UNL     1      -3.734  -7.591   1.022  0.00  0.00    -0.443 OA
ATOM     17  C   UNL     1      -4.339  -7.129  -0.086  0.00  0.00    +0.227 A 
ATOM     18  N   UNL     1      -4.513  -5.835   0.042  0.00  0.00    -0.212 NA
BRANCH  17  19
ATOM     19  C   UNL     1      -4.745  -7.943  -1.252  0.00  0.00    +0.040 A 
ATOM     20  C   UNL     1      -5.362  -7.338  -2.348  0.00  0.00    +0.013 A 
ATOM     21  C   UNL     1      -5.739  -8.102  -3.433  0.00  0.00    +0.004 A 
ATOM     22  C   UNL     1      -5.506  -9.466  -3.437  0.00  0.00    +0.038 A 
ATOM     23  C   UNL     1      -4.894 -10.073  -2.353  0.00  0.00    +0.124 A 
ATOM     24  C   UNL     1      -4.507  -9.318  -1.263  0.00  0.00    +0.051 A 
ATOM     25  F   UNL     1      -4.670 -11.406  -2.364  0.00  0.00    -0.205 F 
ENDBRANCH  17  19
ENDBRANCH   1  14
TORSDOF 5
