REMARK  Name = ZINC63913847
REMARK  5 active torsions:
REMARK  status: ('A' for Active; 'I' for Inactive)
REMARK    1  A    between atoms: C_1  and  C_2
REMARK    2  A    between atoms: C_4  and  C_14
REMARK    3  A    between atoms: N_6  and  C_7
REMARK    4  A    between atoms: N_16  and  C_17
REMARK    5  A    between atoms: C_25  and  C_26
REMARK                            x       y       z     vdW  Elec       q    Type
REMARK                         _______ _______ _______ _____ _____    ______ ____
ROOT
ATOM      1  C   UNL     1       1.153  -3.275  -1.780  0.00  0.00    +0.287 C 
ATOM      2  O   UNL     1       1.635  -4.358  -1.511  0.00  0.00    -0.266 OA
ATOM      3  N   UNL     1       0.414  -3.126  -2.898  0.00  0.00    -0.275 N 
ATOM      4  H   UNL     1       0.081  -2.249  -3.145  0.00  0.00    +0.155 HD
ENDROOT
BRANCH   3   5
ATOM      5  C   UNL     1       0.131  -4.227  -3.695  0.00  0.00    +0.093 A 
ATOM      6  C   UNL     1       0.004  -5.624  -3.262  0.00  0.00    +0.042 A 
ATOM      7  C   UNL     1       0.112  -6.272  -2.030  0.00  0.00    +0.013 A 
ATOM      8  C   UNL     1      -0.066  -7.625  -1.959  0.00  0.00    +0.001 A 
ATOM      9  C   UNL     1      -0.354  -8.357  -3.102  0.00  0.00    +0.004 A 
ATOM     10  C   UNL     1      -0.464  -7.736  -4.327  0.00  0.00    +0.047 A 
ATOM     11  C   UNL     1      -0.287  -6.360  -4.423  0.00  0.00    +0.138 A 
ATOM     12  O   UNL     1      -0.332  -5.497  -5.458  0.00  0.00    -0.448 OA
ATOM     13  C   UNL     1      -0.094  -4.232  -5.045  0.00  0.00    +0.211 A 
BRANCH  13  14
ATOM     14  C   UNL     1      -0.075  -3.052  -5.907  0.00  0.00    +0.279 C 
ATOM     15  O   UNL     1       0.044  -1.943  -5.419  0.00  0.00    -0.267 OA
ATOM     16  N   UNL     1      -0.189  -3.192  -7.243  0.00  0.00    -0.323 N 
ATOM     17  H   UNL     1      -0.283  -4.076  -7.632  0.00  0.00    +0.145 HD
ATOM     18  H   UNL     1      -0.176  -2.409  -7.815  0.00  0.00    +0.145 HD
ENDBRANCH  13  14
ENDBRANCH   3   5
BRANCH   1  22
ATOM     19  C   UNL     1       1.035   1.311   0.168  0.00  0.00    +0.088 C 
ATOM     20  C   UNL     1       1.321  -0.152  -0.056  0.00  0.00    +0.131 A 
ATOM     21  N   UNL     1       0.903  -0.876  -1.063  0.00  0.00    -0.207 NA
ATOM     22  C   UNL     1       1.377  -2.122  -0.883  0.00  0.00    +0.237 A 
ATOM     23  N   UNL     1       2.076  -2.134   0.232  0.00  0.00    -0.140 NA
ATOM     24  N   UNL     1       2.058  -0.951   0.743  0.00  0.00    -0.215 N 
BRANCH  24  25
ATOM     25  C   UNL     1       2.694  -0.562   1.930  0.00  0.00    +0.086 A 
ATOM     26  C   UNL     1       3.477   0.584   1.955  0.00  0.00    +0.029 A 
ATOM     27  C   UNL     1       4.102   0.966   3.126  0.00  0.00    +0.002 A 
ATOM     28  C   UNL     1       3.949   0.208   4.273  0.00  0.00    +0.002 A 
ATOM     29  C   UNL     1       3.169  -0.933   4.252  0.00  0.00    +0.022 A 
ATOM     30  C   UNL     1       2.537  -1.318   3.084  0.00  0.00    +0.066 A 
ATOM     31 CL   UNL     1       1.553  -2.748   3.060  0.00  0.00    -0.081 Cl
ENDBRANCH  24  25
ENDBRANCH   1  22
TORSDOF 4
