REMARK  Name = ZINC12854753
REMARK  10 active torsions:
REMARK  status: ('A' for Active; 'I' for Inactive)
REMARK    1  A    between atoms: C_1  and  C_2
REMARK    2  A    between atoms: C_2  and  C_3
REMARK    3  A    between atoms: C_2  and  C_4
REMARK    4  A    between atoms: C_4  and  C_6
REMARK    5  A    between atoms: C_4  and  N_19
REMARK    6  A    between atoms: N_8  and  C_9
REMARK    7  A    between atoms: C_9  and  C_10
REMARK    8  A    between atoms: C_13  and  S_15
REMARK    9  A    between atoms: S_15  and  N_18
REMARK   10  A    between atoms: C_20  and  C_22
REMARK                            x       y       z     vdW  Elec       q    Type
REMARK                         _______ _______ _______ _____ _____    ______ ____
ROOT
ATOM      1  C   UNL     1      -2.132   7.259  -0.950  0.00  0.00    +0.161 C 
ENDROOT
BRANCH   1   2
ATOM      2  C   UNL     1      -2.276   7.767  -2.361  0.00  0.00    +0.234 C 
ATOM      3  O   UNL     1      -2.355   6.983  -3.283  0.00  0.00    -0.274 OA
ATOM      4  N   UNL     1      -2.318   9.093  -2.599  0.00  0.00    -0.309 N 
ATOM      5  H   UNL     1      -2.255   9.720  -1.861  0.00  0.00    +0.149 HD
BRANCH   4   6
ATOM      6  C   UNL     1      -2.458   9.587  -3.971  0.00  0.00    +0.146 C 
BRANCH   6   7
ATOM      7  C   UNL     1      -2.479  11.094  -3.962  0.00  0.00    +0.009 A 
ATOM      8  C   UNL     1      -1.442  11.962  -4.059  0.00  0.00    +0.015 A 
ATOM      9  C   UNL     1      -1.700  13.320  -4.029  0.00  0.00    +0.036 A 
ATOM     10  C   UNL     1      -2.982  13.743  -3.904  0.00  0.00    +0.142 A 
ATOM     11  S   UNL     1      -3.875  12.199  -3.830  0.00  0.00    -0.072 S 
BRANCH  10  12
ATOM     12  S   UNL     1      -3.606  15.389  -3.838  0.00  0.00    +0.062 S 
ATOM     13  O   UNL     1      -4.855  15.324  -3.164  0.00  0.00    -0.153 OA
ATOM     14  O   UNL     1      -2.538  16.210  -3.384  0.00  0.00    -0.153 OA
BRANCH  12  15
ATOM     15  N   UNL     1      -3.931  15.853  -5.394  0.00  0.00    -0.203 NA
ATOM     16  H   UNL     1      -3.766  15.239  -6.127  0.00  0.00    +0.144 HD
ATOM     17  H   UNL     1      -4.287  16.738  -5.572  0.00  0.00    +0.144 HD
ENDBRANCH  12  15
ENDBRANCH  10  12
ENDBRANCH   6   7
ENDBRANCH   4   6
ENDBRANCH   1   2
BRANCH   1  18
ATOM     18  N   UNL     1      -2.112   5.794  -0.958  0.00  0.00    -0.303 N 
ATOM     19  C   UNL     1      -1.510   5.123   0.044  0.00  0.00    +0.220 C 
ATOM     20  O   UNL     1      -0.985   5.731   0.952  0.00  0.00    -0.275 OA
ATOM     21  H   UNL     1      -2.533   5.307  -1.684  0.00  0.00    +0.149 HD
BRANCH  19  22
ATOM     22  C   UNL     1      -1.490   3.616   0.036  0.00  0.00    +0.048 C 
ATOM     23  C   UNL     1      -0.773   3.123  -1.223  0.00  0.00    +0.019 C 
ATOM     24  C   UNL     1      -0.753   1.593  -1.232  0.00  0.00    -0.009 C 
ATOM     25  C   UNL     1      -0.013   1.086   0.008  0.00  0.00    +0.007 C 
ATOM     26  C   UNL     1      -0.729   1.579   1.267  0.00  0.00    -0.009 C 
ATOM     27  C   UNL     1      -0.750   3.109   1.275  0.00  0.00    +0.019 C 
ATOM     28  C   UNL     1      -2.164   1.050   1.278  0.00  0.00    +0.007 C 
ATOM     29  C   UNL     1      -2.904   1.556   0.038  0.00  0.00    -0.009 C 
ATOM     30  C   UNL     1      -2.188   1.063  -1.221  0.00  0.00    +0.007 C 
ATOM     31  C   UNL     1      -2.925   3.086   0.047  0.00  0.00    +0.019 C 
ENDBRANCH  19  22
ENDBRANCH   1  18
BRANCH   1  33
ATOM     32  C   UNL     1      -4.607   7.123  -0.633  0.00  0.00    +0.009 C 
ATOM     33  C   UNL     1      -3.313   7.748  -0.108  0.00  0.00    +0.012 C 
ATOM     34  C   UNL     1      -3.104   7.338   1.351  0.00  0.00    +0.009 C 
ENDBRANCH   1  33
TORSDOF 8
