REMARK  Name = ZINC09357918
REMARK  8 active torsions:
REMARK  status: ('A' for Active; 'I' for Inactive)
REMARK    1  A    between atoms: C_1  and  C_2
REMARK    2  A    between atoms: C_2  and  N_3
REMARK    3  A    between atoms: C_7  and  C_31
REMARK    4  A    between atoms: C_8  and  C_30
REMARK    5  A    between atoms: C_12  and  S_13
REMARK    6  A    between atoms: S_13  and  C_14
REMARK    7  A    between atoms: C_14  and  C_15
REMARK    8  A    between atoms: N_17  and  N_18
REMARK                            x       y       z     vdW  Elec       q    Type
REMARK                         _______ _______ _______ _____ _____    ______ ____
ROOT
ATOM      1  C   UNL     1      -1.187   1.624   0.017  0.00  0.00    +0.240 C 
ATOM      2  O   UNL     1      -1.204   2.837   0.023  0.00  0.00    -0.273 OA
ATOM      3  N   UNL     1      -0.011   0.966   0.007  0.00  0.00    -0.223 N 
ATOM      4  H   UNL     1       0.002  -0.004   0.002  0.00  0.00    +0.174 HD
ENDROOT
BRANCH   3   5
ATOM      5  N   UNL     1       1.193   1.683  -0.000  0.00  0.00    -0.137 N 
ATOM      6  C   UNL     1       2.002   1.817   1.071  0.00  0.00    +0.263 C 
ATOM      7  O   UNL     1       1.834   1.358   2.180  0.00  0.00    -0.271 OA
ATOM      8  C   UNL     1       3.163   2.660   0.596  0.00  0.00    +0.114 C 
ATOM      9  C   UNL     1       4.469   1.881   0.716  0.00  0.00    +0.035 C 
ATOM     10  C   UNL     1       5.628   2.741   0.204  0.00  0.00    +0.003 C 
ATOM     11  C   UNL     1       5.706   4.030   1.025  0.00  0.00    +0.000 C 
ATOM     12  C   UNL     1       4.399   4.811   0.874  0.00  0.00    +0.003 C 
ATOM     13  C   UNL     1       3.235   3.960   1.389  0.00  0.00    +0.035 C 
ATOM     14  N   UNL     1       2.854   2.932  -0.814  0.00  0.00    -0.284 N 
ATOM     15  C   UNL     1       1.685   2.315  -1.073  0.00  0.00    +0.326 C 
ATOM     16  O   UNL     1       1.137   2.333  -2.157  0.00  0.00    -0.251 OA
ATOM     17  H   UNL     1       3.388   3.450  -1.436  0.00  0.00    +0.151 HD
ENDBRANCH   3   5
BRANCH   1  18
ATOM     18  C   UNL     1      -2.482   0.853   0.018  0.00  0.00    +0.174 C 
BRANCH  18  19
ATOM     19  S   UNL     1      -3.874   2.010   0.031  0.00  0.00    -0.078 S 
BRANCH  19  29
ATOM     20  N   UNL     1      -6.499   1.343   0.040  0.00  0.00    -0.288 N 
ATOM     21  C   UNL     1      -7.552   0.504   0.041  0.00  0.00    +0.263 A 
ATOM     22  O   UNL     1      -8.690   0.941   0.049  0.00  0.00    -0.267 OA
ATOM     23  C   UNL     1      -7.318  -0.907   0.031  0.00  0.00    +0.075 A 
ATOM     24  C   UNL     1      -8.277  -1.999   0.030  0.00  0.00    -0.026 A 
ATOM     25  C   UNL     1      -7.830  -3.263   0.021  0.00  0.00    -0.008 A 
ATOM     26  S   UNL     1      -6.057  -3.076   0.013  0.00  0.00    -0.073 S 
ATOM     27  C   UNL     1      -5.967  -1.304   0.022  0.00  0.00    +0.117 A 
ATOM     28  N   UNL     1      -4.974  -0.423   0.018  0.00  0.00    -0.216 NA
ATOM     29  C   UNL     1      -5.218   0.872   0.032  0.00  0.00    +0.173 A 
ATOM     30  C   UNL     1      -8.635  -4.537   0.019  0.00  0.00    +0.052 C 
ATOM     31  C   UNL     1      -9.756  -1.713   0.039  0.00  0.00    +0.045 C 
BRANCH  20  33
ATOM     32  C   UNL     1      -6.821   3.301  -1.389  0.00  0.00    +0.027 C 
ATOM     33  C   UNL     1      -6.733   2.789   0.050  0.00  0.00    +0.124 C 
ENDBRANCH  20  33
ENDBRANCH  19  29
ENDBRANCH  18  19
ENDBRANCH   1  18
TORSDOF 5
