REMARK  Name = ZINC06430856
REMARK  8 active torsions:
REMARK  status: ('A' for Active; 'I' for Inactive)
REMARK    1  A    between atoms: C_1  and  C_2
REMARK    2  A    between atoms: C_2  and  C_3
REMARK    3  A    between atoms: C_3  and  N_50
REMARK    4  A    between atoms: C_4  and  C_5
REMARK    5  A    between atoms: C_4  and  N_50
REMARK    6  A    between atoms: N_7  and  C_8
REMARK    7  A    between atoms: C_12  and  S_14
REMARK    8  A    between atoms: S_14  and  N_17
REMARK                            x       y       z     vdW  Elec       q    Type
REMARK                         _______ _______ _______ _____ _____    ______ ____
ROOT
ATOM      1  C   UNL     1       0.037  -0.003   0.013  0.00  0.00    +0.035 A 
ATOM      2  C   UNL     1       1.259  -0.652  -0.111  0.00  0.00    +0.023 A 
ATOM      3  C   UNL     1       1.310  -2.032  -0.102  0.00  0.00    +0.004 A 
ATOM      4  C   UNL     1       0.145  -2.768   0.020  0.00  0.00    +0.029 A 
ATOM      5  C   UNL     1      -1.073  -2.125   0.139  0.00  0.00    +0.114 A 
ATOM      6  C   UNL     1      -1.130  -0.745   0.136  0.00  0.00    +0.052 A 
ENDROOT
BRANCH   1   9
ATOM      7  C   UNL     1       0.974   2.109   0.579  0.00  0.00    +0.200 C 
ATOM      8  O   UNL     1       1.953   1.545   1.020  0.00  0.00    -0.278 OA
ATOM      9  N   UNL     1      -0.017   1.395   0.010  0.00  0.00    -0.287 N 
ATOM     10  H   UNL     1      -0.766   1.850  -0.406  0.00  0.00    +0.155 HD
BRANCH   7  11
ATOM     11  C   UNL     1       0.866   3.610   0.668  0.00  0.00    +0.015 C 
BRANCH  11  12
ATOM     12  N   UNL     1       2.072   4.143   1.329  0.00  0.00    +0.385 N 
ATOM     13  H   UNL     1       2.147   3.742   2.272  0.00  0.00    -0.085 HD
ATOM     14  H   UNL     1       2.901   3.885   0.781  0.00  0.00    -0.085 HD
BRANCH  12  15
ATOM     15  C   UNL     1       1.993   5.612   1.431  0.00  0.00    -0.082 C 
BRANCH  15  17
ATOM     16  C   UNL     1       3.182   7.660   2.228  0.00  0.00    +0.002 C 
ATOM     17  C   UNL     1       3.256   6.136   2.119  0.00  0.00    -0.022 C 
ENDBRANCH  15  17
ENDBRANCH  12  15
ENDBRANCH  11  12
ENDBRANCH   7  11
ENDBRANCH   1   9
BRANCH   5  18
ATOM     18  S   UNL     1      -2.554  -3.066   0.294  0.00  0.00    +0.100 S 
ATOM     19  O   UNL     1      -2.178  -4.332   0.818  0.00  0.00    -0.146 OA
ATOM     20  O   UNL     1      -3.503  -2.227   0.938  0.00  0.00    -0.146 OA
BRANCH  18  21
ATOM     21  N   UNL     1      -3.124  -3.338  -1.237  0.00  0.00    -0.118 NA
ATOM     22  C   UNL     1      -4.213  -4.014  -1.411  0.00  0.00    +0.117 C 
ATOM     23  C   UNL     1      -4.972  -4.567  -0.207  0.00  0.00    +0.073 C 
ATOM     24  C   UNL     1      -6.267  -3.781  -0.098  0.00  0.00    +0.008 C 
ATOM     25  C   UNL     1      -7.412  -4.380  -0.916  0.00  0.00    +0.002 C 
ATOM     26  C   UNL     1      -6.978  -4.839  -2.309  0.00  0.00    +0.019 C 
ATOM     27  C   UNL     1      -6.054  -3.858  -2.998  0.00  0.00    +0.102 C 
ATOM     28  N   UNL     1      -4.669  -4.231  -2.629  0.00  0.00    -0.331 N 
ATOM     29  H   UNL     1      -4.090  -4.641  -3.291  0.00  0.00    +0.147 HD
ENDBRANCH  18  21
ENDBRANCH   5  18
TORSDOF 7
