REMARK  Name = ZINC37108933
REMARK  7 active torsions:
REMARK  status: ('A' for Active; 'I' for Inactive)
REMARK    1  A    between atoms: C_1  and  C_2
REMARK    2  A    between atoms: C_5  and  C_14
REMARK    3  A    between atoms: N_16  and  C_17
REMARK    4  A    between atoms: N_16  and  C_18
REMARK    5  A    between atoms: C_18  and  C_19
REMARK    6  A    between atoms: C_19  and  C_20
REMARK    7  A    between atoms: C_19  and  C_21
REMARK                            x       y       z     vdW  Elec       q    Type
REMARK                         _______ _______ _______ _____ _____    ______ ____
ROOT
ATOM      1  C   UNL     1      -0.012   2.098  -0.967  0.00  0.00    +0.028 C 
ATOM      2  C   UNL     1       0.099   0.613  -0.617  0.00  0.00    +0.068 C 
ATOM      3  C   UNL     1       0.762  -0.146  -1.775  0.00  0.00    +0.039 C 
ATOM      4  C   UNL     1       0.800  -1.635  -1.432  0.00  0.00    +0.109 C 
ATOM      5  C   UNL     1       1.402  -1.847  -0.068  0.00  0.00    -0.015 A 
ATOM      6  C   UNL     1       1.918  -3.092   0.250  0.00  0.00    +0.006 A 
ATOM      7  C   UNL     1       2.474  -3.319   1.494  0.00  0.00    +0.000 A 
ATOM      8  C   UNL     1       2.519  -2.303   2.431  0.00  0.00    +0.002 A 
ATOM      9  C   UNL     1       2.008  -1.059   2.122  0.00  0.00    +0.023 A 
ATOM     10  C   UNL     1       1.449  -0.828   0.869  0.00  0.00    +0.031 A 
ATOM     11  N   UNL     1       0.943   0.444   0.574  0.00  0.00    -0.341 N 
ATOM     12  H   UNL     1       1.147   1.201   1.145  0.00  0.00    +0.146 HD
ENDROOT
BRANCH   4  13
ATOM     13  C   UNL     1       1.631  -2.361  -2.458  0.00  0.00    +0.223 C 
ATOM     14  O   UNL     1       2.819  -2.523  -2.272  0.00  0.00    -0.275 OA
ATOM     15  N   UNL     1       1.055  -2.831  -3.582  0.00  0.00    -0.304 N 
ATOM     16  C   UNL     1      -0.352  -2.538  -3.861  0.00  0.00    +0.132 C 
BRANCH  15  17
ATOM     17  C   UNL     1       1.837  -3.635  -4.525  0.00  0.00    +0.110 C 
BRANCH  17  18
ATOM     18  C   UNL     1       1.721  -5.114  -4.153  0.00  0.00    +0.000 C 
ATOM     19  C   UNL     1       0.273  -5.573  -4.334  0.00  0.00    +0.009 C 
ATOM     20  C   UNL     1       2.635  -5.941  -5.059  0.00  0.00    +0.009 C 
ENDBRANCH  17  18
ENDBRANCH  15  17
ENDBRANCH   4  13
TORSDOF 3
