REMARK  Name = ZINC65842853
REMARK  7 active torsions:
REMARK  status: ('A' for Active; 'I' for Inactive)
REMARK    1  A    between atoms: C_1  and  C_2
REMARK    2  A    between atoms: C_2  and  C_3
REMARK    3  A    between atoms: N_5  and  C_6
REMARK    4  A    between atoms: C_10  and  N_12
REMARK    5  A    between atoms: C_13  and  C_15
REMARK    6  A    between atoms: N_17  and  C_18
REMARK    7  A    between atoms: C_21  and  C_25
REMARK                            x       y       z     vdW  Elec       q    Type
REMARK                         _______ _______ _______ _____ _____    ______ ____
ROOT
ATOM      1  N   UNL     1       2.639  -5.303  -4.278  0.00  0.00    -0.278 N 
ATOM      2  C   UNL     1       3.796  -5.744  -4.812  0.00  0.00    +0.303 C 
ATOM      3  O   UNL     1       4.657  -4.951  -5.132  0.00  0.00    -0.265 OA
ATOM      4  H   UNL     1       1.924  -5.930  -4.085  0.00  0.00    +0.155 HD
ENDROOT
BRANCH   1   9
ATOM      5  C   UNL     1       1.570  -2.195  -2.624  0.00  0.00    +0.035 A 
ATOM      6  C   UNL     1       2.139  -1.245  -3.464  0.00  0.00    +0.023 A 
ATOM      7  C   UNL     1       2.868  -1.645  -4.567  0.00  0.00    +0.004 A 
ATOM      8  C   UNL     1       3.036  -2.989  -4.839  0.00  0.00    +0.023 A 
ATOM      9  C   UNL     1       2.470  -3.944  -4.003  0.00  0.00    +0.036 A 
ATOM     10  C   UNL     1       1.741  -3.546  -2.890  0.00  0.00    +0.046 A 
BRANCH   5  13
ATOM     11  C   UNL     1       0.878  -2.510  -0.370  0.00  0.00    +0.217 C 
ATOM     12  O   UNL     1       1.493  -3.555  -0.339  0.00  0.00    -0.275 OA
ATOM     13  N   UNL     1       0.831  -1.789  -1.507  0.00  0.00    -0.285 N 
ATOM     14  H   UNL     1       0.284  -0.989  -1.552  0.00  0.00    +0.155 HD
BRANCH  11  16
ATOM     15  C   UNL     1       0.377  -3.015   2.006  0.00  0.00    +0.013 C 
ATOM     16  C   UNL     1       0.167  -2.019   0.864  0.00  0.00    +0.093 C 
ENDBRANCH  11  16
ENDBRANCH   5  13
ENDBRANCH   1   9
BRANCH   2  17
ATOM     17  C   UNL     1       4.016  -7.207  -5.011  0.00  0.00    +0.303 C 
ATOM     18  O   UNL     1       3.155  -7.999  -4.691  0.00  0.00    -0.265 OA
ATOM     19  N   UNL     1       5.173  -7.647  -5.545  0.00  0.00    -0.278 N 
ATOM     20  H   UNL     1       5.891  -7.022  -5.728  0.00  0.00    +0.155 HD
BRANCH  19  21
ATOM     21  C   UNL     1       5.336  -9.001  -5.833  0.00  0.00    +0.035 A 
ATOM     22  C   UNL     1       4.251  -9.751  -6.280  0.00  0.00    +0.024 A 
ATOM     23  C   UNL     1       4.408 -11.088  -6.566  0.00  0.00    +0.022 A 
ATOM     24  C   UNL     1       5.658 -11.694  -6.408  0.00  0.00    +0.070 A 
ATOM     25  C   UNL     1       6.746 -10.938  -5.959  0.00  0.00    +0.060 A 
ATOM     26  C   UNL     1       6.583  -9.597  -5.680  0.00  0.00    +0.044 A 
ATOM     27 CL   UNL     1       8.301 -11.684  -5.760  0.00  0.00    -0.082 Cl
BRANCH  24  28
ATOM     28  C   UNL     1       5.824 -13.085  -6.704  0.00  0.00    +0.101 C 
ATOM     29  N   UNL     1       5.956 -14.188  -6.939  0.00  0.00    -0.191 NA
ENDBRANCH  24  28
ENDBRANCH  19  21
ENDBRANCH   2  17
TORSDOF 6
