REMARK  Name = ZINC38745218
REMARK  6 active torsions:
REMARK  status: ('A' for Active; 'I' for Inactive)
REMARK    1  A    between atoms: C_1  and  C_2
REMARK    2  A    between atoms: C_6  and  O_8
REMARK    3  A    between atoms: O_8  and  C_9
REMARK    4  A    between atoms: C_9  and  C_10
REMARK    5  A    between atoms: C_16  and  C_19
REMARK    6  A    between atoms: C_22  and  C_25
REMARK                            x       y       z     vdW  Elec       q    Type
REMARK                         _______ _______ _______ _____ _____    ______ ____
ROOT
ATOM      1  C   UNL     1       0.083  -4.787   3.662  0.00  0.00    +0.189 A 
ATOM      2  N   UNL     1       1.141  -5.065   4.364  0.00  0.00    -0.128 NA
ATOM      3  N   UNL     1       0.800  -5.563   5.500  0.00  0.00    -0.121 NA
ATOM      4  C   UNL     1      -0.492  -5.641   5.566  0.00  0.00    +0.211 A 
ATOM      5  N   UNL     1      -1.029  -5.118   4.417  0.00  0.00    -0.221 N 
ATOM      6  N   UNL     1      -2.384  -5.032   4.294  0.00  0.00    -0.265 N 
ATOM      7  C   UNL     1      -3.154  -5.947   5.179  0.00  0.00    +0.182 C 
ATOM      8  S   UNL     1      -1.907  -6.141   6.524  0.00  0.00    -0.058 S 
ATOM      9  H   UNL     1      -2.697  -4.079   4.400  0.00  0.00    +0.168 HD
ENDROOT
BRANCH   7  10
ATOM     10  C   UNL     1      -3.443  -7.283   4.492  0.00  0.00    +0.185 C 
ATOM     11  C   UNL     1      -4.378  -8.129   5.337  0.00  0.00    +0.034 C 
ATOM     12  C   UNL     1      -5.463  -8.290   4.556  0.00  0.00    +0.091 C 
ATOM     13  N   UNL     1      -5.291  -7.653   3.368  0.00  0.00    -0.154 NA
ATOM     14  N   UNL     1      -4.204  -7.075   3.249  0.00  0.00    -0.177 NA
BRANCH  12  15
ATOM     15  C   UNL     1      -6.676  -9.055   4.938  0.00  0.00    +0.002 A 
ATOM     16  C   UNL     1      -6.752  -9.668   6.187  0.00  0.00    +0.010 A 
ATOM     17  C   UNL     1      -7.882 -10.378   6.537  0.00  0.00    +0.001 A 
ATOM     18  C   UNL     1      -8.939 -10.482   5.651  0.00  0.00    +0.000 A 
ATOM     19  C   UNL     1      -8.869  -9.876   4.409  0.00  0.00    +0.001 A 
ATOM     20  C   UNL     1      -7.746  -9.159   4.051  0.00  0.00    +0.010 A 
ENDBRANCH  12  15
ENDBRANCH   7  10
BRANCH   1  21
ATOM     21  C   UNL     1       0.069  -4.202   2.274  0.00  0.00    +0.306 C 
BRANCH  21  22
ATOM     22  O   UNL     1       0.050  -2.776   2.358  0.00  0.00    -0.484 OA
BRANCH  22  28
ATOM     23  C   UNL     1      -0.018   1.503   0.010  0.00  0.00    +0.044 C 
ATOM     24  C   UNL     1       0.002  -0.004   0.002  0.00  0.00    -0.047 A 
ATOM     25  C   UNL     1       0.006  -0.688  -1.200  0.00  0.00    +0.003 A 
ATOM     26  C   UNL     1       0.024  -2.071  -1.211  0.00  0.00    +0.004 A 
ATOM     27  C   UNL     1       0.039  -2.772  -0.020  0.00  0.00    +0.045 A 
ATOM     28  C   UNL     1       0.035  -2.088   1.186  0.00  0.00    +0.121 A 
ATOM     29  C   UNL     1       0.023  -0.700   1.195  0.00  0.00    +0.049 A 
ENDBRANCH  22  28
ENDBRANCH  21  22
ENDBRANCH   1  21
TORSDOF 5
