REMARK  Name = ZINC65204903
REMARK  14 active torsions:
REMARK  status: ('A' for Active; 'I' for Inactive)
REMARK    1  A    between atoms: C_1  and  C_2
REMARK    2  A    between atoms: C_5  and  C_23
REMARK    3  A    between atoms: C_6  and  O_8
REMARK    4  A    between atoms: O_8  and  C_9
REMARK    5  A    between atoms: C_9  and  C_10
REMARK    6  A    between atoms: C_9  and  C_11
REMARK    7  A    between atoms: N_13  and  N_14
REMARK    8  A    between atoms: N_17  and  C_18
REMARK    9  A    between atoms: C_18  and  C_19
REMARK   10  A    between atoms: C_19  and  C_20
REMARK   11  A    between atoms: C_20  and  O_21
REMARK   12  A    between atoms: O_21  and  C_22
REMARK   13  A    between atoms: C_23  and  C_24
REMARK   14  A    between atoms: C_23  and  C_25
REMARK                            x       y       z     vdW  Elec       q    Type
REMARK                         _______ _______ _______ _____ _____    ______ ____
ROOT
ATOM      1  C   UNL     1       0.976  -2.768   4.570  0.00  0.00    +0.270 C 
ATOM      2  O   UNL     1       1.425  -3.860   4.290  0.00  0.00    -0.270 OA
ATOM      3  N   UNL     1       1.210  -2.235   5.786  0.00  0.00    -0.230 N 
ATOM      4  H   UNL     1       0.851  -1.363   6.010  0.00  0.00    +0.173 HD
ENDROOT
BRANCH   3   5
ATOM      5  N   UNL     1       1.972  -2.942   6.726  0.00  0.00    -0.218 N 
ATOM      6  C   UNL     1       2.206  -2.409   7.941  0.00  0.00    +0.316 C 
ATOM      7  O   UNL     1       2.867  -3.022   8.757  0.00  0.00    -0.251 OA
ATOM      8  N   UNL     1       1.707  -1.196   8.253  0.00  0.00    -0.298 N 
ATOM      9  H   UNL     1       2.331  -3.815   6.501  0.00  0.00    +0.174 HD
ATOM     10  H   UNL     1       1.179  -0.707   7.602  0.00  0.00    +0.150 HD
BRANCH   8  11
ATOM     11  C   UNL     1       1.962  -0.617   9.574  0.00  0.00    +0.108 C 
BRANCH  11  12
ATOM     12  C   UNL     1       1.289   0.754   9.668  0.00  0.00    +0.047 C 
BRANCH  12  13
ATOM     13  C   UNL     1       1.555   1.359  11.048  0.00  0.00    +0.161 C 
BRANCH  13  14
ATOM     14  O   UNL     1       0.926   2.639  11.136  0.00  0.00    -0.383 OA
ATOM     15  C   UNL     1       1.114   3.294  12.392  0.00  0.00    +0.193 C 
ENDBRANCH  13  14
ENDBRANCH  12  13
ENDBRANCH  11  12
ENDBRANCH   8  11
ENDBRANCH   3   5
BRANCH   1  16
ATOM     16  C   UNL     1       0.156  -2.008   3.559  0.00  0.00    +0.257 C 
ATOM     17  C   UNL     1      -1.242  -1.751   4.126  0.00  0.00    +0.062 C 
BRANCH  16  18
ATOM     18  O   UNL     1       0.050  -2.776   2.358  0.00  0.00    -0.480 OA
BRANCH  18  24
ATOM     19  C   UNL     1      -0.901   1.454   0.116  0.00  0.00    +0.044 C 
ATOM     20  C   UNL     1      -0.644  -0.030   0.074  0.00  0.00    -0.047 A 
ATOM     21  C   UNL     1      -0.641  -0.697  -1.137  0.00  0.00    +0.004 A 
ATOM     22  C   UNL     1      -0.405  -2.058  -1.179  0.00  0.00    +0.008 A 
ATOM     23  C   UNL     1      -0.174  -2.757  -0.010  0.00  0.00    -0.003 A 
ATOM     24  C   UNL     1      -0.177  -2.091   1.207  0.00  0.00    +0.125 A 
ATOM     25  C   UNL     1      -0.408  -0.723   1.246  0.00  0.00    +0.049 A 
BRANCH  23  26
ATOM     26  C   UNL     1       0.081  -4.241  -0.056  0.00  0.00    +0.016 C 
ATOM     27  C   UNL     1      -1.127  -4.947  -0.675  0.00  0.00    +0.012 C 
ATOM     28  C   UNL     1       1.324  -4.519  -0.904  0.00  0.00    +0.012 C 
ENDBRANCH  23  26
ENDBRANCH  18  24
ENDBRANCH  16  18
ENDBRANCH   1  16
TORSDOF 9
