REMARK  Name = ZINC03646523
REMARK  3 active torsions:
REMARK  status: ('A' for Active; 'I' for Inactive)
REMARK    1  A    between atoms: C_1  and  C_2
REMARK    2  A    between atoms: C_2  and  N_3
REMARK    3  A    between atoms: C_12  and  C_25
REMARK                            x       y       z     vdW  Elec       q    Type
REMARK                         _______ _______ _______ _____ _____    ______ ____
ROOT
ATOM      1  N   UNL     1      -1.117   8.584  -0.565  0.00  0.00    -0.282 N 
ATOM      2  C   UNL     1      -0.216   7.583  -0.274  0.00  0.00    +0.116 A 
ATOM      3  C   UNL     1       1.117   7.856  -0.300  0.00  0.00    +0.067 A 
ATOM      4  C   UNL     1       1.539   9.159  -0.633  0.00  0.00    +0.260 A 
ATOM      5  O   UNL     1       2.727   9.427  -0.667  0.00  0.00    -0.267 OA
ATOM      6  N   UNL     1       0.625  10.107  -0.914  0.00  0.00    -0.275 N 
ATOM      7  H   UNL     1       0.924  11.031  -1.151  0.00  0.00    +0.173 HD
ATOM      8  C   UNL     1      -0.689   9.819  -0.878  0.00  0.00    +0.331 A 
ATOM      9  O   UNL     1      -1.501  10.688  -1.133  0.00  0.00    -0.246 OA
ATOM     10  C   UNL     1       2.163   6.817   0.015  0.00  0.00    +0.093 C 
ATOM     11  C   UNL     1       1.529   5.450   0.013  0.00  0.00    +0.034 C 
ATOM     12  C   UNL     1       0.170   5.266   0.025  0.00  0.00    +0.048 C 
ATOM     13  N   UNL     1      -0.704   6.331   0.033  0.00  0.00    -0.299 N 
ATOM     14  C   UNL     1      -0.118   3.828   0.022  0.00  0.00    +0.007 A 
ATOM     15  C   UNL     1      -1.311   3.123   0.030  0.00  0.00    +0.010 A 
ATOM     16  C   UNL     1      -1.223   1.728   0.017  0.00  0.00    +0.001 A 
ATOM     17  C   UNL     1      -0.013   1.076   0.008  0.00  0.00    +0.001 A 
ATOM     18  C   UNL     1       1.200   1.773   0.000  0.00  0.00    +0.012 A 
ATOM     19  C   UNL     1       1.128   3.152   0.007  0.00  0.00    +0.031 A 
ATOM     20  C   UNL     1       2.177   4.195   0.003  0.00  0.00    +0.193 C 
ATOM     21  O   UNL     1       3.379   4.007  -0.008  0.00  0.00    -0.287 OA
ATOM     22  H   UNL     1      -1.640   6.203   0.251  0.00  0.00    +0.154 HD
ENDROOT
BRANCH  10  23
ATOM     23  C   UNL     1       2.754   7.095   1.373  0.00  0.00    -0.034 A 
ATOM     24  C   UNL     1       4.109   7.343   1.499  0.00  0.00    +0.004 A 
ATOM     25  C   UNL     1       4.652   7.598   2.744  0.00  0.00    +0.002 A 
ATOM     26  C   UNL     1       3.841   7.606   3.864  0.00  0.00    +0.020 A 
ATOM     27  C   UNL     1       2.486   7.358   3.738  0.00  0.00    +0.041 A 
ATOM     28  C   UNL     1       1.942   7.108   2.491  0.00  0.00    +0.024 A 
ATOM     29 CL   UNL     1       1.467   7.368   5.144  0.00  0.00    -0.084 Cl
ENDBRANCH  10  23
BRANCH   1  31
ATOM     30  C   UNL     1      -3.094   8.569   0.874  0.00  0.00    +0.027 C 
ATOM     31  C   UNL     1      -2.553   8.300  -0.531  0.00  0.00    +0.125 C 
ENDBRANCH   1  31
TORSDOF 2
