REMARK  Name = ZINC31118717
REMARK  12 active torsions:
REMARK  status: ('A' for Active; 'I' for Inactive)
REMARK    1  A    between atoms: C_6  and  N_7
REMARK    2  A    between atoms: C_8  and  N_31
REMARK    3  A    between atoms: C_9  and  C_29
REMARK    4  A    between atoms: C_10  and  C_12
REMARK    5  A    between atoms: C_12  and  C_13
REMARK    6  A    between atoms: C_13  and  C_14
REMARK    7  A    between atoms: C_14  and  N_15
REMARK    8  A    between atoms: C_16  and  C_18
REMARK    9  A    between atoms: C_18  and  C_19
REMARK   10  A    between atoms: C_19  and  C_20
REMARK   11  A    between atoms: C_20  and  N_21
REMARK   12  A    between atoms: C_22  and  C_24
REMARK                            x       y       z     vdW  Elec       q    Type
REMARK                         _______ _______ _______ _____ _____    ______ ____
ROOT
ATOM      1  C   UNL     1       3.701  10.464   0.023  0.00  0.00    +0.060 C 
ENDROOT
BRANCH   1   5
ATOM      2  N   UNL     1       6.809  12.309   0.659  0.00  0.00    -0.217 N 
ATOM      3  C   UNL     1       6.833  12.338  -0.693  0.00  0.00    +0.138 A 
ATOM      4  C   UNL     1       5.697  11.665  -1.136  0.00  0.00    +0.114 A 
ATOM      5  C   UNL     1       4.996  11.235   0.015  0.00  0.00    +0.083 A 
ATOM      6  N   UNL     1       5.660  11.625   1.067  0.00  0.00    -0.168 NA
BRANCH   2  12
ATOM      7  C   UNL     1       9.111  12.867   1.141  0.00  0.00    +0.030 A 
ATOM      8  C   UNL     1      10.058  13.427   1.976  0.00  0.00    +0.040 A 
ATOM      9  C   UNL     1       9.673  13.986   3.183  0.00  0.00    +0.124 A 
ATOM     10  C   UNL     1       8.339  13.990   3.553  0.00  0.00    +0.040 A 
ATOM     11  C   UNL     1       7.389  13.435   2.718  0.00  0.00    +0.030 A 
ATOM     12  C   UNL     1       7.772  12.874   1.507  0.00  0.00    +0.068 A 
ATOM     13  F   UNL     1      10.601  14.530   4.001  0.00  0.00    -0.205 F 
ENDBRANCH   2  12
BRANCH   3  14
ATOM     14  N   UNL     1       7.801  12.924  -1.485  0.00  0.00    -0.342 N 
ATOM     15  H   UNL     1       7.714  12.884  -2.581  0.00  0.00    +0.144 HD
ATOM     16  H   UNL     1       8.659  13.432  -1.020  0.00  0.00    +0.144 HD
ENDBRANCH   3  14
BRANCH   4  17
ATOM     17  C   UNL     1       5.312  11.450  -2.498  0.00  0.00    +0.104 C 
ATOM     18  N   UNL     1       5.006  11.279  -3.579  0.00  0.00    -0.191 NA
ENDBRANCH   4  17
ENDBRANCH   1   5
BRANCH   1  19
ATOM     19  C   UNL     1       4.001   8.963   0.012  0.00  0.00    +0.025 C 
BRANCH  19  20
ATOM     20  C   UNL     1       2.687   8.180   0.020  0.00  0.00    +0.104 C 
BRANCH  20  21
ATOM     21  N   UNL     1       2.974   6.744   0.010  0.00  0.00    -0.315 N 
ATOM     22  C   UNL     1       1.962   5.854   0.015  0.00  0.00    +0.213 C 
ATOM     23  O   UNL     1       0.813   6.243   0.028  0.00  0.00    -0.276 OA
ATOM     24  H   UNL     1       4.016   6.391  -0.002  0.00  0.00    +0.149 HD
BRANCH  22  25
ATOM     25  C   UNL     1       2.257   4.377   0.004  0.00  0.00    +0.097 C 
BRANCH  25  26
ATOM     26  C   UNL     1       0.943   3.594   0.012  0.00  0.00    +0.028 C 
BRANCH  26  27
ATOM     27  C   UNL     1       1.242   2.093   0.001  0.00  0.00    +0.105 C 
BRANCH  27  28
ATOM     28  N   UNL     1      -0.016   1.344   0.009  0.00  0.00    -0.311 N 
ATOM     29  C   UNL     1       0.002  -0.004   0.002  0.00  0.00    +0.245 C 
ATOM     30  O   UNL     1       1.064  -0.598  -0.011  0.00  0.00    -0.270 OA
ATOM     31  H   UNL     1      -0.976   1.881   0.021  0.00  0.00    +0.149 HD
BRANCH  29  32
ATOM     32  C   UNL     1      -1.262  -0.757   0.010  0.00  0.00    +0.044 A 
ATOM     33  C   UNL     1      -1.280  -2.199  -0.003  0.00  0.00    +0.020 A 
ATOM     34  C   UNL     1      -2.487  -2.797   0.010  0.00  0.00    +0.046 A 
ATOM     35  S   UNL     1      -3.619  -1.422   0.028  0.00  0.00    -0.104 S 
ATOM     36  C   UNL     1      -2.483  -0.115   0.025  0.00  0.00    +0.058 A 
ENDBRANCH  29  32
ENDBRANCH  27  28
ENDBRANCH  26  27
ENDBRANCH  25  26
ENDBRANCH  22  25
ENDBRANCH  20  21
ENDBRANCH  19  20
ENDBRANCH   1  19
TORSDOF 12
