REMARK  Name = ZINC45575459
REMARK  6 active torsions:
REMARK  status: ('A' for Active; 'I' for Inactive)
REMARK    1  A    between atoms: C_1  and  O_2
REMARK    2  A    between atoms: O_2  and  C_3
REMARK    3  A    between atoms: C_6  and  C_10
REMARK    4  A    between atoms: C_10  and  C_11
REMARK    5  A    between atoms: C_11  and  C_12
REMARK    6  A    between atoms: N_14  and  N_15
REMARK                            x       y       z     vdW  Elec       q    Type
REMARK                         _______ _______ _______ _____ _____    ______ ____
ROOT
ATOM      1  C   UNL     1       2.273  -3.486   6.586  0.00  0.00    +0.230 C 
ATOM      2  O   UNL     1       3.457  -3.740   6.518  0.00  0.00    -0.274 OA
ATOM      3  N   UNL     1       1.576  -3.812   7.692  0.00  0.00    -0.224 N 
ATOM      4  H   UNL     1       0.629  -3.610   7.747  0.00  0.00    +0.174 HD
ENDROOT
BRANCH   3   5
ATOM      5  N   UNL     1       2.220  -4.444   8.764  0.00  0.00    -0.137 N 
ATOM      6  C   UNL     1       2.093  -5.755   9.059  0.00  0.00    +0.263 C 
ATOM      7  O   UNL     1       1.426  -6.578   8.470  0.00  0.00    -0.271 OA
ATOM      8  C   UNL     1       2.958  -5.980  10.278  0.00  0.00    +0.114 C 
ATOM      9  C   UNL     1       4.064  -6.982   9.968  0.00  0.00    +0.035 C 
ATOM     10  C   UNL     1       4.946  -7.172  11.205  0.00  0.00    +0.003 C 
ATOM     11  C   UNL     1       4.089  -7.677  12.367  0.00  0.00    +0.000 C 
ATOM     12  C   UNL     1       2.998  -6.651  12.682  0.00  0.00    +0.003 C 
ATOM     13  C   UNL     1       2.109  -6.458  11.451  0.00  0.00    +0.035 C 
ATOM     14  N   UNL     1       3.527  -4.656  10.561  0.00  0.00    -0.284 N 
ATOM     15  C   UNL     1       3.042  -3.824   9.620  0.00  0.00    +0.326 C 
ATOM     16  O   UNL     1       3.317  -2.642   9.556  0.00  0.00    -0.251 OA
ATOM     17  H   UNL     1       4.135  -4.427  11.282  0.00  0.00    +0.151 HD
ENDBRANCH   3   5
BRANCH   1  18
ATOM     18  C   UNL     1       1.580  -2.806   5.433  0.00  0.00    +0.102 C 
BRANCH  18  19
ATOM     19  C   UNL     1       2.590  -2.549   4.312  0.00  0.00    +0.044 C 
BRANCH  19  23
ATOM     20  C   UNL     1       0.626  -0.619   1.042  0.00  0.00    +0.155 A 
ATOM     21  C   UNL     1       1.202   0.138   2.051  0.00  0.00    +0.049 A 
ATOM     22  C   UNL     1       1.836  -0.489   3.107  0.00  0.00    +0.007 A 
ATOM     23  C   UNL     1       1.897  -1.869   3.159  0.00  0.00    -0.044 A 
ATOM     24  C   UNL     1       1.324  -2.627   2.154  0.00  0.00    +0.045 A 
ATOM     25  C   UNL     1       0.683  -2.005   1.098  0.00  0.00    +0.165 A 
ATOM     26  F   UNL     1       0.117  -2.746   0.120  0.00  0.00    -0.202 F 
BRANCH  20  28
ATOM     27  C   UNL     1      -0.017   1.425   0.010  0.00  0.00    +0.277 C 
ATOM     28  O   UNL     1       0.002  -0.004   0.002  0.00  0.00    -0.492 OA
ENDBRANCH  20  28
ENDBRANCH  19  23
ENDBRANCH  18  19
ENDBRANCH   1  18
TORSDOF 5
