REMARK  Name = ZINC12503141
REMARK  11 active torsions:
REMARK  status: ('A' for Active; 'I' for Inactive)
REMARK    1  A    between atoms: C_1  and  C_2
REMARK    2  A    between atoms: C_6  and  O_8
REMARK    3  A    between atoms: O_8  and  C_9
REMARK    4  A    between atoms: C_9  and  C_10
REMARK    5  A    between atoms: N_12  and  C_13
REMARK    6  A    between atoms: C_13  and  N_15
REMARK    7  A    between atoms: N_15  and  N_16
REMARK    8  A    between atoms: C_17  and  C_19
REMARK    9  A    between atoms: C_19  and  O_20
REMARK   10  A    between atoms: O_20  and  C_21
REMARK   11  A    between atoms: C_24  and  C_28
REMARK                            x       y       z     vdW  Elec       q    Type
REMARK                         _______ _______ _______ _____ _____    ______ ____
ROOT
ATOM      1  N   UNL     1      -5.245  -4.166   0.004  0.00  0.00    -0.245 N 
ATOM      2  H   UNL     1      -6.136  -4.547   0.006  0.00  0.00    +0.172 HD
ENDROOT
BRANCH   1   3
ATOM      3  N   UNL     1      -4.123  -5.005  -0.006  0.00  0.00    -0.232 N 
ATOM      4  C   UNL     1      -4.284  -6.344  -0.012  0.00  0.00    +0.267 C 
ATOM      5  O   UNL     1      -5.399  -6.821  -0.009  0.00  0.00    -0.271 OA
ATOM      6  H   UNL     1      -3.232  -4.624  -0.008  0.00  0.00    +0.173 HD
BRANCH   4   7
ATOM      7  C   UNL     1      -3.078  -7.247  -0.023  0.00  0.00    +0.326 C 
BRANCH   7   8
ATOM      8  O   UNL     1      -3.504  -8.611  -0.028  0.00  0.00    -0.482 OA
BRANCH   8   9
ATOM      9  C   UNL     1      -2.533  -9.561  -0.038  0.00  0.00    +0.135 A 
ATOM     10  C   UNL     1      -1.196  -9.189  -0.042  0.00  0.00    +0.047 A 
ATOM     11  C   UNL     1      -0.210 -10.156  -0.052  0.00  0.00    +0.007 A 
ATOM     12  C   UNL     1      -0.554 -11.496  -0.056  0.00  0.00    -0.049 A 
ATOM     13  C   UNL     1      -1.885 -11.870  -0.052  0.00  0.00    +0.022 A 
ATOM     14  C   UNL     1      -2.875 -10.906  -0.038  0.00  0.00    +0.060 A 
ATOM     15 BR   UNL     1      -4.696 -11.419  -0.025  0.00  0.00    -0.047 Br
ATOM     16  C   UNL     1       0.524 -12.549  -0.066  0.00  0.00    +0.044 C 
ENDBRANCH   8   9
ENDBRANCH   7   8
ENDBRANCH   4   7
ENDBRANCH   1   3
BRANCH   1  17
ATOM     17  C   UNL     1      -5.084  -2.827   0.011  0.00  0.00    +0.153 C 
ATOM     18  S   UNL     1      -6.455  -1.801   0.023  0.00  0.00    -0.017 S 
BRANCH  17  21
ATOM     19  C   UNL     1      -3.685  -0.959   0.014  0.00  0.00    +0.256 C 
ATOM     20  O   UNL     1      -4.655  -0.232   0.023  0.00  0.00    -0.272 OA
ATOM     21  N   UNL     1      -3.845  -2.297   0.008  0.00  0.00    -0.264 N 
ATOM     22  H   UNL     1      -3.069  -2.879   0.001  0.00  0.00    +0.157 HD
BRANCH  19  23
ATOM     23  C   UNL     1      -2.299  -0.366   0.011  0.00  0.00    +0.324 C 
BRANCH  23  24
ATOM     24  O   UNL     1      -2.391   1.060   0.019  0.00  0.00    -0.483 OA
BRANCH  24  30
ATOM     25  C   UNL     1      -0.065   5.351   0.029  0.00  0.00    +0.044 C 
ATOM     26  C   UNL     1      -0.049   3.844   0.022  0.00  0.00    -0.047 A 
ATOM     27  C   UNL     1       1.156   3.166   0.007  0.00  0.00    +0.003 A 
ATOM     28  C   UNL     1       1.174   1.783   0.000  0.00  0.00    +0.004 A 
ATOM     29  C   UNL     1      -0.013   1.076   0.008  0.00  0.00    +0.045 A 
ATOM     30  C   UNL     1      -1.223   1.754   0.017  0.00  0.00    +0.121 A 
ATOM     31  C   UNL     1      -1.238   3.141   0.029  0.00  0.00    +0.049 A 
ENDBRANCH  24  30
ENDBRANCH  23  24
ENDBRANCH  19  23
ENDBRANCH  17  21
ENDBRANCH   1  17
TORSDOF 9
