REMARK  Name = ZINC06509016
REMARK  4 active torsions:
REMARK  status: ('A' for Active; 'I' for Inactive)
REMARK    1  A    between atoms: C_1  and  O_2
REMARK    2  A    between atoms: O_2  and  C_3
REMARK    3  A    between atoms: C_6  and  C_9
REMARK    4  A    between atoms: C_9  and  C_22
REMARK                            x       y       z     vdW  Elec       q    Type
REMARK                         _______ _______ _______ _____ _____    ______ ____
ROOT
ATOM      1  C   UNL     1      -2.553   3.867   0.048  0.00  0.00    +0.165 C 
ATOM      2  C   UNL     1      -3.588   3.047  -0.719  0.00  0.00    +0.093 C 
ATOM      3  C   UNL     1      -2.975   2.507  -2.047  0.00  0.00    +0.014 C 
ATOM      4  C   UNL     1      -2.627   3.654  -2.993  0.00  0.00    +0.002 C 
ATOM      5  C   UNL     1      -3.879   4.476  -3.315  0.00  0.00    +0.020 C 
ATOM      6  C   UNL     1      -4.375   5.115  -2.001  0.00  0.00    +0.141 C 
ATOM      7  C   UNL     1      -4.747   3.966  -1.071  0.00  0.00    +0.151 C 
ATOM      8  O   UNL     1      -5.866   3.800  -0.650  0.00  0.00    -0.296 OA
ATOM      9  C   UNL     1      -3.180   5.804  -1.378  0.00  0.00    +0.224 C 
ATOM     10  O   UNL     1      -2.957   6.961  -1.666  0.00  0.00    -0.275 OA
ATOM     11  N   UNL     1      -2.365   5.187  -0.527  0.00  0.00    -0.297 N 
ATOM     12  H   UNL     1      -1.564   5.667  -0.264  0.00  0.00    +0.150 HD
ENDROOT
BRANCH   1  16
ATOM     13  C   UNL     1       1.179   1.786  -0.001  0.00  0.00    +0.120 A 
ATOM     14  C   UNL     1       1.103   3.088  -0.473  0.00  0.00    +0.046 A 
ATOM     15  C   UNL     1      -0.103   3.761  -0.450  0.00  0.00    +0.009 A 
ATOM     16  C   UNL     1      -1.237   3.133   0.031  0.00  0.00    -0.015 A 
ATOM     17  C   UNL     1      -1.164   1.835   0.503  0.00  0.00    +0.009 A 
ATOM     18  C   UNL     1       0.041   1.161   0.488  0.00  0.00    +0.046 A 
BRANCH  13  20
ATOM     19  C   UNL     1       2.369  -0.213   0.486  0.00  0.00    +0.277 C 
ATOM     20  O   UNL     1       2.366   1.125  -0.016  0.00  0.00    -0.495 OA
ENDBRANCH  13  20
ENDBRANCH   1  16
BRANCH   1  21
ATOM     21  C   UNL     1      -3.018   4.019   1.498  0.00  0.00    +0.415 C 
ATOM     22  F   UNL     1      -2.064   4.743   2.220  0.00  0.00    -0.168 F 
ATOM     23  F   UNL     1      -4.241   4.699   1.527  0.00  0.00    -0.168 F 
ATOM     24  F   UNL     1      -3.176   2.752   2.072  0.00  0.00    -0.168 F 
ENDBRANCH   1  21
TORSDOF 3
