REMARK  Name = ZINC40473523
REMARK  6 active torsions:
REMARK  status: ('A' for Active; 'I' for Inactive)
REMARK    1  A    between atoms: C_1  and  C_2
REMARK    2  A    between atoms: C_2  and  C_3
REMARK    3  A    between atoms: C_2  and  C_4
REMARK    4  A    between atoms: C_4  and  C_6
REMARK    5  A    between atoms: C_4  and  N_22
REMARK    6  A    between atoms: C_10  and  C_19
REMARK                            x       y       z     vdW  Elec       q    Type
REMARK                         _______ _______ _______ _____ _____    ______ ____
ROOT
ATOM      1  C   UNL     1      -1.321  -2.176   0.090  0.00  0.00    +0.206 C 
ATOM      2  O   UNL     1      -1.364  -0.967   0.180  0.00  0.00    -0.277 OA
ATOM      3  N   UNL     1      -1.034  -2.923   1.174  0.00  0.00    -0.265 N 
ATOM      4  C   UNL     1      -1.090  -4.394   1.122  0.00  0.00    +0.170 C 
ATOM      5  C   UNL     1      -1.754  -4.879   2.419  0.00  0.00    +0.303 C 
ATOM      6  O   UNL     1      -0.990  -4.406   3.531  0.00  0.00    -0.474 OA
ATOM      7  C   UNL     1      -0.659  -3.089   3.559  0.00  0.00    +0.143 A 
ATOM      8  C   UNL     1      -0.665  -2.326   2.392  0.00  0.00    +0.078 A 
ATOM      9  C   UNL     1      -0.316  -0.987   2.431  0.00  0.00    +0.027 A 
ATOM     10  C   UNL     1       0.044  -0.403   3.632  0.00  0.00    +0.002 A 
ATOM     11  C   UNL     1       0.054  -1.156   4.792  0.00  0.00    +0.004 A 
ATOM     12  C   UNL     1      -0.304  -2.495   4.761  0.00  0.00    +0.047 A 
ENDROOT
BRANCH   5  13
ATOM     13  C   UNL     1      -1.794  -6.385   2.434  0.00  0.00    +0.397 C 
ATOM     14  O   UNL     1      -1.156  -7.004   3.268  0.00  0.00    -0.242 OA
ATOM     15  O   UNL     1      -2.464  -6.985   1.611  0.00  0.00    -0.242 OA
ENDBRANCH   5  13
BRANCH   1  16
ATOM     16  C   UNL     1      -1.588  -2.842  -1.236  0.00  0.00    +0.016 C 
BRANCH  16  17
ATOM     17  N   UNL     1      -1.027  -2.022  -2.318  0.00  0.00    +0.386 N 
ATOM     18  H   UNL     1      -0.032  -1.925  -2.185  0.00  0.00    -0.089 HD
ATOM     19  H   UNL     1      -1.206  -2.468  -3.205  0.00  0.00    -0.089 HD
ATOM     20  H   UNL     1      -1.458  -1.110  -2.307  0.00  0.00    -0.089 HD
ENDBRANCH  16  17
BRANCH  16  22
ATOM     21  C   UNL     1      -3.367  -3.768  -2.726  0.00  0.00    +0.006 C 
ATOM     22  C   UNL     1      -3.098  -2.988  -1.437  0.00  0.00    -0.023 C 
ATOM     23  C   UNL     1      -3.700  -3.742  -0.250  0.00  0.00    +0.006 C 
ENDBRANCH  16  22
ENDBRANCH   1  16
TORSDOF 4
