REMARK  Name = ZINC40816149
REMARK  8 active torsions:
REMARK  status: ('A' for Active; 'I' for Inactive)
REMARK    1  A    between atoms: C_1  and  C_2
REMARK    2  A    between atoms: C_5  and  N_8
REMARK    3  A    between atoms: C_9  and  C_11
REMARK    4  A    between atoms: C_12  and  C_32
REMARK    5  A    between atoms: N_20  and  N_21
REMARK    6  A    between atoms: C_22  and  C_24
REMARK    7  A    between atoms: C_24  and  O_25
REMARK    8  A    between atoms: O_25  and  C_26
REMARK                            x       y       z     vdW  Elec       q    Type
REMARK                         _______ _______ _______ _____ _____    ______ ____
ROOT
ATOM      1  C   UNL     1       0.304  -6.309   1.122  0.00  0.00    +0.193 A 
ATOM      2  C   UNL     1       0.423  -7.112   2.222  0.00  0.00    +0.009 A 
ATOM      3  C   UNL     1       0.519  -8.423   1.741  0.00  0.00    +0.042 A 
ATOM      4  C   UNL     1       0.457  -8.365   0.368  0.00  0.00    +0.115 A 
ATOM      5  O   UNL     1       0.320  -7.088   0.017  0.00  0.00    -0.454 OA
ATOM      6  C   UNL     1       0.533  -9.588  -0.509  0.00  0.00    +0.075 C 
ATOM      7  C   UNL     1       1.184 -10.734   0.271  0.00  0.00    +0.014 C 
ATOM      8  C   UNL     1       0.468 -10.952   1.608  0.00  0.00    +0.058 C 
ATOM      9  C   UNL     1       0.662  -9.708   2.462  0.00  0.00    +0.070 C 
ATOM     10  N   UNL     1       0.932  -9.768   3.729  0.00  0.00    -0.184 NA
ATOM     11  C   UNL     1       0.447  -6.673   3.663  0.00  0.00    +0.048 C 
ENDROOT
BRANCH   1  13
ATOM     12  N   UNL     1       0.058  -4.169  -0.021  0.00  0.00    -0.279 N 
ATOM     13  C   UNL     1       0.174  -4.848   1.138  0.00  0.00    +0.284 C 
ATOM     14  O   UNL     1       0.172  -4.248   2.197  0.00  0.00    -0.266 OA
ATOM     15  H   UNL     1      -0.017  -4.650  -0.860  0.00  0.00    +0.155 HD
BRANCH  12  20
ATOM     16  C   UNL     1       0.005   1.503   0.009  0.00  0.00    +0.044 C 
ATOM     17  C   UNL     1       0.020  -0.004   0.001  0.00  0.00    -0.050 A 
ATOM     18  C   UNL     1      -0.724  -0.696  -0.937  0.00  0.00    +0.005 A 
ATOM     19  C   UNL     1      -0.714  -2.077  -0.948  0.00  0.00    +0.023 A 
ATOM     20  C   UNL     1       0.045  -2.771  -0.014  0.00  0.00    +0.034 A 
ATOM     21  C   UNL     1       0.791  -2.073   0.927  0.00  0.00    +0.023 A 
ATOM     22  C   UNL     1       0.781  -0.692   0.928  0.00  0.00    +0.005 A 
ENDBRANCH  12  20
ENDBRANCH   1  13
BRANCH  10  23
ATOM     23  N   UNL     1       1.056 -11.013   4.360  0.00  0.00    -0.204 N 
ATOM     24  C   UNL     1       1.337 -11.075   5.677  0.00  0.00    +0.270 C 
ATOM     25  O   UNL     1       1.482 -10.054   6.316  0.00  0.00    -0.270 OA
ATOM     26  H   UNL     1       0.939 -11.829   3.850  0.00  0.00    +0.177 HD
BRANCH  24  27
ATOM     27  C   UNL     1       1.469 -12.414   6.356  0.00  0.00    +0.326 C 
BRANCH  27  28
ATOM     28  O   UNL     1       1.767 -12.219   7.740  0.00  0.00    -0.483 OA
BRANCH  28  29
ATOM     29  C   UNL     1       1.919 -13.334   8.502  0.00  0.00    +0.121 A 
ATOM     30  C   UNL     1       1.791 -14.591   7.928  0.00  0.00    +0.045 A 
ATOM     31  C   UNL     1       1.947 -15.723   8.704  0.00  0.00    +0.004 A 
ATOM     32  C   UNL     1       2.231 -15.604  10.052  0.00  0.00    +0.000 A 
ATOM     33  C   UNL     1       2.358 -14.353  10.627  0.00  0.00    +0.004 A 
ATOM     34  C   UNL     1       2.210 -13.218   9.853  0.00  0.00    +0.045 A 
ENDBRANCH  28  29
ENDBRANCH  27  28
ENDBRANCH  24  27
ENDBRANCH  10  23
TORSDOF 6
