REMARK  Name = ZINC21241433
REMARK  10 active torsions:
REMARK  status: ('A' for Active; 'I' for Inactive)
REMARK    1  A    between atoms: C_1  and  O_2
REMARK    2  A    between atoms: O_2  and  C_3
REMARK    3  A    between atoms: C_6  and  C_11
REMARK    4  A    between atoms: C_7  and  O_9
REMARK    5  A    between atoms: O_9  and  C_10
REMARK    6  A    between atoms: C_16  and  C_21
REMARK    7  A    between atoms: C_24  and  O_29
REMARK    8  A    between atoms: C_25  and  O_27
REMARK    9  A    between atoms: O_27  and  C_28
REMARK   10  A    between atoms: O_29  and  C_30
REMARK                            x       y       z     vdW  Elec       q    Type
REMARK                         _______ _______ _______ _____ _____    ______ ____
ROOT
ATOM      1  C   UNL     1       3.843   1.804   0.662  0.00  0.00    +0.139 C 
ATOM      2  C   UNL     1       2.432   1.275   0.733  0.00  0.00    +0.037 C 
ATOM      3  C   UNL     1       1.347   1.842   0.177  0.00  0.00    +0.017 C 
ATOM      4  C   UNL     1      -0.023   1.205   0.333  0.00  0.00    +0.059 C 
ATOM      5  C   UNL     1       0.113  -0.314   0.421  0.00  0.00    +0.032 C 
ATOM      6  C   UNL     1       0.995  -0.633   1.634  0.00  0.00    +0.088 C 
ATOM      7  C   UNL     1       2.308   0.071   1.466  0.00  0.00    +0.163 C 
ATOM      8  O   UNL     1       3.301  -0.410   1.977  0.00  0.00    -0.292 OA
ATOM      9  N   UNL     1       1.360   2.998  -0.535  0.00  0.00    -0.316 N 
ATOM     10  C   UNL     1       2.273   3.306  -1.537  0.00  0.00    +0.052 A 
ATOM     11  C   UNL     1       1.886   3.527  -2.847  0.00  0.00    +0.025 A 
ATOM     12  C   UNL     1       2.829   3.945  -3.771  0.00  0.00    +0.002 A 
ATOM     13  C   UNL     1       4.144   4.136  -3.388  0.00  0.00    +0.002 A 
ATOM     14  C   UNL     1       4.537   3.892  -2.084  0.00  0.00    +0.025 A 
ATOM     15  C   UNL     1       3.599   3.458  -1.161  0.00  0.00    +0.049 A 
ATOM     16  N   UNL     1       3.955   3.155   0.153  0.00  0.00    -0.331 N 
ATOM     17  H   UNL     1       0.608   3.775  -0.335  0.00  0.00    +0.152 HD
ATOM     18  H   UNL     1       4.324   3.959   0.805  0.00  0.00    +0.147 HD
ENDROOT
BRANCH   1  22
ATOM     19  C   UNL     1       6.136  -0.786  -1.854  0.00  0.00    +0.124 A 
ATOM     20  C   UNL     1       4.749  -0.819  -1.897  0.00  0.00    +0.046 A 
ATOM     21  C   UNL     1       4.011   0.015  -1.079  0.00  0.00    +0.013 A 
ATOM     22  C   UNL     1       4.651   0.892  -0.225  0.00  0.00    +0.019 A 
ATOM     23  C   UNL     1       6.037   0.928  -0.177  0.00  0.00    +0.129 A 
ATOM     24  C   UNL     1       6.780   0.089  -0.993  0.00  0.00    +0.091 A 
BRANCH  19  26
ATOM     25  C   UNL     1       6.130  -2.486  -3.516  0.00  0.00    +0.277 C 
ATOM     26  O   UNL     1       6.861  -1.611  -2.654  0.00  0.00    -0.495 OA
ENDBRANCH  19  26
BRANCH  23  27
ATOM     27  O   UNL     1       6.667   1.787   0.667  0.00  0.00    -0.495 OA
ATOM     28  C   UNL     1       8.096   1.771   0.663  0.00  0.00    +0.277 C 
ENDBRANCH  23  27
ENDBRANCH   1  22
BRANCH   5  29
ATOM     29  C   UNL     1      -1.247  -0.939   0.598  0.00  0.00    -0.040 A 
ATOM     30  C   UNL     1      -2.019  -0.612   1.698  0.00  0.00    +0.008 A 
ATOM     31  C   UNL     1      -3.267  -1.182   1.864  0.00  0.00    +0.049 A 
ATOM     32  C   UNL     1      -3.747  -2.083   0.928  0.00  0.00    +0.161 A 
ATOM     33  C   UNL     1      -2.971  -2.412  -0.179  0.00  0.00    +0.162 A 
ATOM     34  C   UNL     1      -1.723  -1.833  -0.343  0.00  0.00    +0.053 A 
BRANCH  33  35
ATOM     35  O   UNL     1      -3.438  -3.296  -1.101  0.00  0.00    -0.491 OA
ATOM     36  C   UNL     1      -2.586  -3.586  -2.211  0.00  0.00    +0.277 C 
ENDBRANCH  33  35
BRANCH  32  37
ATOM     37  O   UNL     1      -4.976  -2.645   1.089  0.00  0.00    -0.491 OA
ATOM     38  C   UNL     1      -5.717  -2.260   2.249  0.00  0.00    +0.277 C 
ENDBRANCH  32  37
ENDBRANCH   5  29
TORSDOF 6
