REMARK  Name = ZINC16026187
REMARK  6 active torsions:
REMARK  status: ('A' for Active; 'I' for Inactive)
REMARK    1  A    between atoms: C_1  and  C_2
REMARK    2  A    between atoms: C_7  and  C_8
REMARK    3  A    between atoms: C_17  and  C_20
REMARK    4  A    between atoms: C_20  and  C_21
REMARK    5  A    between atoms: N_26  and  C_29
REMARK    6  A    between atoms: C_29  and  C_30
REMARK                            x       y       z     vdW  Elec       q    Type
REMARK                         _______ _______ _______ _____ _____    ______ ____
ROOT
ATOM      1  C   UNL     1      -0.018   1.503   0.010  0.00  0.00    +0.044 C 
ATOM      2  C   UNL     1       0.002  -0.004   0.002  0.00  0.00    -0.046 A 
ATOM      3  C   UNL     1       0.006  -0.686  -1.201  0.00  0.00    +0.004 A 
ATOM      4  C   UNL     1       0.023  -2.069  -1.209  0.00  0.00    +0.008 A 
ATOM      5  C   UNL     1       0.038  -2.765  -0.021  0.00  0.00    +0.004 A 
ATOM      6  C   UNL     1       0.035  -2.090   1.196  0.00  0.00    +0.042 A 
ATOM      7  C   UNL     1       0.023  -0.697   1.195  0.00  0.00    -0.026 A 
ATOM      8  C   UNL     1       0.026   0.056   2.500  0.00  0.00    +0.046 C 
ATOM      9  N   UNL     1       0.053  -3.001   2.254  0.00  0.00    -0.283 N 
ATOM     10  C   UNL     1       0.066  -4.278   1.825  0.00  0.00    +0.243 C 
ATOM     11  O   UNL     1       0.082  -5.274   2.516  0.00  0.00    -0.273 OA
ATOM     12  C   UNL     1       0.057  -4.228   0.321  0.00  0.00    +0.136 C 
ATOM     13  C   UNL     1       1.285  -4.929  -0.270  0.00  0.00    +0.122 C 
ATOM     14  C   UNL     1       0.777  -6.343  -0.666  0.00  0.00    +0.107 C 
ATOM     15  C   UNL     1      -0.715  -6.353  -0.267  0.00  0.00    +0.076 C 
ATOM     16  N   UNL     1      -1.116  -4.928  -0.234  0.00  0.00    -0.295 NA
ATOM     17  C   UNL     1       1.556  -7.262   0.248  0.00  0.00    +0.227 C 
ATOM     18  O   UNL     1       1.465  -8.470   0.268  0.00  0.00    -0.275 OA
ATOM     19  N   UNL     1       2.360  -6.533   1.030  0.00  0.00    -0.237 N 
ATOM     20  C   UNL     1       2.295  -5.199   0.822  0.00  0.00    +0.229 C 
ATOM     21  O   UNL     1       2.934  -4.352   1.409  0.00  0.00    -0.275 OA
ATOM     22  H   UNL     1       0.055  -2.744   3.189  0.00  0.00    +0.155 HD
ATOM     23  H   UNL     1      -1.929  -4.790   0.348  0.00  0.00    +0.124 HD
ENDROOT
BRANCH  15  24
ATOM     24  C   UNL     1      -1.536  -7.133  -1.296  0.00  0.00    +0.115 C 
BRANCH  24  25
ATOM     25  C   UNL     1      -2.964  -7.235  -0.825  0.00  0.00    +0.212 C 
ATOM     26  O   UNL     1      -3.292  -6.733   0.229  0.00  0.00    -0.276 OA
ATOM     27  N   UNL     1      -3.876  -7.883  -1.576  0.00  0.00    -0.329 N 
ATOM     28  H   UNL     1      -3.613  -8.284  -2.420  0.00  0.00    +0.145 HD
ATOM     29  H   UNL     1      -4.795  -7.949  -1.273  0.00  0.00    +0.145 HD
ENDBRANCH  24  25
ENDBRANCH  15  24
BRANCH  19  30
ATOM     30  C   UNL     1       3.247  -7.132   2.031  0.00  0.00    +0.151 C 
BRANCH  30  31
ATOM     31  C   UNL     1       4.583  -7.433   1.402  0.00  0.00    -0.030 A 
ATOM     32  C   UNL     1       4.804  -8.659   0.802  0.00  0.00    +0.005 A 
ATOM     33  C   UNL     1       6.030  -8.934   0.225  0.00  0.00    +0.000 A 
ATOM     34  C   UNL     1       7.034  -7.985   0.248  0.00  0.00    +0.000 A 
ATOM     35  C   UNL     1       6.813  -6.759   0.847  0.00  0.00    +0.000 A 
ATOM     36  C   UNL     1       5.586  -6.481   1.420  0.00  0.00    +0.005 A 
ENDBRANCH  30  31
ENDBRANCH  19  30
TORSDOF 4
