REMARK  Name = ZINC15084801
REMARK  5 active torsions:
REMARK  status: ('A' for Active; 'I' for Inactive)
REMARK    1  A    between atoms: C_1  and  C_2
REMARK    2  A    between atoms: C_21  and  C_23
REMARK    3  A    between atoms: C_26  and  O_29
REMARK    4  A    between atoms: O_29  and  C_30
REMARK    5  A    between atoms: C_30  and  C_31
REMARK                            x       y       z     vdW  Elec       q    Type
REMARK                         _______ _______ _______ _____ _____    ______ ____
ROOT
ATOM      1  C   UNL     1      -0.018   1.503   0.010  0.00  0.00    +0.068 C 
ATOM      2  C   UNL     1       0.002  -0.004   0.002  0.00  0.00    +0.066 A 
ATOM      3  C   UNL     1       0.008  -0.810  -1.128  0.00  0.00    +0.023 A 
ATOM      4  C   UNL     1       0.033  -2.116  -0.715  0.00  0.00    +0.136 A 
ATOM      5  N   UNL     1       0.033  -2.117   0.636  0.00  0.00    -0.185 N 
ATOM      6  N   UNL     1       0.023  -0.778   1.062  0.00  0.00    -0.167 NA
ATOM      7  C   UNL     1       0.046  -3.238   1.456  0.00  0.00    +0.232 A 
ATOM      8  N   UNL     1       0.040  -3.212   2.820  0.00  0.00    -0.322 N 
ATOM      9  H   UNL     1       0.027  -2.420   3.380  0.00  0.00    +0.169 HD
ATOM     10  C   UNL     1       0.056  -4.524   3.256  0.00  0.00    +0.068 A 
ATOM     11  C   UNL     1       0.060  -5.123   4.508  0.00  0.00    +0.028 A 
ATOM     12  C   UNL     1       0.078  -6.498   4.611  0.00  0.00    +0.002 A 
ATOM     13  C   UNL     1       0.093  -7.288   3.470  0.00  0.00    +0.002 A 
ATOM     14  C   UNL     1       0.090  -6.712   2.221  0.00  0.00    +0.030 A 
ATOM     15  C   UNL     1       0.071  -5.320   2.099  0.00  0.00    +0.091 A 
ATOM     16  N   UNL     1       0.059  -4.476   1.035  0.00  0.00    -0.211 NA
ATOM     17  N   UNL     1       0.064  -3.175  -1.621  0.00  0.00    -0.270 N 
ATOM     18  C   UNL     1       0.274  -2.891  -2.924  0.00  0.00    +0.219 C 
ATOM     19  O   UNL     1       0.119  -3.767  -3.748  0.00  0.00    -0.275 OA
ATOM     20  C   UNL     1       0.695  -1.524  -3.384  0.00  0.00    +0.109 C 
ATOM     21  C   UNL     1      -0.014  -0.425  -2.585  0.00  0.00    +0.063 C 
ATOM     22  H   UNL     1      -0.061  -4.089  -1.323  0.00  0.00    +0.156 HD
ENDROOT
BRANCH  21  23
ATOM     23  C   UNL     1       0.706   0.885  -2.775  0.00  0.00    -0.039 A 
ATOM     24  C   UNL     1       2.039   0.997  -2.427  0.00  0.00    +0.008 A 
ATOM     25  C   UNL     1       2.701   2.197  -2.600  0.00  0.00    +0.046 A 
ATOM     26  C   UNL     1       2.027   3.291  -3.123  0.00  0.00    +0.121 A 
ATOM     27  C   UNL     1       0.689   3.176  -3.471  0.00  0.00    +0.046 A 
ATOM     28  C   UNL     1       0.033   1.972  -3.302  0.00  0.00    +0.008 A 
BRANCH  26  29
ATOM     29  O   UNL     1       2.675   4.473  -3.293  0.00  0.00    -0.487 OA
BRANCH  29  30
ATOM     30  C   UNL     1       1.918   5.556  -3.837  0.00  0.00    +0.266 C 
BRANCH  30  31
ATOM     31  C   UNL     1       2.797   6.775  -3.952  0.00  0.00    +0.008 A 
ATOM     32  C   UNL     1       4.121   6.712  -3.560  0.00  0.00    +0.008 A 
ATOM     33  C   UNL     1       4.927   7.830  -3.666  0.00  0.00    +0.000 A 
ATOM     34  C   UNL     1       4.409   9.011  -4.164  0.00  0.00    +0.001 A 
ATOM     35  C   UNL     1       3.086   9.075  -4.557  0.00  0.00    +0.020 A 
ATOM     36  C   UNL     1       2.280   7.955  -4.456  0.00  0.00    +0.047 A 
ATOM     37 CL   UNL     1       0.619   8.032  -4.955  0.00  0.00    -0.083 Cl
ENDBRANCH  30  31
ENDBRANCH  29  30
ENDBRANCH  26  29
ENDBRANCH  21  23
TORSDOF 4
