REMARK  Name = ZINC16843639
REMARK  6 active torsions:
REMARK  status: ('A' for Active; 'I' for Inactive)
REMARK    1  A    between atoms: C_1  and  C_2
REMARK    2  A    between atoms: C_5  and  N_9
REMARK    3  A    between atoms: C_10  and  C_12
REMARK    4  A    between atoms: C_12  and  N_13
REMARK    5  A    between atoms: C_21  and  S_23
REMARK    6  A    between atoms: S_23  and  C_24
REMARK                            x       y       z     vdW  Elec       q    Type
REMARK                         _______ _______ _______ _____ _____    ______ ____
ROOT
ATOM      1  N   UNL     1       3.502  -2.406   0.266  0.00  0.00    -0.202 N 
ATOM      2  C   UNL     1       3.403  -3.265  -0.770  0.00  0.00    +0.368 A 
ATOM      3  O   UNL     1       3.499  -2.979  -1.952  0.00  0.00    -0.243 OA
ATOM      4  N   UNL     1       3.182  -4.496  -0.267  0.00  0.00    -0.160 N 
ATOM      5  C   UNL     1       3.134  -4.398   1.110  0.00  0.00    +0.179 A 
ATOM      6  N   UNL     1       3.325  -3.143   1.445  0.00  0.00    -0.147 NA
ATOM      7  C   UNL     1       2.904  -5.567   1.880  0.00  0.00    +0.053 A 
ATOM      8  C   UNL     1       2.737  -6.752   1.247  0.00  0.00    +0.040 A 
ATOM      9  C   UNL     1       2.793  -6.816  -0.165  0.00  0.00    +0.118 A 
ATOM     10  N   UNL     1       3.005  -5.742  -0.881  0.00  0.00    -0.154 NA
ENDROOT
BRANCH   1  11
ATOM     11  C   UNL     1       3.744  -0.964   0.175  0.00  0.00    +0.245 C 
BRANCH  11  13
ATOM     12  N   UNL     1       2.403   1.106  -0.015  0.00  0.00    -0.283 N 
ATOM     13  C   UNL     1       2.427  -0.238   0.078  0.00  0.00    +0.239 C 
ATOM     14  O   UNL     1       1.388  -0.864   0.085  0.00  0.00    -0.273 OA
ATOM     15  H   UNL     1       3.233   1.602  -0.086  0.00  0.00    +0.155 HD
BRANCH  12  20
ATOM     16  C   UNL     1      -2.556   3.864   0.002  0.00  0.00    +0.044 C 
ATOM     17  C   UNL     1      -1.239   3.132  -0.002  0.00  0.00    -0.049 A 
ATOM     18  C   UNL     1      -1.141   1.892  -0.607  0.00  0.00    +0.005 A 
ATOM     19  C   UNL     1       0.064   1.216  -0.608  0.00  0.00    +0.025 A 
ATOM     20  C   UNL     1       1.179   1.786  -0.011  0.00  0.00    +0.052 A 
ATOM     21  C   UNL     1       1.079   3.034   0.592  0.00  0.00    +0.062 A 
ATOM     22  C   UNL     1      -0.130   3.703   0.594  0.00  0.00    +0.025 A 
ATOM     23 CL   UNL     1       2.471   3.753   1.340  0.00  0.00    -0.082 Cl
ENDBRANCH  12  20
ENDBRANCH  11  13
ENDBRANCH   1  11
BRANCH   9  24
ATOM     24  S   UNL     1       2.574  -8.367  -0.972  0.00  0.00    -0.101 S 
BRANCH  24  25
ATOM     25  C   UNL     1       2.723  -7.969  -2.735  0.00  0.00    +0.053 C 
ATOM     26  C   UNL     1       1.567  -7.058  -3.152  0.00  0.00    +0.014 C 
ATOM     27  C   UNL     1       1.693  -6.722  -4.639  0.00  0.00    +0.001 C 
ATOM     28  C   UNL     1       1.645  -8.013  -5.459  0.00  0.00    +0.000 C 
ATOM     29  C   UNL     1       2.801  -8.925  -5.043  0.00  0.00    +0.001 C 
ATOM     30  C   UNL     1       2.676  -9.260  -3.555  0.00  0.00    +0.014 C 
ENDBRANCH  24  25
ENDBRANCH   9  24
TORSDOF 5
