REMARK  Name = ZINC49514682
REMARK  8 active torsions:
REMARK  status: ('A' for Active; 'I' for Inactive)
REMARK    1  A    between atoms: C_1  and  C_2
REMARK    2  A    between atoms: C_2  and  C_4
REMARK    3  A    between atoms: C_2  and  N_11
REMARK    4  A    between atoms: N_11  and  C_12
REMARK    5  A    between atoms: C_12  and  C_14
REMARK    6  A    between atoms: C_12  and  C_15
REMARK    7  A    between atoms: C_17  and  O_22
REMARK    8  A    between atoms: C_20  and  O_21
REMARK                            x       y       z     vdW  Elec       q    Type
REMARK                         _______ _______ _______ _____ _____    ______ ____
ROOT
ATOM      1  N   UNL     1      -1.423  -0.405  -0.032  0.00  0.00    +0.388 N 
ATOM      2  H   UNL     1      -1.915  -0.054  -0.841  0.00  0.00    -0.084 HD
ATOM      3  H   UNL     1      -1.434  -1.414  -0.043  0.00  0.00    -0.084 HD
ENDROOT
BRANCH   1   5
ATOM      4  C   UNL     1       0.611  -0.317  -1.393  0.00  0.00    -0.009 C 
ATOM      5  C   UNL     1      -0.033   0.070  -0.061  0.00  0.00    -0.043 C 
BRANCH   5   6
ATOM      6  C   UNL     1       0.737  -0.560   1.071  0.00  0.00    -0.062 A 
ATOM      7  C   UNL     1       0.531  -1.889   1.391  0.00  0.00    +0.003 A 
ATOM      8  C   UNL     1       1.237  -2.468   2.428  0.00  0.00    +0.015 A 
ATOM      9  C   UNL     1       2.150  -1.717   3.147  0.00  0.00    +0.018 A 
ATOM     10  C   UNL     1       2.355  -0.387   2.827  0.00  0.00    +0.015 A 
ATOM     11  C   UNL     1       1.653   0.189   1.786  0.00  0.00    +0.003 A 
ATOM     12 BR   UNL     1       3.115  -2.508   4.567  0.00  0.00    -0.050 Br
ENDBRANCH   5   6
ENDBRANCH   1   5
BRANCH   1  13
ATOM     13  C   UNL     1      -2.081   0.079   1.189  0.00  0.00    -0.040 C 
ATOM     14  C   UNL     1      -2.204   1.603   1.133  0.00  0.00    -0.009 C 
BRANCH  13  15
ATOM     15  C   UNL     1      -3.454  -0.532   1.295  0.00  0.00    -0.017 A 
ATOM     16  C   UNL     1      -4.066  -1.056   0.173  0.00  0.00    +0.051 A 
ATOM     17  C   UNL     1      -5.330  -1.619   0.271  0.00  0.00    +0.117 A 
ATOM     18  C   UNL     1      -5.979  -1.656   1.496  0.00  0.00    +0.049 A 
ATOM     19  C   UNL     1      -5.368  -1.132   2.618  0.00  0.00    +0.049 A 
ATOM     20  C   UNL     1      -4.102  -0.574   2.521  0.00  0.00    +0.119 A 
BRANCH  20  21
ATOM     21  O   UNL     1      -3.497  -0.063   3.627  0.00  0.00    -0.507 OA
ATOM     22  H   UNL     1      -3.686   0.873   3.781  0.00  0.00    +0.292 HD
ENDBRANCH  20  21
BRANCH  17  23
ATOM     23  O   UNL     1      -5.932  -2.135  -0.834  0.00  0.00    -0.507 OA
ATOM     24  H   UNL     1      -5.742  -3.071  -0.985  0.00  0.00    +0.292 HD
ENDBRANCH  17  23
ENDBRANCH  13  15
ENDBRANCH   1  13
TORSDOF 6
