REMARK  Name = ZINC38556466
REMARK  6 active torsions:
REMARK  status: ('A' for Active; 'I' for Inactive)
REMARK    1  A    between atoms: C_6  and  C_7
REMARK    2  A    between atoms: C_7  and  C_9
REMARK    3  A    between atoms: C_9  and  S_10
REMARK    4  A    between atoms: S_10  and  C_11
REMARK    5  A    between atoms: C_14  and  C_18
REMARK    6  A    between atoms: N_16  and  N_17
REMARK                            x       y       z     vdW  Elec       q    Type
REMARK                         _______ _______ _______ _____ _____    ______ ____
ROOT
ATOM      1  C   UNL     1      -2.738  -4.651   0.004  0.00  0.00    +0.189 C 
ATOM      2  N   UNL     1      -1.596  -5.250  -0.005  0.00  0.00    -0.161 NA
ATOM      3  N   UNL     1      -1.746  -6.642  -0.012  0.00  0.00    -0.243 N 
ATOM      4  C   UNL     1      -3.197  -6.897  -0.006  0.00  0.00    +0.222 C 
ATOM      5  N   UNL     1      -3.793  -5.551   0.010  0.00  0.00    -0.223 N 
ATOM      6  H   UNL     1      -1.038  -7.304  -0.019  0.00  0.00    +0.170 HD
ENDROOT
BRANCH   4   7
ATOM      7  C   UNL     1      -3.600  -7.676   1.248  0.00  0.00    +0.197 C 
ATOM      8  C   UNL     1      -2.863  -8.998   1.319  0.00  0.00    -0.017 C 
ATOM      9  C   UNL     1      -2.144  -8.926   2.437  0.00  0.00    +0.065 C 
ATOM     10  C   UNL     1      -1.349 -10.207   2.622  0.00  0.00    +0.057 C 
ATOM     11  C   UNL     1      -2.018 -11.234   1.682  0.00  0.00    +0.011 C 
ATOM     12  C   UNL     1      -2.654 -10.314   0.615  0.00  0.00    +0.035 C 
ATOM     13  N   UNL     1      -2.357  -7.729   3.048  0.00  0.00    -0.158 NA
ATOM     14  N   UNL     1      -3.146  -6.979   2.463  0.00  0.00    -0.176 NA
ENDBRANCH   4   7
BRANCH   5  15
ATOM     15  N   UNL     1      -5.125  -5.248   0.025  0.00  0.00    -0.250 NA
ATOM     16  H   UNL     1      -5.269  -4.250   0.031  0.00  0.00    +0.141 HD
ATOM     17  H   UNL     1      -5.602  -5.677  -0.754  0.00  0.00    +0.141 HD
ENDBRANCH   5  15
BRANCH   1  18
ATOM     18  S   UNL     1      -2.935  -2.900   0.016  0.00  0.00    -0.080 S 
BRANCH  18  19
ATOM     19  C   UNL     1      -1.235  -2.267   0.002  0.00  0.00    +0.156 C 
BRANCH  19  20
ATOM     20  C   UNL     1      -1.260  -0.760   0.011  0.00  0.00    +0.173 C 
ATOM     21  O   UNL     1      -2.320  -0.171   0.024  0.00  0.00    -0.291 OA
BRANCH  20  27
ATOM     22  C   UNL     1      -0.017   1.395   0.010  0.00  0.00    +0.012 A 
ATOM     23  C   UNL     1       1.169   2.097   0.002  0.00  0.00    +0.016 A 
ATOM     24  C   UNL     1       2.378   1.420  -0.013  0.00  0.00    +0.018 A 
ATOM     25  C   UNL     1       2.405   0.035  -0.021  0.00  0.00    +0.016 A 
ATOM     26  C   UNL     1       1.227  -0.680  -0.014  0.00  0.00    +0.012 A 
ATOM     27  C   UNL     1       0.002  -0.004   0.002  0.00  0.00    +0.018 A 
ATOM     28 BR   UNL     1       4.000   2.393  -0.025  0.00  0.00    -0.050 Br
ENDBRANCH  20  27
ENDBRANCH  19  20
ENDBRANCH  18  19
ENDBRANCH   1  18
TORSDOF 6
