REMARK  Name = ZINC61672531
REMARK  4 active torsions:
REMARK  status: ('A' for Active; 'I' for Inactive)
REMARK    1  A    between atoms: C_1  and  N_2
REMARK    2  A    between atoms: C_3  and  N_21
REMARK    3  A    between atoms: C_4  and  C_13
REMARK    4  A    between atoms: C_5  and  C_7
REMARK                            x       y       z     vdW  Elec       q    Type
REMARK                         _______ _______ _______ _____ _____    ______ ____
ROOT
ATOM      1  C   UNL     1      -0.018   1.461   0.010  0.00  0.00    +0.174 C 
ATOM      2  N   UNL     1       0.002  -0.004   0.002  0.00  0.00    -0.253 N 
ATOM      3  C   UNL     1       0.008  -0.790  -1.098  0.00  0.00    +0.122 A 
ATOM      4  C   UNL     1       0.028  -2.104  -0.663  0.00  0.00    +0.046 A 
ATOM      5  C   UNL     1       0.035  -2.078   0.745  0.00  0.00    +0.076 A 
ATOM      6  N   UNL     1       0.025  -0.830   1.132  0.00  0.00    -0.174 NA
ENDROOT
BRANCH   4   7
ATOM      7  C   UNL     1       0.041  -3.314  -1.520  0.00  0.00    +0.006 A 
ATOM      8  C   UNL     1       1.252  -3.871  -1.926  0.00  0.00    +0.011 A 
ATOM      9  C   UNL     1       1.259  -4.997  -2.724  0.00  0.00    +0.021 A 
ATOM     10  C   UNL     1       0.064  -5.574  -3.122  0.00  0.00    +0.042 A 
ATOM     11  C   UNL     1      -1.142  -5.025  -2.723  0.00  0.00    +0.040 A 
ATOM     12  C   UNL     1      -1.159  -3.901  -1.919  0.00  0.00    +0.050 A 
ATOM     13 CL   UNL     1      -2.673  -3.218  -1.413  0.00  0.00    -0.083 Cl
ATOM     14 CL   UNL     1       0.080  -6.990  -4.125  0.00  0.00    -0.083 Cl
ENDBRANCH   4   7
BRANCH   5  15
ATOM     15  C   UNL     1       0.056  -3.282   1.650  0.00  0.00    +0.044 C 
ATOM     16  C   UNL     1      -1.184  -3.270   2.549  0.00  0.00    +0.038 C 
ATOM     17  C   UNL     1      -1.114  -4.453   3.518  0.00  0.00    +0.160 C 
ATOM     18  O   UNL     1       0.090  -4.370   4.283  0.00  0.00    -0.380 OA
ATOM     19  C   UNL     1       1.284  -4.425   3.499  0.00  0.00    +0.160 C 
ATOM     20  C   UNL     1       1.310  -3.241   2.529  0.00  0.00    +0.038 C 
ENDBRANCH   5  15
BRANCH   3  21
ATOM     21  N   UNL     1      -0.005  -0.359  -2.418  0.00  0.00    -0.343 N 
ATOM     22  H   UNL     1      -0.019   0.590  -2.619  0.00  0.00    +0.144 HD
ATOM     23  H   UNL     1       0.001  -1.008  -3.140  0.00  0.00    +0.144 HD
ENDBRANCH   3  21
TORSDOF 3
