REMARK  Name = ZINC39675291
REMARK  15 active torsions:
REMARK  status: ('A' for Active; 'I' for Inactive)
REMARK    1  A    between atoms: C_1  and  C_2
REMARK    2  A    between atoms: C_2  and  C_4
REMARK    3  A    between atoms: C_2  and  N_14
REMARK    4  A    between atoms: C_4  and  C_5
REMARK    5  A    between atoms: C_5  and  C_6
REMARK    6  A    between atoms: C_9  and  O_12
REMARK    7  A    between atoms: O_12  and  C_13
REMARK    8  A    between atoms: C_15  and  C_17
REMARK    9  A    between atoms: C_28  and  C_30
REMARK   10  A    between atoms: C_32  and  O_40
REMARK   11  A    between atoms: C_33  and  O_38
REMARK   12  A    between atoms: C_34  and  O_36
REMARK   13  A    between atoms: O_36  and  C_37
REMARK   14  A    between atoms: O_38  and  C_39
REMARK   15  A    between atoms: O_40  and  C_41
REMARK                            x       y       z     vdW  Elec       q    Type
REMARK                         _______ _______ _______ _____ _____    ______ ____
ROOT
ATOM      1  C   UNL     1       2.799  -0.479   2.246  0.00  0.00    +0.100 C 
ATOM      2  C   UNL     1       2.653   0.270   3.589  0.00  0.00    +0.121 C 
ATOM      3  N   UNL     1       3.984   0.152   4.230  0.00  0.00    -0.296 N 
ATOM      4  C   UNL     1       4.946   0.315   3.114  0.00  0.00    +0.115 C 
ATOM      5  C   UNL     1       4.305  -0.446   1.937  0.00  0.00    -0.004 C 
ATOM      6  C   UNL     1       4.560   0.295   0.628  0.00  0.00    -0.010 C 
ATOM      7  C   UNL     1       6.058   0.263   0.313  0.00  0.00    -0.082 C 
ATOM      8  N   UNL     1       6.508  -1.130   0.205  0.00  0.00    +0.379 N 
ATOM      9  C   UNL     1       6.346  -1.810   1.496  0.00  0.00    -0.082 C 
ATOM     10  C   UNL     1       4.860  -1.866   1.861  0.00  0.00    -0.010 C 
ATOM     11  C   UNL     1       4.258  -0.057   5.533  0.00  0.00    +0.247 C 
ATOM     12  O   UNL     1       3.355  -0.281   6.316  0.00  0.00    -0.270 OA
ATOM     13  H   UNL     1       5.960  -1.606  -0.496  0.00  0.00    -0.086 HD
ATOM     14  H   UNL     1       7.481  -1.148  -0.063  0.00  0.00    -0.086 HD
ENDROOT
BRANCH  11  15
ATOM     15  C   UNL     1       5.654  -0.012   6.010  0.00  0.00    +0.044 A 
ATOM     16  C   UNL     1       6.624   0.669   5.272  0.00  0.00    +0.062 A 
ATOM     17  C   UNL     1       7.931   0.710   5.721  0.00  0.00    +0.166 A 
ATOM     18  C   UNL     1       8.280   0.071   6.908  0.00  0.00    +0.204 A 
ATOM     19  C   UNL     1       7.315  -0.609   7.645  0.00  0.00    +0.166 A 
ATOM     20  C   UNL     1       6.006  -0.647   7.204  0.00  0.00    +0.062 A 
BRANCH  19  21
ATOM     21  O   UNL     1       7.660  -1.232   8.804  0.00  0.00    -0.491 OA
ATOM     22  C   UNL     1       6.619  -1.911   9.510  0.00  0.00    +0.277 C 
ENDBRANCH  19  21
BRANCH  18  23
ATOM     23  O   UNL     1       9.566   0.112   7.347  0.00  0.00    -0.488 OA
ATOM     24  C   UNL     1       9.924   1.197   8.205  0.00  0.00    +0.277 C 
ENDBRANCH  18  23
BRANCH  17  25
ATOM     25  O   UNL     1       8.876   1.373   5.003  0.00  0.00    -0.491 OA
ATOM     26  C   UNL     1       8.448   2.005   3.795  0.00  0.00    +0.277 C 
ENDBRANCH  17  25
ENDBRANCH  11  15
BRANCH   1  28
ATOM     27  N   UNL     1       1.519  -0.470   0.129  0.00  0.00    -0.312 N 
ATOM     28  C   UNL     1       2.026   0.230   1.163  0.00  0.00    +0.218 C 
ATOM     29  O   UNL     1       1.860   1.430   1.223  0.00  0.00    -0.275 OA
ATOM     30  H   UNL     1       1.652  -1.429   0.081  0.00  0.00    +0.149 HD
BRANCH  27  32
ATOM     31  C   UNL     1      -0.694   0.363  -0.495  0.00  0.00    +0.028 C 
ATOM     32  C   UNL     1       0.768   0.219  -0.923  0.00  0.00    +0.070 C 
BRANCH  32  33
ATOM     33  C   UNL     1       0.843  -0.593  -2.218  0.00  0.00    +0.026 C 
BRANCH  33  34
ATOM     34  C   UNL     1       2.290  -0.631  -2.713  0.00  0.00    +0.037 C 
BRANCH  34  35
ATOM     35  C   UNL     1       2.364  -1.431  -3.989  0.00  0.00    -0.047 A 
ATOM     36  C   UNL     1       2.583  -2.795  -3.936  0.00  0.00    +0.007 A 
ATOM     37  C   UNL     1       2.651  -3.530  -5.104  0.00  0.00    +0.046 A 
ATOM     38  C   UNL     1       2.499  -2.898  -6.330  0.00  0.00    +0.120 A 
ATOM     39  C   UNL     1       2.279  -1.529  -6.379  0.00  0.00    +0.046 A 
ATOM     40  C   UNL     1       2.206  -0.799  -5.209  0.00  0.00    +0.007 A 
BRANCH  38  41
ATOM     41  O   UNL     1       2.567  -3.619  -7.480  0.00  0.00    -0.495 OA
ATOM     42  C   UNL     1       2.401  -2.902  -8.705  0.00  0.00    +0.277 C 
ENDBRANCH  38  41
ENDBRANCH  34  35
ENDBRANCH  33  34
ENDBRANCH  32  33
ENDBRANCH  27  32
ENDBRANCH   1  28
TORSDOF 10
