REMARK  Name = ZINC43761292
REMARK  10 active torsions:
REMARK  status: ('A' for Active; 'I' for Inactive)
REMARK    1  A    between atoms: C_1  and  C_2
REMARK    2  A    between atoms: C_2  and  C_3
REMARK    3  A    between atoms: C_3  and  C_4
REMARK    4  A    between atoms: C_3  and  C_16
REMARK    5  A    between atoms: N_6  and  N_7
REMARK    6  A    between atoms: C_8  and  C_9
REMARK    7  A    between atoms: C_12  and  O_15
REMARK    8  A    between atoms: N_18  and  N_19
REMARK    9  A    between atoms: C_20  and  C_21
REMARK   10  A    between atoms: C_24  and  O_27
REMARK                            x       y       z     vdW  Elec       q    Type
REMARK                         _______ _______ _______ _____ _____    ______ ____
ROOT
ATOM      1  C   UNL     1       0.653  -0.423   1.277  0.00  0.00    +0.164 C 
ENDROOT
BRANCH   1   2
ATOM      2  C   UNL     1      -0.178  -0.041   2.475  0.00  0.00    +0.244 C 
ATOM      3  O   UNL     1      -0.463  -0.877   3.307  0.00  0.00    -0.273 OA
ATOM      4  N   UNL     1      -0.604   1.229   2.622  0.00  0.00    -0.206 N 
ATOM      5  H   UNL     1      -0.291   1.919   2.016  0.00  0.00    +0.177 HD
BRANCH   4   6
ATOM      6  N   UNL     1      -1.499   1.552   3.650  0.00  0.00    -0.188 NA
ATOM      7  C   UNL     1      -1.910   2.775   3.792  0.00  0.00    +0.138 C 
BRANCH   7   8
ATOM      8  C   UNL     1      -2.852   3.116   4.874  0.00  0.00    -0.005 A 
ATOM      9  C   UNL     1      -3.300   2.124   5.751  0.00  0.00    +0.013 A 
ATOM     10  C   UNL     1      -4.180   2.447   6.761  0.00  0.00    +0.046 A 
ATOM     11  C   UNL     1      -4.622   3.756   6.907  0.00  0.00    +0.117 A 
ATOM     12  C   UNL     1      -4.180   4.745   6.037  0.00  0.00    +0.046 A 
ATOM     13  C   UNL     1      -3.296   4.432   5.028  0.00  0.00    +0.013 A 
BRANCH  11  14
ATOM     14  O   UNL     1      -5.490   4.070   7.904  0.00  0.00    -0.507 OA
ATOM     15  H   UNL     1      -5.061   4.330   8.731  0.00  0.00    +0.292 HD
ENDBRANCH  11  14
ENDBRANCH   7   8
ENDBRANCH   4   6
ENDBRANCH   1   2
BRANCH   1  16
ATOM     16  C   UNL     1       1.715  -1.408   1.695  0.00  0.00    +0.244 C 
ATOM     17  O   UNL     1       1.789  -1.765   2.852  0.00  0.00    -0.273 OA
ATOM     18  N   UNL     1       2.581  -1.892   0.784  0.00  0.00    -0.206 N 
ATOM     19  H   UNL     1       2.522  -1.607  -0.141  0.00  0.00    +0.177 HD
BRANCH  18  20
ATOM     20  N   UNL     1       3.568  -2.808   1.173  0.00  0.00    -0.188 NA
ATOM     21  C   UNL     1       4.402  -3.274   0.295  0.00  0.00    +0.138 C 
BRANCH  21  22
ATOM     22  C   UNL     1       5.441  -4.237   0.704  0.00  0.00    -0.005 A 
ATOM     23  C   UNL     1       5.525  -4.654   2.035  0.00  0.00    +0.013 A 
ATOM     24  C   UNL     1       6.496  -5.555   2.413  0.00  0.00    +0.046 A 
ATOM     25  C   UNL     1       7.392  -6.049   1.473  0.00  0.00    +0.117 A 
ATOM     26  C   UNL     1       7.313  -5.637   0.148  0.00  0.00    +0.046 A 
ATOM     27  C   UNL     1       6.340  -4.741  -0.239  0.00  0.00    +0.013 A 
BRANCH  25  28
ATOM     28  O   UNL     1       8.348  -6.937   1.849  0.00  0.00    -0.507 OA
ATOM     29  H   UNL     1       8.074  -7.862   1.784  0.00  0.00    +0.292 HD
ENDBRANCH  25  28
ENDBRANCH  21  22
ENDBRANCH  18  20
ENDBRANCH   1  16
BRANCH   1  31
ATOM     30  C   UNL     1      -0.782  -2.396   0.737  0.00  0.00    +0.005 C 
ATOM     31  C   UNL     1      -0.245  -1.061   0.216  0.00  0.00    +0.019 C 
ENDBRANCH   1  31
TORSDOF 9
