REMARK  Name = ZINC14488854
REMARK  9 active torsions:
REMARK  status: ('A' for Active; 'I' for Inactive)
REMARK    1  A    between atoms: C_1  and  C_2
REMARK    2  A    between atoms: C_11  and  O_13
REMARK    3  A    between atoms: O_13  and  C_14
REMARK    4  A    between atoms: C_16  and  N_29
REMARK    5  A    between atoms: C_18  and  O_28
REMARK    6  A    between atoms: C_20  and  O_27
REMARK    7  A    between atoms: C_22  and  C_25
REMARK    8  A    between atoms: C_25  and  O_26
REMARK    9  A    between atoms: C_30  and  C_32
REMARK                            x       y       z     vdW  Elec       q    Type
REMARK                         _______ _______ _______ _____ _____    ______ ____
ROOT
ATOM      1  C   UNL     1      -1.137   3.457   0.241  0.00  0.00    +0.331 C 
ATOM      2  C   UNL     1      -2.558   4.024   0.286  0.00  0.00    +0.173 C 
ATOM      3  C   UNL     1      -3.311   3.595  -0.977  0.00  0.00    +0.172 C 
ATOM      4  C   UNL     1      -2.534   4.071  -2.208  0.00  0.00    +0.176 C 
ATOM      5  C   UNL     1      -1.113   3.502  -2.157  0.00  0.00    +0.179 C 
ATOM      6  O   UNL     1      -0.480   3.913  -0.944  0.00  0.00    -0.332 OA
ENDROOT
BRANCH   2   7
ATOM      7  N   UNL     1      -2.500   5.486   0.348  0.00  0.00    -0.304 N 
ATOM      8  C   UNL     1      -3.489   6.175   0.951  0.00  0.00    +0.210 C 
ATOM      9  O   UNL     1      -4.427   5.584   1.442  0.00  0.00    -0.276 OA
ATOM     10  C   UNL     1      -3.429   7.679   1.015  0.00  0.00    +0.109 C 
ATOM     11  H   UNL     1      -1.749   5.959  -0.045  0.00  0.00    +0.149 HD
ENDBRANCH   2   7
BRANCH   4  12
ATOM     12  O   UNL     1      -2.476   5.499  -2.214  0.00  0.00    -0.387 OA
ATOM     13  H   UNL     1      -1.993   5.870  -2.965  0.00  0.00    +0.210 HD
ENDBRANCH   4  12
BRANCH   3  14
ATOM     14  O   UNL     1      -4.614   4.180  -0.979  0.00  0.00    -0.387 OA
ATOM     15  H   UNL     1      -5.145   3.955  -1.756  0.00  0.00    +0.210 HD
ENDBRANCH   3  14
BRANCH   1  16
ATOM     16  O   UNL     1      -1.193   2.029   0.234  0.00  0.00    -0.461 OA
BRANCH  16  27
ATOM     17  C   UNL     1       4.937   0.041   1.105  0.00  0.00    +0.045 C 
ATOM     18  C   UNL     1       3.636  -0.697   0.922  0.00  0.00    -0.033 A 
ATOM     19  C   UNL     1       3.598  -2.055   0.918  0.00  0.00    +0.096 A 
ATOM     20  C   UNL     1       2.368  -2.722   0.745  0.00  0.00    +0.337 A 
ATOM     21  O   UNL     1       2.349  -3.940   0.744  0.00  0.00    -0.245 OA
ATOM     22  O   UNL     1       1.218  -2.050   0.583  0.00  0.00    -0.422 OA
ATOM     23  C   UNL     1       1.185  -0.700   0.577  0.00  0.00    +0.143 A 
ATOM     24  C   UNL     1       2.377   0.030   0.744  0.00  0.00    +0.021 A 
ATOM     25  C   UNL     1       2.348   1.429   0.739  0.00  0.00    +0.015 A 
ATOM     26  C   UNL     1       1.161   2.082   0.571  0.00  0.00    +0.046 A 
ATOM     27  C   UNL     1      -0.022   1.365   0.405  0.00  0.00    +0.127 A 
ATOM     28  C   UNL     1      -0.011  -0.021   0.408  0.00  0.00    +0.092 A 
ENDBRANCH  16  27
ENDBRANCH   1  16
BRANCH   5  29
ATOM     29  C   UNL     1      -0.312   4.021  -3.352  0.00  0.00    +0.190 C 
BRANCH  29  30
ATOM     30  O   UNL     1       0.976   3.401  -3.368  0.00  0.00    -0.392 OA
ATOM     31  H   UNL     1       1.540   3.684  -4.101  0.00  0.00    +0.210 HD
ENDBRANCH  29  30
ENDBRANCH   5  29
TORSDOF 7
