REMARK  Name = ZINC09059011
REMARK  10 active torsions:
REMARK  status: ('A' for Active; 'I' for Inactive)
REMARK    1  A    between atoms: C_1  and  C_2
REMARK    2  A    between atoms: C_2  and  C_4
REMARK    3  A    between atoms: C_2  and  N_12
REMARK    4  A    between atoms: C_4  and  C_5
REMARK    5  A    between atoms: C_5  and  C_6
REMARK    6  A    between atoms: C_15  and  C_21
REMARK    7  A    between atoms: C_16  and  O_20
REMARK    8  A    between atoms: C_18  and  O_19
REMARK    9  A    between atoms: C_27  and  O_33
REMARK   10  A    between atoms: O_33  and  C_34
REMARK                            x       y       z     vdW  Elec       q    Type
REMARK                         _______ _______ _______ _____ _____    ______ ____
ROOT
ATOM      1  N   UNL     1      -3.604   3.735  -3.413  0.00  0.00    -0.260 N 
ATOM      2  C   UNL     1      -2.827   3.277  -2.409  0.00  0.00    +0.262 A 
ATOM      3  O   UNL     1      -3.318   2.668  -1.472  0.00  0.00    -0.267 OA
ATOM      4  C   UNL     1      -1.447   3.514  -2.461  0.00  0.00    +0.070 A 
ATOM      5  C   UNL     1      -0.934   4.214  -3.539  0.00  0.00    +0.224 A 
ATOM      6  N   UNL     1      -1.754   4.637  -4.507  0.00  0.00    -0.161 NA
ATOM      7  C   UNL     1      -3.047   4.411  -4.452  0.00  0.00    +0.302 A 
ENDROOT
BRANCH   4   8
ATOM      8  C   UNL     1      -0.541   3.022  -1.362  0.00  0.00    +0.018 C 
ATOM      9  C   UNL     1      -0.888   3.713  -0.065  0.00  0.00    +0.011 A 
ATOM     10  C   UNL     1      -0.975   3.061   1.117  0.00  0.00    -0.022 A 
ATOM     11  C   UNL     1      -1.326   4.041   2.122  0.00  0.00    +0.006 A 
ATOM     12  C   UNL     1      -1.550   3.950   3.499  0.00  0.00    +0.056 A 
ATOM     13  C   UNL     1      -1.875   5.126   4.158  0.00  0.00    +0.121 A 
ATOM     14  C   UNL     1      -1.974   6.339   3.487  0.00  0.00    +0.047 A 
ATOM     15  C   UNL     1      -1.757   6.447   2.125  0.00  0.00    +0.030 A 
ATOM     16  C   UNL     1      -1.429   5.280   1.439  0.00  0.00    +0.047 A 
ATOM     17  N   UNL     1      -1.158   5.042   0.119  0.00  0.00    -0.359 N 
ATOM     18  H   UNL     1      -1.156   5.714  -0.581  0.00  0.00    +0.166 HD
ATOM     19  C   UNL     1      -0.732   1.581   1.271  0.00  0.00    +0.018 C 
ATOM     20  C   UNL     1      -0.013   1.086   0.008  0.00  0.00    -0.076 C 
ATOM     21  N   UNL     1      -0.731   1.565  -1.191  0.00  0.00    +0.388 N 
ATOM     22  H   UNL     1      -0.369   1.077  -2.019  0.00  0.00    -0.084 HD
ATOM     23  H   UNL     1      -1.733   1.365  -1.086  0.00  0.00    -0.084 HD
BRANCH  13  24
ATOM     24  O   UNL     1      -2.104   5.092   5.498  0.00  0.00    -0.495 OA
ATOM     25  C   UNL     1      -2.435   6.329   6.132  0.00  0.00    +0.277 C 
ENDBRANCH  13  24
ENDBRANCH   4   8
BRANCH   1  27
ATOM     26  C   UNL     1      -5.460   2.693  -4.617  0.00  0.00    +0.031 C 
ATOM     27  C   UNL     1      -5.050   3.501  -3.384  0.00  0.00    +0.092 C 
BRANCH  27  28
ATOM     28  C   UNL     1      -5.784   4.843  -3.387  0.00  0.00    +0.030 C 
BRANCH  28  29
ATOM     29  C   UNL     1      -5.470   5.599  -2.094  0.00  0.00    +0.037 C 
BRANCH  29  30
ATOM     30  C   UNL     1      -6.193   6.921  -2.097  0.00  0.00    -0.047 A 
ATOM     31  C   UNL     1      -5.579   8.043  -2.622  0.00  0.00    +0.003 A 
ATOM     32  C   UNL     1      -6.245   9.255  -2.630  0.00  0.00    +0.000 A 
ATOM     33  C   UNL     1      -7.519   9.347  -2.101  0.00  0.00    +0.000 A 
ATOM     34  C   UNL     1      -8.130   8.226  -1.571  0.00  0.00    +0.000 A 
ATOM     35  C   UNL     1      -7.467   7.013  -1.569  0.00  0.00    +0.003 A 
ENDBRANCH  29  30
ENDBRANCH  28  29
ENDBRANCH  27  28
ENDBRANCH   1  27
BRANCH   7  36
ATOM     36  O   UNL     1      -3.839   4.861  -5.447  0.00  0.00    -0.479 OA
ATOM     37  H   UNL     1      -3.408   5.338  -6.169  0.00  0.00    +0.295 HD
ENDBRANCH   7  36
BRANCH   5  38
ATOM     38  O   UNL     1       0.394   4.464  -3.615  0.00  0.00    -0.492 OA
ATOM     39  H   UNL     1       0.656   4.959  -4.404  0.00  0.00    +0.294 HD
ENDBRANCH   5  38
TORSDOF 8
