REMARK  Name = ZINC37318425
REMARK  5 active torsions:
REMARK  status: ('A' for Active; 'I' for Inactive)
REMARK    1  A    between atoms: C_1  and  O_2
REMARK    2  A    between atoms: O_2  and  C_3
REMARK    3  A    between atoms: C_9  and  N_11
REMARK    4  A    between atoms: N_11  and  C_12
REMARK    5  A    between atoms: C_17  and  N_18
REMARK                            x       y       z     vdW  Elec       q    Type
REMARK                         _______ _______ _______ _____ _____    ______ ____
ROOT
ATOM      1  N   UNL     1       2.690  -1.847  -0.131  0.00  0.00    -0.337 N 
ATOM      2  H   UNL     1       3.138  -0.994  -0.241  0.00  0.00    +0.147 HD
ENDROOT
BRANCH   1   3
ATOM      3  C   UNL     1       2.771  -2.813  -1.138  0.00  0.00    +0.058 A 
ATOM      4  C   UNL     1       2.235  -4.078  -0.932  0.00  0.00    +0.026 A 
ATOM      5  C   UNL     1       2.316  -5.031  -1.929  0.00  0.00    +0.017 A 
ATOM      6  C   UNL     1       2.930  -4.726  -3.131  0.00  0.00    +0.020 A 
ATOM      7  C   UNL     1       3.465  -3.467  -3.338  0.00  0.00    +0.050 A 
ATOM      8  C   UNL     1       3.381  -2.508  -2.347  0.00  0.00    +0.148 A 
ATOM      9 BR   UNL     1       3.039  -6.033  -4.493  0.00  0.00    -0.050 Br
BRANCH   8  10
ATOM     10  N   UNL     1       3.947  -1.159  -2.572  0.00  0.00    +0.058 N 
ATOM     11  O   UNL     1       3.379  -0.185  -2.137  0.00  0.00    -0.126 OA
ATOM     12  O   UNL     1       4.979  -1.032  -3.190  0.00  0.00    -0.126 OA
ENDBRANCH   8  10
ENDBRANCH   1   3
BRANCH   1  18
ATOM     13  C   UNL     1       1.469  -0.805   1.714  0.00  0.00    +0.138 C 
ATOM     14  C   UNL     1       0.675  -1.093   2.990  0.00  0.00    +0.033 C 
ATOM     15  C   UNL     1       1.563  -1.845   3.984  0.00  0.00    +0.003 C 
ATOM     16  C   UNL     1       2.024  -3.163   3.360  0.00  0.00    +0.002 C 
ATOM     17  C   UNL     1       2.818  -2.875   2.085  0.00  0.00    +0.025 C 
ATOM     18  C   UNL     1       1.930  -2.124   1.090  0.00  0.00    +0.099 C 
BRANCH  13  20
ATOM     19  C   UNL     1       0.700   1.319   0.912  0.00  0.00    +0.194 C 
ATOM     20  O   UNL     1       0.640  -0.103   0.785  0.00  0.00    -0.378 OA
ENDBRANCH  13  20
ENDBRANCH   1  18
TORSDOF 4
