REMARK  Name = ZINC45116411
REMARK  5 active torsions:
REMARK  status: ('A' for Active; 'I' for Inactive)
REMARK    1  A    between atoms: C_7  and  N_12
REMARK    2  A    between atoms: N_15  and  N_16
REMARK    3  A    between atoms: C_17  and  C_19
REMARK    4  A    between atoms: C_19  and  O_20
REMARK    5  A    between atoms: O_20  and  C_21
REMARK                            x       y       z     vdW  Elec       q    Type
REMARK                         _______ _______ _______ _____ _____    ______ ____
ROOT
ATOM      1  N   UNL     1       0.165  -2.679   0.899  0.00  0.00    -0.291 N 
ATOM      2  C   UNL     1      -1.117  -2.785   0.497  0.00  0.00    +0.316 C 
ATOM      3  O   UNL     1      -1.426  -2.478  -0.638  0.00  0.00    -0.251 OA
ATOM      4  N   UNL     1      -2.057  -3.232   1.353  0.00  0.00    -0.218 N 
ATOM      5  H   UNL     1       0.411  -2.925   1.804  0.00  0.00    +0.151 HD
ATOM      6  H   UNL     1      -2.980  -3.308   1.064  0.00  0.00    +0.174 HD
ENDROOT
BRANCH   1  13
ATOM      7  C   UNL     1      -0.017   1.377   0.010  0.00  0.00    +0.001 A 
ATOM      8  C   UNL     1       1.172   2.084   0.002  0.00  0.00    +0.004 A 
ATOM      9  C   UNL     1       2.375   1.409  -0.011  0.00  0.00    +0.046 A 
ATOM     10  C   UNL     1       2.398   0.018  -0.018  0.00  0.00    +0.125 A 
ATOM     11  C   UNL     1       1.207  -0.687  -0.014  0.00  0.00    +0.015 A 
ATOM     12  C   UNL     1       0.002  -0.004   0.002  0.00  0.00    +0.009 A 
ATOM     13  C   UNL     1       1.187  -2.194  -0.033  0.00  0.00    +0.111 C 
ATOM     14  C   UNL     1       2.556  -2.734   0.389  0.00  0.00    +0.068 C 
ATOM     15  C   UNL     1       3.634  -1.986  -0.407  0.00  0.00    +0.231 C 
ATOM     16  O   UNL     1       3.602  -0.610  -0.025  0.00  0.00    -0.492 OA
ENDBRANCH   1  13
BRANCH   4  17
ATOM     17  N   UNL     1      -1.701  -3.586   2.662  0.00  0.00    -0.230 N 
ATOM     18  C   UNL     1      -2.641  -4.032   3.518  0.00  0.00    +0.267 C 
ATOM     19  O   UNL     1      -3.795  -4.128   3.157  0.00  0.00    -0.271 OA
ATOM     20  H   UNL     1      -0.778  -3.509   2.951  0.00  0.00    +0.173 HD
BRANCH  18  21
ATOM     21  C   UNL     1      -2.259  -4.413   4.925  0.00  0.00    +0.326 C 
BRANCH  21  22
ATOM     22  O   UNL     1      -3.420  -4.852   5.633  0.00  0.00    -0.480 OA
BRANCH  22  23
ATOM     23  C   UNL     1      -3.247  -5.234   6.926  0.00  0.00    +0.156 A 
ATOM     24  C   UNL     1      -1.988  -5.183   7.503  0.00  0.00    +0.048 A 
ATOM     25  C   UNL     1      -1.814  -5.572   8.818  0.00  0.00    +0.004 A 
ATOM     26  C   UNL     1      -2.895  -6.014   9.558  0.00  0.00    +0.003 A 
ATOM     27  C   UNL     1      -4.153  -6.067   8.986  0.00  0.00    +0.042 A 
ATOM     28  C   UNL     1      -4.333  -5.673   7.673  0.00  0.00    +0.165 A 
ATOM     29  F   UNL     1      -5.563  -5.719   7.115  0.00  0.00    -0.202 F 
ENDBRANCH  22  23
ENDBRANCH  21  22
ENDBRANCH  18  21
ENDBRANCH   4  17
TORSDOF 5
