REMARK  Name = ZINC09815025
REMARK  11 active torsions:
REMARK  status: ('A' for Active; 'I' for Inactive)
REMARK    1  A    between atoms: C_1  and  C_2
REMARK    2  A    between atoms: C_2  and  C_4
REMARK    3  A    between atoms: C_8  and  O_10
REMARK    4  A    between atoms: O_10  and  C_11
REMARK    5  A    between atoms: C_11  and  C_12
REMARK    6  A    between atoms: N_14  and  C_15
REMARK    7  A    between atoms: N_14  and  C_21
REMARK    8  A    between atoms: C_15  and  C_16
REMARK    9  A    between atoms: C_22  and  N_37
REMARK   10  A    between atoms: N_23  and  C_30
REMARK   11  A    between atoms: C_30  and  C_31
REMARK                            x       y       z     vdW  Elec       q    Type
REMARK                         _______ _______ _______ _____ _____    ______ ____
ROOT
ATOM      1  C   UNL     1       0.011  -6.228  -4.130  0.00  0.00    +0.258 C 
ATOM      2  O   UNL     1      -0.397  -6.561  -3.037  0.00  0.00    -0.271 OA
ATOM      3  N   UNL     1       0.330  -7.167  -5.045  0.00  0.00    -0.254 N 
ENDROOT
BRANCH   3   4
ATOM      4  C   UNL     1       0.283  -8.534  -4.699  0.00  0.00    +0.140 A 
ATOM      5  C   UNL     1       1.139  -9.047  -3.746  0.00  0.00    +0.128 A 
ATOM      6  N   UNL     1       1.068 -10.384  -3.430  0.00  0.00    -0.276 N 
ATOM      7  C   UNL     1       0.175 -11.182  -4.043  0.00  0.00    +0.331 A 
ATOM      8  O   UNL     1       0.129 -12.361  -3.749  0.00  0.00    -0.246 OA
ATOM      9  N   UNL     1      -0.667 -10.700  -4.973  0.00  0.00    -0.273 N 
ATOM     10  H   UNL     1      -1.302 -11.296  -5.400  0.00  0.00    +0.173 HD
ATOM     11  C   UNL     1      -0.643  -9.397  -5.316  0.00  0.00    +0.277 A 
ATOM     12  O   UNL     1      -1.414  -8.969  -6.158  0.00  0.00    -0.266 OA
BRANCH   5  13
ATOM     13  N   UNL     1       2.051  -8.232  -3.120  0.00  0.00    -0.343 N 
ATOM     14  H   UNL     1       2.039  -7.276  -3.283  0.00  0.00    +0.144 HD
ATOM     15  H   UNL     1       2.708  -8.613  -2.517  0.00  0.00    +0.144 HD
ENDBRANCH   5  13
BRANCH   6  16
ATOM     16  C   UNL     1       1.971 -10.942  -2.420  0.00  0.00    +0.163 C 
BRANCH  16  17
ATOM     17  C   UNL     1       1.327 -10.844  -1.061  0.00  0.00    -0.028 A 
ATOM     18  C   UNL     1       1.521  -9.716  -0.285  0.00  0.00    +0.005 A 
ATOM     19  C   UNL     1       0.930  -9.626   0.962  0.00  0.00    +0.000 A 
ATOM     20  C   UNL     1       0.146 -10.662   1.432  0.00  0.00    +0.000 A 
ATOM     21  C   UNL     1      -0.048 -11.789   0.655  0.00  0.00    +0.000 A 
ATOM     22  C   UNL     1       0.539 -11.878  -0.593  0.00  0.00    +0.005 A 
ENDBRANCH  16  17
ENDBRANCH   6  16
ENDBRANCH   3   4
BRANCH   1  23
ATOM     23  C   UNL     1       0.162  -4.767  -4.466  0.00  0.00    +0.325 C 
BRANCH  23  24
ATOM     24  O   UNL     1      -0.236  -3.977  -3.344  0.00  0.00    -0.483 OA
BRANCH  24  29
ATOM     25  C   UNL     1      -0.452  -0.415  -2.580  0.00  0.00    +0.021 A 
ATOM     26  C   UNL     1       0.002   0.130  -3.786  0.00  0.00    +0.011 A 
ATOM     27  C   UNL     1       0.368  -0.702  -4.822  0.00  0.00    +0.004 A 
ATOM     28  C   UNL     1       0.289  -2.075  -4.674  0.00  0.00    +0.046 A 
ATOM     29  C   UNL     1      -0.160  -2.627  -3.482  0.00  0.00    +0.122 A 
ATOM     30  C   UNL     1      -0.525  -1.803  -2.431  0.00  0.00    +0.057 A 
BRANCH  25  32
ATOM     31  C   UNL     1      -0.762   1.965  -1.634  0.00  0.00    +0.091 C 
ATOM     32  C   UNL     1      -0.843   0.469  -1.470  0.00  0.00    +0.160 C 
ATOM     33  O   UNL     1      -1.231  -0.006  -0.424  0.00  0.00    -0.292 OA
ENDBRANCH  25  32
ENDBRANCH  24  29
ENDBRANCH  23  24
ENDBRANCH   1  23
BRANCH   3  34
ATOM     34  C   UNL     1       0.725  -6.767  -6.398  0.00  0.00    +0.188 C 
BRANCH  34  35
ATOM     35  C   UNL     1       2.227  -6.673  -6.475  0.00  0.00    +0.122 A 
ATOM     36  C   UNL     1       3.062  -7.671  -6.816  0.00  0.00    +0.046 A 
ATOM     37  C   UNL     1       4.374  -7.146  -6.758  0.00  0.00    +0.041 A 
ATOM     38  C   UNL     1       4.262  -5.858  -6.385  0.00  0.00    +0.195 A 
ATOM     39  O   UNL     1       2.959  -5.575  -6.221  0.00  0.00    -0.466 OA
ENDBRANCH  34  35
ENDBRANCH   3  34
TORSDOF 10
