REMARK  Name = ZINC15053479
REMARK  5 active torsions:
REMARK  status: ('A' for Active; 'I' for Inactive)
REMARK    1  A    between atoms: C_1  and  N_2
REMARK    2  A    between atoms: N_2  and  C_3
REMARK    3  A    between atoms: N_2  and  C_4
REMARK    4  A    between atoms: C_7  and  C_10
REMARK    5  A    between atoms: N_14  and  C_18
REMARK                            x       y       z     vdW  Elec       q    Type
REMARK                         _______ _______ _______ _____ _____    ______ ____
ROOT
ATOM      1  C   UNL     1       0.096  -2.791  -4.902  0.00  0.00    +0.028 C 
ATOM      2  C   UNL     1      -0.070  -2.112  -6.066  0.00  0.00    +0.078 C 
ATOM      3  C   UNL     1      -0.197  -2.631  -7.440  0.00  0.00    +0.263 C 
ATOM      4  O   UNL     1      -0.161  -3.825  -7.675  0.00  0.00    -0.269 OA
ATOM      5  N   UNL     1      -0.353  -1.741  -8.406  0.00  0.00    -0.215 N 
ATOM      6  C   UNL     1      -0.392  -0.390  -8.117  0.00  0.00    +0.165 C 
ATOM      7  N   UNL     1      -0.537   0.612  -8.939  0.00  0.00    -0.279 NA
ATOM      8  S   UNL     1      -0.202  -0.352  -6.342  0.00  0.00    -0.049 S 
ATOM      9  H   UNL     1      -0.547   1.520  -8.599  0.00  0.00    +0.189 HD
ENDROOT
BRANCH   5  10
ATOM     10  C   UNL     1      -0.479  -2.172  -9.734  0.00  0.00    +0.044 A 
ATOM     11  C   UNL     1      -1.610  -2.870 -10.134  0.00  0.00    +0.027 A 
ATOM     12  C   UNL     1      -1.733  -3.293 -11.444  0.00  0.00    +0.040 A 
ATOM     13  C   UNL     1      -0.728  -3.021 -12.357  0.00  0.00    +0.124 A 
ATOM     14  C   UNL     1       0.401  -2.325 -11.960  0.00  0.00    +0.040 A 
ATOM     15  C   UNL     1       0.525  -1.895 -10.653  0.00  0.00    +0.027 A 
ATOM     16  F   UNL     1      -0.849  -3.436 -13.637  0.00  0.00    -0.205 F 
ENDBRANCH   5  10
BRANCH   1  20
ATOM     17  C   UNL     1      -0.107  -0.734  -1.200  0.00  0.00    +0.029 A 
ATOM     18  C   UNL     1      -0.625  -0.145  -2.350  0.00  0.00    +0.023 A 
ATOM     19  C   UNL     1      -0.561  -0.809  -3.554  0.00  0.00    +0.010 A 
ATOM     20  C   UNL     1       0.026  -2.079  -3.620  0.00  0.00    -0.024 A 
ATOM     21  C   UNL     1       0.546  -2.667  -2.460  0.00  0.00    +0.010 A 
ATOM     22  C   UNL     1       0.483  -1.993  -1.262  0.00  0.00    +0.023 A 
BRANCH  17  24
ATOM     23  C   UNL     1       0.376  -0.673   1.227  0.00  0.00    +0.129 C 
ATOM     24  N   UNL     1      -0.174  -0.058   0.016  0.00  0.00    -0.336 N 
ATOM     25  C   UNL     1      -0.794   1.267   0.084  0.00  0.00    +0.129 C 
ENDBRANCH  17  24
ENDBRANCH   1  20
TORSDOF 3
