REMARK  Name = ZINC49519542
REMARK  8 active torsions:
REMARK  status: ('A' for Active; 'I' for Inactive)
REMARK    1  A    between atoms: C_1  and  C_2
REMARK    2  A    between atoms: C_2  and  C_3
REMARK    3  A    between atoms: C_3  and  C_4
REMARK    4  A    between atoms: C_4  and  C_6
REMARK    5  A    between atoms: C_4  and  N_7
REMARK    6  A    between atoms: C_8  and  C_10
REMARK    7  A    between atoms: C_11  and  C_12
REMARK    8  A    between atoms: C_17  and  N_18
REMARK                            x       y       z     vdW  Elec       q    Type
REMARK                         _______ _______ _______ _____ _____    ______ ____
ROOT
ATOM      1  C   UNL     1      -2.142  -4.584   1.467  0.00  0.00    +0.068 C 
ATOM      2  C   UNL     1      -2.501  -5.792   0.986  0.00  0.00    +0.015 C 
ENDROOT
BRANCH   2   3
ATOM      3  C   UNL     1      -3.924  -6.154   0.895  0.00  0.00    +0.006 A 
ATOM      4  C   UNL     1      -4.883  -5.412   1.593  0.00  0.00    +0.013 A 
ATOM      5  C   UNL     1      -6.215  -5.756   1.503  0.00  0.00    +0.039 A 
ATOM      6  C   UNL     1      -6.604  -6.835   0.724  0.00  0.00    +0.126 A 
ATOM      7  C   UNL     1      -5.658  -7.574   0.029  0.00  0.00    +0.071 A 
ATOM      8  C   UNL     1      -4.324  -7.237   0.106  0.00  0.00    +0.136 A 
ATOM      9  F   UNL     1      -7.911  -7.168   0.640  0.00  0.00    -0.205 F 
BRANCH   8  10
ATOM     10  N   UNL     1      -3.316  -8.024  -0.640  0.00  0.00    +0.057 N 
ATOM     11  O   UNL     1      -2.369  -7.468  -1.146  0.00  0.00    -0.126 OA
ATOM     12  O   UNL     1      -3.440  -9.222  -0.745  0.00  0.00    -0.126 OA
ENDBRANCH   8  10
ENDBRANCH   2   3
BRANCH   1  14
ATOM     13  N   UNL     1      -0.367  -3.017   2.038  0.00  0.00    -0.309 N 
ATOM     14  C   UNL     1      -0.726  -4.224   1.558  0.00  0.00    +0.237 C 
ATOM     15  O   UNL     1       0.127  -5.015   1.199  0.00  0.00    -0.271 OA
ATOM     16  H   UNL     1      -1.047  -2.387   2.324  0.00  0.00    +0.149 HD
BRANCH  13  17
ATOM     17  C   UNL     1       1.050  -2.657   2.129  0.00  0.00    +0.070 C 
ATOM     18  C   UNL     1       1.628  -3.188   3.442  0.00  0.00    +0.028 C 
BRANCH  17  19
ATOM     19  C   UNL     1       1.193  -1.134   2.088  0.00  0.00    +0.022 C 
BRANCH  19  21
ATOM     20  C   UNL     1       0.872   0.908   0.685  0.00  0.00    +0.004 C 
ATOM     21  C   UNL     1       0.729  -0.615   0.726  0.00  0.00    -0.002 C 
ENDBRANCH  19  21
ENDBRANCH  17  19
ENDBRANCH  13  17
ENDBRANCH   1  14
TORSDOF 6
