REMARK  Name = ZINC41070125
REMARK  5 active torsions:
REMARK  status: ('A' for Active; 'I' for Inactive)
REMARK    1  A    between atoms: C_6  and  S_7
REMARK    2  A    between atoms: S_7  and  N_10
REMARK    3  A    between atoms: C_14  and  C_17
REMARK    4  A    between atoms: C_17  and  O_18
REMARK    5  A    between atoms: N_19  and  N_20
REMARK                            x       y       z     vdW  Elec       q    Type
REMARK                         _______ _______ _______ _____ _____    ______ ____
ROOT
ATOM      1  C   UNL     1       1.067  -0.839   0.997  0.00  0.00    +0.048 A 
ATOM      2  C   UNL     1       2.236  -0.136   1.262  0.00  0.00    +0.038 A 
ATOM      3  C   UNL     1       2.558   0.959   0.485  0.00  0.00    +0.128 A 
ATOM      4  N   UNL     1       1.770   1.344  -0.501  0.00  0.00    -0.236 NA
ATOM      5  C   UNL     1       0.648   0.701  -0.785  0.00  0.00    +0.159 A 
ATOM      6  C   UNL     1       0.262  -0.412  -0.043  0.00  0.00    +0.147 A 
ATOM      7  N   UNL     1      -0.153   1.142  -1.833  0.00  0.00    -0.266 N 
ATOM      8 BR   UNL     1       3.375  -0.675   2.672  0.00  0.00    -0.049 Br
ATOM      9  H   UNL     1      -1.025   0.743  -1.977  0.00  0.00    +0.167 HD
ENDROOT
BRANCH   6  10
ATOM     10  S   UNL     1      -1.231  -1.265  -0.425  0.00  0.00    +0.064 S 
ATOM     11  O   UNL     1      -1.331  -2.342   0.497  0.00  0.00    -0.153 OA
ATOM     12  O   UNL     1      -2.243  -0.275  -0.552  0.00  0.00    -0.153 OA
BRANCH  10  13
ATOM     13  N   UNL     1      -1.040  -1.941  -1.924  0.00  0.00    -0.176 NA
ATOM     14  C   UNL     1      -1.524  -1.248  -3.126  0.00  0.00    +0.109 C 
ATOM     15  C   UNL     1      -2.436  -2.198  -3.909  0.00  0.00    +0.017 C 
ATOM     16  C   UNL     1      -1.683  -3.500  -4.195  0.00  0.00    +0.008 C 
ATOM     17  C   UNL     1      -1.306  -4.173  -2.874  0.00  0.00    +0.030 C 
ATOM     18  C   UNL     1      -0.377  -3.243  -2.079  0.00  0.00    +0.115 C 
BRANCH  17  19
ATOM     19  C   UNL     1      -0.583  -5.491  -3.161  0.00  0.00    +0.160 C 
BRANCH  19  20
ATOM     20  O   UNL     1      -1.483  -6.397  -3.803  0.00  0.00    -0.395 OA
ATOM     21  H   UNL     1      -1.091  -7.255  -4.015  0.00  0.00    +0.209 HD
ENDBRANCH  19  20
ENDBRANCH  17  19
ENDBRANCH  10  13
ENDBRANCH   6  10
BRANCH   7  22
ATOM     22  N   UNL     1       0.290   2.135  -2.659  0.00  0.00    -0.255 NA
ATOM     23  H   UNL     1      -0.396   2.348  -3.368  0.00  0.00    +0.140 HD
ATOM     24  H   UNL     1       0.533   2.961  -2.133  0.00  0.00    +0.140 HD
ENDBRANCH   7  22
TORSDOF 5
