REMARK  Name = ZINC37203902
REMARK  5 active torsions:
REMARK  status: ('A' for Active; 'I' for Inactive)
REMARK    1  A    between atoms: C_3  and  N_20
REMARK    2  A    between atoms: C_4  and  S_8
REMARK    3  A    between atoms: S_8  and  C_9
REMARK    4  A    between atoms: C_9  and  C_10
REMARK    5  A    between atoms: C_12  and  C_15
REMARK                            x       y       z     vdW  Elec       q    Type
REMARK                         _______ _______ _______ _____ _____    ______ ____
ROOT
ATOM      1  S   UNL     1       3.939  -0.838  -0.041  0.00  0.00    -0.114 S 
ENDROOT
BRANCH   1   5
ATOM      2  C   UNL     1      -0.017   1.378   0.010  0.00  0.00    +0.003 A 
ATOM      3  C   UNL     1       1.169   2.090   0.002  0.00  0.00    +0.024 A 
ATOM      4  C   UNL     1       2.382   1.418  -0.013  0.00  0.00    +0.040 A 
ATOM      5  C   UNL     1       2.402   0.023  -0.021  0.00  0.00    +0.047 A 
ATOM      6  C   UNL     1       1.208  -0.683  -0.013  0.00  0.00    +0.056 A 
ATOM      7  C   UNL     1       0.002  -0.004   0.002  0.00  0.00    +0.021 A 
ATOM      8 CL   UNL     1       1.226  -2.419  -0.023  0.00  0.00    -0.082 Cl
BRANCH   4   9
ATOM      9  N   UNL     1       3.583   2.138  -0.021  0.00  0.00    -0.357 N 
ATOM     10  H   UNL     1       3.567   3.108  -0.016  0.00  0.00    +0.142 HD
ATOM     11  H   UNL     1       4.430   1.666  -0.032  0.00  0.00    +0.142 HD
ENDBRANCH   4   9
ENDBRANCH   1   5
BRANCH   1  12
ATOM     12  C   UNL     1       4.339  -1.062   1.715  0.00  0.00    +0.154 C 
BRANCH  12  13
ATOM     13  C   UNL     1       5.649  -1.796   1.841  0.00  0.00    +0.182 A 
ATOM     14  N   UNL     1       5.789  -3.121   1.901  0.00  0.00    -0.191 NA
ATOM     15  C   UNL     1       7.065  -3.434   2.010  0.00  0.00    +0.265 A 
ATOM     16  O   UNL     1       7.772  -2.288   2.021  0.00  0.00    -0.332 OA
ATOM     17  N   UNL     1       6.825  -1.238   1.904  0.00  0.00    -0.060 NA
BRANCH  15  18
ATOM     18  C   UNL     1       7.617  -4.791   2.103  0.00  0.00    +0.077 A 
ATOM     19  C   UNL     1       8.938  -5.189   2.224  0.00  0.00    +0.021 A 
ATOM     20  C   UNL     1       9.149  -6.548   2.290  0.00  0.00    +0.008 A 
ATOM     21  C   UNL     1       8.084  -7.383   2.234  0.00  0.00    +0.046 A 
ATOM     22  S   UNL     1       6.762  -6.355   2.097  0.00  0.00    -0.092 S 
ENDBRANCH  15  18
ENDBRANCH  12  13
ENDBRANCH   1  12
TORSDOF 5
