REMARK  Name = ZINC24943300
REMARK  8 active torsions:
REMARK  status: ('A' for Active; 'I' for Inactive)
REMARK    1  A    between atoms: C_1  and  C_2
REMARK    2  A    between atoms: C_2  and  C_4
REMARK    3  A    between atoms: C_2  and  N_12
REMARK    4  A    between atoms: C_13  and  C_15
REMARK    5  A    between atoms: C_15  and  O_16
REMARK    6  A    between atoms: O_16  and  C_17
REMARK    7  A    between atoms: C_17  and  C_19
REMARK    8  A    between atoms: C_20  and  C_21
REMARK                            x       y       z     vdW  Elec       q    Type
REMARK                         _______ _______ _______ _____ _____    ______ ____
ROOT
ATOM      1  C   UNL     1      -3.175   7.155   1.913  0.00  0.00    +0.328 C 
ENDROOT
BRANCH   1   3
ATOM      2  N   UNL     1      -2.362   5.198   0.638  0.00  0.00    -0.306 N 
ATOM      3  C   UNL     1      -3.371   5.790   1.306  0.00  0.00    +0.251 C 
ATOM      4  O   UNL     1      -4.438   5.224   1.419  0.00  0.00    -0.272 OA
ATOM      5  H   UNL     1      -1.394   5.712   0.535  0.00  0.00    +0.149 HD
BRANCH   2   7
ATOM      6  C   UNL     1      -3.139   4.017  -1.358  0.00  0.00    +0.033 C 
ATOM      7  C   UNL     1      -2.553   3.871   0.048  0.00  0.00    +0.102 C 
BRANCH   7   8
ATOM      8  C   UNL     1      -1.226   3.161  -0.033  0.00  0.00    -0.009 A 
ATOM      9  C   UNL     1      -0.057   3.892  -0.134  0.00  0.00    +0.008 A 
ATOM     10  C   UNL     1       1.161   3.241  -0.208  0.00  0.00    +0.020 A 
ATOM     11  C   UNL     1       1.210   1.859  -0.179  0.00  0.00    +0.042 A 
ATOM     12  C   UNL     1       0.040   1.127  -0.077  0.00  0.00    +0.040 A 
ATOM     13  C   UNL     1      -1.178   1.779  -0.009  0.00  0.00    +0.047 A 
ATOM     14 CL   UNL     1      -2.647   0.862   0.111  0.00  0.00    -0.083 Cl
ATOM     15 CL   UNL     1       2.739   1.042  -0.271  0.00  0.00    -0.083 Cl
ENDBRANCH   7   8
ENDBRANCH   2   7
ENDBRANCH   1   3
BRANCH   1  16
ATOM     16  O   UNL     1      -4.399   7.572   2.574  0.00  0.00    -0.452 OA
BRANCH  16  17
ATOM     17  C   UNL     1      -4.391   8.781   3.172  0.00  0.00    +0.333 C 
ATOM     18  O   UNL     1      -3.388   9.467   3.143  0.00  0.00    -0.246 OA
BRANCH  17  19
ATOM     19  C   UNL     1      -5.591   9.267   3.858  0.00  0.00    +0.097 C 
ATOM     20  C   UNL     1      -5.583  10.476   4.457  0.00  0.00    +0.074 C 
BRANCH  20  21
ATOM     21  C   UNL     1      -6.785  10.963   5.145  0.00  0.00    +0.221 A 
ATOM     22  N   UNL     1      -7.918  10.310   5.232  0.00  0.00    -0.209 NA
ATOM     23  C   UNL     1      -8.798  11.052   5.933  0.00  0.00    +0.110 A 
ATOM     24  C   UNL     1     -10.127  10.859   6.327  0.00  0.00    +0.031 A 
ATOM     25  C   UNL     1     -10.770  11.826   7.046  0.00  0.00    +0.002 A 
ATOM     26  C   UNL     1     -10.117  13.002   7.390  0.00  0.00    +0.004 A 
ATOM     27  C   UNL     1      -8.808  13.214   7.012  0.00  0.00    +0.048 A 
ATOM     28  C   UNL     1      -8.137  12.245   6.282  0.00  0.00    +0.156 A 
ATOM     29  O   UNL     1      -6.889  12.151   5.774  0.00  0.00    -0.436 OA
ENDBRANCH  20  21
ENDBRANCH  17  19
ENDBRANCH  16  17
ENDBRANCH   1  16
TORSDOF 7
