REMARK  Name = ZINC63985562
REMARK  13 active torsions:
REMARK  status: ('A' for Active; 'I' for Inactive)
REMARK    1  A    between atoms: C_1  and  C_2
REMARK    2  A    between atoms: C_2  and  C_3
REMARK    3  A    between atoms: C_2  and  C_4
REMARK    4  A    between atoms: C_4  and  N_5
REMARK    5  A    between atoms: N_5  and  C_6
REMARK    6  A    between atoms: N_12  and  C_25
REMARK    7  A    between atoms: C_13  and  C_21
REMARK    8  A    between atoms: C_15  and  N_17
REMARK    9  A    between atoms: C_18  and  C_20
REMARK   10  A    between atoms: C_21  and  O_23
REMARK   11  A    between atoms: O_23  and  C_24
REMARK   12  A    between atoms: C_25  and  C_26
REMARK   13  A    between atoms: C_26  and  C_27
REMARK                            x       y       z     vdW  Elec       q    Type
REMARK                         _______ _______ _______ _____ _____    ______ ____
ROOT
ATOM      1  C   UNL     1      -2.900  -2.388   0.335  0.00  0.00    +0.044 A 
ATOM      2  C   UNL     1      -2.762  -3.746   0.051  0.00  0.00    +0.033 A 
ATOM      3  C   UNL     1      -3.906  -4.506  -0.100  0.00  0.00    +0.015 A 
ATOM      4  C   UNL     1      -5.155  -3.916   0.030  0.00  0.00    +0.105 A 
ATOM      5  N   UNL     1      -5.242  -2.614   0.301  0.00  0.00    -0.348 N 
ATOM      6  C   UNL     1      -4.175  -1.858   0.459  0.00  0.00    +0.107 A 
ATOM      7  N   UNL     1      -6.179  -4.842  -0.157  0.00  0.00    -0.301 N 
ATOM      8  C   UNL     1      -5.619  -6.167  -0.436  0.00  0.00    +0.208 C 
ATOM      9  C   UNL     1      -4.094  -5.974  -0.405  0.00  0.00    +0.138 C 
ATOM     10  H   UNL     1      -6.120  -2.211   0.391  0.00  0.00    +0.167 HD
ENDROOT
BRANCH   9  11
ATOM     11  N   UNL     1      -3.496  -6.796   0.650  0.00  0.00    -0.306 N 
ATOM     12  C   UNL     1      -2.190  -7.123   0.590  0.00  0.00    +0.210 C 
ATOM     13  O   UNL     1      -1.510  -6.737  -0.337  0.00  0.00    -0.276 OA
ATOM     14  C   UNL     1      -1.575  -7.969   1.675  0.00  0.00    +0.109 C 
ATOM     15  H   UNL     1      -4.040  -7.105   1.391  0.00  0.00    +0.149 HD
ENDBRANCH   9  11
BRANCH   1  16
ATOM     16  N   UNL     1      -1.771  -1.575   0.498  0.00  0.00    -0.342 N 
ATOM     17  H   UNL     1      -0.883  -1.955   0.409  0.00  0.00    +0.146 HD
BRANCH  16  18
ATOM     18  C   UNL     1      -1.932  -0.151   0.802  0.00  0.00    +0.104 C 
BRANCH  18  20
ATOM     19  C   UNL     1      -0.720   2.011   1.122  0.00  0.00    +0.009 C 
ATOM     20  C   UNL     1      -0.554   0.502   0.928  0.00  0.00    -0.000 C 
ATOM     21  C   UNL     1       0.182  -0.089   2.133  0.00  0.00    +0.009 C 
ENDBRANCH  18  20
ENDBRANCH  16  18
ENDBRANCH   1  16
BRANCH   8  22
ATOM     22  C   UNL     1      -6.060  -6.645  -1.796  0.00  0.00    +0.330 C 
ATOM     23  O   UNL     1      -6.350  -5.844  -2.653  0.00  0.00    -0.249 OA
BRANCH  22  24
ATOM     24  O   UNL     1      -6.131  -7.960  -2.054  0.00  0.00    -0.467 OA
ATOM     25  C   UNL     1      -6.556  -8.342  -3.364  0.00  0.00    +0.280 C 
ENDBRANCH  22  24
ENDBRANCH   8  22
BRANCH   7  26
ATOM     26  C   UNL     1      -7.610  -4.535  -0.084  0.00  0.00    +0.112 C 
BRANCH  26  27
ATOM     27  C   UNL     1      -8.086  -4.663   1.364  0.00  0.00    +0.052 C 
BRANCH  27  28
ATOM     28  C   UNL     1      -9.568  -4.400   1.431  0.00  0.00    -0.040 C 
ATOM     29  C   UNL     1     -10.559  -5.320   1.410  0.00  0.00    -0.001 A 
ATOM     30  C   UNL     1     -10.554  -6.785   1.321  0.00  0.00    +0.010 A 
ATOM     31  C   UNL     1     -11.734  -7.447   1.321  0.00  0.00    +0.001 A 
ATOM     32  C   UNL     1     -12.958  -6.770   1.404  0.00  0.00    +0.002 A 
ATOM     33  C   UNL     1     -13.044  -5.425   1.489  0.00  0.00    +0.026 A 
ATOM     34  C   UNL     1     -11.866  -4.629   1.497  0.00  0.00    +0.043 A 
ATOM     35  N   UNL     1     -11.689  -3.332   1.569  0.00  0.00    -0.380 N 
ATOM     36  C   UNL     1     -10.249  -3.054   1.542  0.00  0.00    +0.144 C 
ATOM     37  H   UNL     1     -12.393  -2.668   1.634  0.00  0.00    +0.160 HD
ENDBRANCH  27  28
ENDBRANCH  26  27
ENDBRANCH   7  26
TORSDOF 9
