REMARK  Name = ZINC13370851
REMARK  9 active torsions:
REMARK  status: ('A' for Active; 'I' for Inactive)
REMARK    1  A    between atoms: C_1  and  N_2
REMARK    2  A    between atoms: N_2  and  C_3
REMARK    3  A    between atoms: C_5  and  C_24
REMARK    4  A    between atoms: C_8  and  O_9
REMARK    5  A    between atoms: O_9  and  C_10
REMARK    6  A    between atoms: C_12  and  C_17
REMARK    7  A    between atoms: C_16  and  N_50
REMARK    8  A    between atoms: C_20  and  O_23
REMARK    9  A    between atoms: C_24  and  O_25
REMARK                            x       y       z     vdW  Elec       q    Type
REMARK                         _______ _______ _______ _____ _____    ______ ____
ROOT
ATOM      1  C   UNL     1       1.762   6.571  -3.545  0.00  0.00    +0.071 A 
ATOM      2  C   UNL     1       1.287   7.669  -2.840  0.00  0.00    +0.032 A 
ATOM      3  C   UNL     1       1.093   7.580  -1.478  0.00  0.00    -0.017 A 
ATOM      4  C   UNL     1       1.371   6.402  -0.797  0.00  0.00    -0.034 A 
ATOM      5  C   UNL     1       1.865   5.311  -1.487  0.00  0.00    +0.073 A 
ATOM      6  C   UNL     1       2.051   5.393  -2.870  0.00  0.00    +0.162 A 
ATOM      7  N   UNL     1       2.214   4.112  -0.858  0.00  0.00    -0.336 N 
ATOM      8  C   UNL     1       1.147   3.593   0.011  0.00  0.00    +0.084 C 
ATOM      9  C   UNL     1       1.402   4.106   1.427  0.00  0.00    -0.051 C 
ATOM     10  C   UNL     1       1.109   6.371   0.687  0.00  0.00    -0.041 C 
ATOM     11  C   UNL     1       2.353   5.922   2.713  0.00  0.00    -0.096 C 
ATOM     12  H   UNL     1       3.080   4.208  -0.348  0.00  0.00    +0.147 HD
ATOM     13  N   UNL     1       2.029   5.435   1.353  0.00  0.00    +0.382 N 
ATOM     14  H   UNL     1       2.896   5.369   0.807  0.00  0.00    -0.082 HD
ENDROOT
BRANCH   8  15
ATOM     15  C   UNL     1       1.171   2.086   0.002  0.00  0.00    -0.029 A 
ATOM     16  C   UNL     1      -0.017   1.377   0.010  0.00  0.00    +0.009 A 
ATOM     17  C   UNL     1       0.002  -0.004   0.002  0.00  0.00    +0.046 A 
ATOM     18  C   UNL     1       1.213  -0.680  -0.013  0.00  0.00    +0.117 A 
ATOM     19  C   UNL     1       2.403   0.033  -0.021  0.00  0.00    +0.046 A 
ATOM     20  C   UNL     1       2.379   1.415  -0.013  0.00  0.00    +0.009 A 
BRANCH  18  21
ATOM     21  O   UNL     1       1.234  -2.039  -0.020  0.00  0.00    -0.507 OA
ATOM     22  H   UNL     1       1.232  -2.428  -0.906  0.00  0.00    +0.292 HD
ENDBRANCH  18  21
ENDBRANCH   8  15
BRANCH   1  24
ATOM     23  C   UNL     1       1.644   7.896  -5.640  0.00  0.00    +0.125 C 
ATOM     24  N   UNL     1       1.949   6.651  -4.930  0.00  0.00    -0.344 N 
ATOM     25  H   UNL     1       2.281   5.883  -5.420  0.00  0.00    +0.146 HD
ENDBRANCH   1  24
BRANCH   6  26
ATOM     26  O   UNL     1       2.515   4.314  -3.557  0.00  0.00    -0.491 OA
ATOM     27  C   UNL     1       1.541   3.402  -4.068  0.00  0.00    +0.277 C 
ENDBRANCH   6  26
BRANCH   3  28
ATOM     28  C   UNL     1       0.574   8.775  -0.719  0.00  0.00    +0.191 C 
BRANCH  28  29
ATOM     29  O   UNL     1       0.364   9.860  -1.625  0.00  0.00    -0.390 OA
ATOM     30  H   UNL     1       0.029  10.664  -1.204  0.00  0.00    +0.210 HD
ENDBRANCH  28  29
ENDBRANCH   3  28
TORSDOF 6
