REMARK  Name = ZINC37251490
REMARK  5 active torsions:
REMARK  status: ('A' for Active; 'I' for Inactive)
REMARK    1  A    between atoms: C_1  and  C_2
REMARK    2  A    between atoms: C_7  and  N_10
REMARK    3  A    between atoms: N_10  and  C_11
REMARK    4  A    between atoms: C_14  and  C_20
REMARK    5  A    between atoms: C_16  and  N_17
REMARK                            x       y       z     vdW  Elec       q    Type
REMARK                         _______ _______ _______ _____ _____    ______ ____
ROOT
ATOM      1  C   UNL     1      -0.887  -3.939   1.519  0.00  0.00    +0.058 A 
ATOM      2  C   UNL     1       0.156  -4.763   1.923  0.00  0.00    +0.026 A 
ATOM      3  C   UNL     1      -0.111  -5.902   2.655  0.00  0.00    +0.014 A 
ATOM      4  C   UNL     1      -1.414  -6.225   2.986  0.00  0.00    +0.057 A 
ATOM      5  C   UNL     1      -2.455  -5.407   2.585  0.00  0.00    +0.047 A 
ATOM      6  C   UNL     1      -2.195  -4.263   1.857  0.00  0.00    +0.147 A 
ENDROOT
BRANCH   4   7
ATOM      7  C   UNL     1      -1.701  -7.470   3.785  0.00  0.00    +0.417 C 
ATOM      8  F   UNL     1      -0.500  -8.128   4.071  0.00  0.00    -0.166 F 
ATOM      9  F   UNL     1      -2.338  -7.120   4.981  0.00  0.00    -0.166 F 
ATOM     10  F   UNL     1      -2.533  -8.318   3.045  0.00  0.00    -0.166 F 
ENDBRANCH   4   7
BRANCH   6  11
ATOM     11  N   UNL     1      -3.309  -3.385   1.433  0.00  0.00    +0.058 N 
ATOM     12  O   UNL     1      -3.166  -2.185   1.433  0.00  0.00    -0.126 OA
ATOM     13  O   UNL     1      -4.362  -3.869   1.088  0.00  0.00    -0.126 OA
ENDBRANCH   6  11
BRANCH   1  14
ATOM     14  N   UNL     1      -0.621  -2.785   0.779  0.00  0.00    -0.339 N 
ATOM     15  H   UNL     1      -1.353  -2.256   0.424  0.00  0.00    +0.146 HD
BRANCH  14  21
ATOM     16  C   UNL     1       0.003   0.989  -1.180  0.00  0.00    +0.007 C 
ATOM     17  C   UNL     1      -0.044  -0.520  -0.932  0.00  0.00    -0.012 C 
ATOM     18  C   UNL     1       0.502  -1.255  -2.158  0.00  0.00    +0.003 C 
ATOM     19  C   UNL     1       0.455  -2.764  -1.910  0.00  0.00    +0.002 C 
ATOM     20  C   UNL     1       1.309  -3.107  -0.688  0.00  0.00    +0.022 C 
ATOM     21  C   UNL     1       0.764  -2.372   0.538  0.00  0.00    +0.071 C 
ATOM     22  C   UNL     1       0.810  -0.863   0.290  0.00  0.00    +0.025 C 
ENDBRANCH  14  21
ENDBRANCH   1  14
TORSDOF 4
