REMARK  Name = ZINC46385836
REMARK  11 active torsions:
REMARK  status: ('A' for Active; 'I' for Inactive)
REMARK    1  A    between atoms: C_1  and  C_2
REMARK    2  A    between atoms: C_2  and  C_4
REMARK    3  A    between atoms: C_2  and  N_15
REMARK    4  A    between atoms: C_16  and  C_18
REMARK    5  A    between atoms: C_18  and  C_20
REMARK    6  A    between atoms: C_18  and  N_21
REMARK    7  A    between atoms: C_22  and  O_24
REMARK    8  A    between atoms: O_24  and  C_25
REMARK    9  A    between atoms: C_25  and  C_26
REMARK   10  A    between atoms: C_25  and  C_27
REMARK   11  A    between atoms: C_25  and  C_28
REMARK                            x       y       z     vdW  Elec       q    Type
REMARK                         _______ _______ _______ _____ _____    ______ ____
ROOT
ATOM      1  N   UNL     1       0.688  -0.476  -1.203  0.00  0.00    -0.307 N 
ATOM      2  C   UNL     1       0.006  -0.608  -2.358  0.00  0.00    +0.234 C 
ATOM      3  O   UNL     1      -1.175  -0.336  -2.400  0.00  0.00    -0.274 OA
ATOM      4  H   UNL     1       1.632  -0.695  -1.170  0.00  0.00    +0.149 HD
ENDROOT
BRANCH   1   6
ATOM      5  C   UNL     1      -0.019   1.526   0.010  0.00  0.00    +0.033 C 
ATOM      6  C   UNL     1       0.002  -0.004   0.002  0.00  0.00    +0.100 C 
BRANCH   6   7
ATOM      7  C   UNL     1       0.731  -0.503   1.223  0.00  0.00    -0.026 A 
ATOM      8  C   UNL     1       2.114  -0.513   1.244  0.00  0.00    +0.009 A 
ATOM      9  C   UNL     1       2.790  -0.968   2.362  0.00  0.00    +0.048 A 
ATOM     10  C   UNL     1       2.081  -1.417   3.462  0.00  0.00    +0.142 A 
ATOM     11  C   UNL     1       0.687  -1.408   3.440  0.00  0.00    +0.076 A 
ATOM     12  C   UNL     1       0.015  -0.945   2.321  0.00  0.00    +0.032 A 
ATOM     13  N   UNL     1      -0.020  -1.868   4.560  0.00  0.00    -0.280 N 
ATOM     14  C   UNL     1       0.634  -2.008   5.734  0.00  0.00    +0.255 C 
ATOM     15  O   UNL     1       0.051  -2.433   6.709  0.00  0.00    -0.272 OA
ATOM     16  C   UNL     1       2.091  -1.634   5.827  0.00  0.00    +0.325 C 
ATOM     17  O   UNL     1       2.729  -1.867   4.569  0.00  0.00    -0.481 OA
ATOM     18  H   UNL     1      -0.964  -2.081   4.494  0.00  0.00    +0.155 HD
ENDBRANCH   6   7
ENDBRANCH   1   6
BRANCH   2  19
ATOM     19  C   UNL     1       0.712  -1.094  -3.598  0.00  0.00    +0.159 C 
ATOM     20  C   UNL     1       1.849  -0.133  -3.948  0.00  0.00    +0.038 C 
BRANCH  19  21
ATOM     21  N   UNL     1      -0.240  -1.150  -4.711  0.00  0.00    -0.270 N 
ATOM     22  C   UNL     1      -0.021  -1.989  -5.743  0.00  0.00    +0.401 C 
ATOM     23  O   UNL     1       0.965  -2.699  -5.751  0.00  0.00    -0.226 OA
ATOM     24  H   UNL     1      -1.027  -0.584  -4.705  0.00  0.00    +0.153 HD
BRANCH  22  25
ATOM     25  O   UNL     1      -0.895  -2.041  -6.766  0.00  0.00    -0.445 OA
BRANCH  25  26
ATOM     26  C   UNL     1      -0.600  -2.952  -7.826  0.00  0.00    +0.107 C 
ATOM     27  C   UNL     1      -0.533  -4.376  -7.270  0.00  0.00    +0.055 C 
ATOM     28  C   UNL     1      -1.698  -2.871  -8.889  0.00  0.00    +0.055 C 
ATOM     29  C   UNL     1       0.746  -2.586  -8.454  0.00  0.00    +0.055 C 
ENDBRANCH  25  26
ENDBRANCH  22  25
ENDBRANCH  19  21
ENDBRANCH   2  19
TORSDOF 6
