REMARK  Name = ZINC16610495
REMARK  12 active torsions:
REMARK  status: ('A' for Active; 'I' for Inactive)
REMARK    1  A    between atoms: C_1  and  C_2
REMARK    2  A    between atoms: C_2  and  N_3
REMARK    3  A    between atoms: C_4  and  C_38
REMARK    4  A    between atoms: C_5  and  C_31
REMARK    5  A    between atoms: C_6  and  C_11
REMARK    6  A    between atoms: C_14  and  N_17
REMARK    7  A    between atoms: N_20  and  C_21
REMARK    8  A    between atoms: C_31  and  O_33
REMARK    9  A    between atoms: O_33  and  C_34
REMARK   10  A    between atoms: C_34  and  C_35
REMARK   11  A    between atoms: C_35  and  C_36
REMARK   12  A    between atoms: C_35  and  C_37
REMARK                            x       y       z     vdW  Elec       q    Type
REMARK                         _______ _______ _______ _____ _____    ______ ____
ROOT
ATOM      1  C   UNL     1      -5.082  -0.106   0.453  0.00  0.00    -0.022 A 
ATOM      2  C   UNL     1      -4.869   1.260   0.483  0.00  0.00    +0.007 A 
ATOM      3  C   UNL     1      -3.583   1.760   0.530  0.00  0.00    +0.024 A 
ATOM      4  C   UNL     1      -2.501   0.889   0.548  0.00  0.00    +0.035 A 
ATOM      5  C   UNL     1      -2.718  -0.483   0.513  0.00  0.00    +0.024 A 
ATOM      6  C   UNL     1      -4.007  -0.976   0.471  0.00  0.00    +0.007 A 
ENDROOT
BRANCH   1  10
ATOM      7  N   UNL     1      -7.220  -3.211  -0.336  0.00  0.00    -0.286 N 
ATOM      8  C   UNL     1      -7.152  -2.268  -1.319  0.00  0.00    +0.021 C 
ATOM      9  C   UNL     1      -6.802  -0.993  -1.040  0.00  0.00    +0.078 C 
ATOM     10  C   UNL     1      -6.487  -0.648   0.401  0.00  0.00    +0.141 C 
ATOM     11  N   UNL     1      -6.590  -1.738   1.386  0.00  0.00    -0.315 N 
ATOM     12  C   UNL     1      -6.953  -2.962   0.952  0.00  0.00    +0.138 C 
ATOM     13  S   UNL     1      -7.077  -4.238   2.086  0.00  0.00    -0.018 S 
ATOM     14  C   UNL     1      -7.473  -2.654  -2.740  0.00  0.00    +0.061 C 
ATOM     15  H   UNL     1      -6.401  -1.579   2.324  0.00  0.00    +0.149 HD
BRANCH   7  17
ATOM     16  C   UNL     1      -9.133  -4.679  -0.745  0.00  0.00    +0.025 C 
ATOM     17  C   UNL     1      -7.607  -4.573  -0.710  0.00  0.00    +0.109 C 
ENDBRANCH   7  17
BRANCH   9  18
ATOM     18  C   UNL     1      -6.731  -0.014  -2.059  0.00  0.00    +0.339 C 
ATOM     19  O   UNL     1      -6.330   1.105  -1.800  0.00  0.00    -0.245 OA
BRANCH  18  20
ATOM     20  O   UNL     1      -7.109  -0.322  -3.317  0.00  0.00    -0.461 OA
BRANCH  20  21
ATOM     21  C   UNL     1      -6.908   0.679  -4.317  0.00  0.00    +0.235 C 
BRANCH  21  22
ATOM     22  C   UNL     1      -7.504   0.202  -5.643  0.00  0.00    +0.020 C 
ATOM     23  C   UNL     1      -9.023   0.079  -5.505  0.00  0.00    +0.010 C 
ATOM     24  C   UNL     1      -7.173   1.211  -6.744  0.00  0.00    +0.010 C 
ENDBRANCH  21  22
ENDBRANCH  20  21
ENDBRANCH  18  20
ENDBRANCH   9  18
ENDBRANCH   1  10
BRANCH   4  25
ATOM     25  N   UNL     1      -1.196   1.392   0.595  0.00  0.00    -0.269 N 
ATOM     26  C   UNL     1      -0.244   0.732   1.284  0.00  0.00    +0.308 C 
ATOM     27  O   UNL     1      -0.498  -0.342   1.795  0.00  0.00    -0.252 OA
ATOM     28  N   UNL     1       0.990   1.260   1.403  0.00  0.00    -0.269 N 
ATOM     29  H   UNL     1      -0.977   2.215   0.132  0.00  0.00    +0.156 HD
ATOM     30  H   UNL     1       1.215   2.078   0.931  0.00  0.00    +0.156 HD
BRANCH  28  31
ATOM     31  C   UNL     1       1.944   0.632   2.205  0.00  0.00    +0.042 A 
ATOM     32  C   UNL     1       1.551  -0.187   3.242  0.00  0.00    +0.024 A 
ATOM     33  C   UNL     1       2.494  -0.823   4.043  0.00  0.00    +0.002 A 
ATOM     34  C   UNL     1       3.828  -0.647   3.834  0.00  0.00    +0.008 A 
ATOM     35  C   UNL     1       4.271   0.184   2.791  0.00  0.00    -0.016 A 
ATOM     36  C   UNL     1       3.320   0.833   1.965  0.00  0.00    +0.003 A 
ATOM     37  C   UNL     1       3.764   1.662   0.923  0.00  0.00    +0.010 A 
ATOM     38  C   UNL     1       5.099   1.833   0.720  0.00  0.00    +0.001 A 
ATOM     39  C   UNL     1       6.035   1.196   1.532  0.00  0.00    +0.001 A 
ATOM     40  C   UNL     1       5.641   0.385   2.551  0.00  0.00    +0.008 A 
ENDBRANCH  28  31
ENDBRANCH   4  25
TORSDOF 8
