REMARK  Name = ZINC05023001
REMARK  8 active torsions:
REMARK  status: ('A' for Active; 'I' for Inactive)
REMARK    1  A    between atoms: C_1  and  O_2
REMARK    2  A    between atoms: O_2  and  C_3
REMARK    3  A    between atoms: C_5  and  C_21
REMARK    4  A    between atoms: C_8  and  O_9
REMARK    5  A    between atoms: O_9  and  C_10
REMARK    6  A    between atoms: C_10  and  C_11
REMARK    7  A    between atoms: N_22  and  N_23
REMARK    8  A    between atoms: C_24  and  C_25
REMARK                            x       y       z     vdW  Elec       q    Type
REMARK                         _______ _______ _______ _____ _____    ______ ____
ROOT
ATOM      1  C   UNL     1      -1.530   0.411   1.148  0.00  0.00    +0.162 A 
ATOM      2  C   UNL     1      -2.810   0.915   1.025  0.00  0.00    +0.059 A 
ATOM      3  C   UNL     1      -3.882   0.044   0.798  0.00  0.00    -0.002 A 
ATOM      4  C   UNL     1      -3.651  -1.332   0.698  0.00  0.00    +0.013 A 
ATOM      5  C   UNL     1      -2.370  -1.826   0.822  0.00  0.00    +0.050 A 
ATOM      6  C   UNL     1      -1.307  -0.961   1.041  0.00  0.00    +0.162 A 
ENDROOT
BRANCH   1   8
ATOM      7  C   UNL     1      -0.787   2.647   1.466  0.00  0.00    +0.277 C 
ATOM      8  O   UNL     1      -0.486   1.254   1.368  0.00  0.00    -0.491 OA
ENDBRANCH   1   8
BRANCH   3   9
ATOM      9  C   UNL     1      -5.247   0.574   0.666  0.00  0.00    +0.140 C 
ATOM     10  N   UNL     1      -6.247  -0.241   0.455  0.00  0.00    -0.180 NA
BRANCH  10  11
ATOM     11  N   UNL     1      -7.445   0.224   0.339  0.00  0.00    -0.263 N 
ATOM     12  C   UNL     1      -8.451  -0.596   0.126  0.00  0.00    +0.143 C 
ATOM     13  N   UNL     1      -9.732  -0.099   0.003  0.00  0.00    -0.342 N 
ATOM     14  H   UNL     1      -9.877   0.859  -0.046  0.00  0.00    +0.144 HD
ATOM     15  H   UNL     1     -10.486  -0.707  -0.035  0.00  0.00    +0.144 HD
ATOM     16  H   UNL     1      -7.604   1.178   0.410  0.00  0.00    +0.190 HD
BRANCH  12  17
ATOM     17  C   UNL     1      -8.209  -2.049   0.019  0.00  0.00    +0.187 A 
ATOM     18  C   UNL     1      -9.090  -3.022  -0.639  0.00  0.00    +0.191 A 
ATOM     19  N   UNL     1      -8.548  -4.204  -0.532  0.00  0.00    -0.033 NA
ATOM     20  O   UNL     1      -7.330  -4.064   0.177  0.00  0.00    -0.240 OA
ATOM     21  N   UNL     1      -7.169  -2.691   0.490  0.00  0.00    -0.044 NA
ATOM     22  N   UNL     1     -10.294  -2.735  -1.267  0.00  0.00    -0.339 N 
ATOM     23  H   UNL     1     -10.566  -1.812  -1.395  0.00  0.00    +0.144 HD
ATOM     24  H   UNL     1     -10.864  -3.456  -1.578  0.00  0.00    +0.144 HD
ENDBRANCH  12  17
ENDBRANCH  10  11
ENDBRANCH   3   9
BRANCH   6  25
ATOM     25  O   UNL     1      -0.046  -1.453   1.158  0.00  0.00    -0.484 OA
BRANCH  25  26
ATOM     26  C   UNL     1       0.111  -2.869   1.038  0.00  0.00    +0.265 C 
BRANCH  26  27
ATOM     27  C   UNL     1       1.567  -3.227   1.193  0.00  0.00    -0.003 A 
ATOM     28  C   UNL     1       2.491  -2.253   1.417  0.00  0.00    +0.007 A 
ATOM     29  C   UNL     1       3.841  -2.565   1.563  0.00  0.00    +0.001 A 
ATOM     30  C   UNL     1       4.275  -3.853   1.486  0.00  0.00    +0.008 A 
ATOM     31  C   UNL     1       3.350  -4.886   1.256  0.00  0.00    -0.018 A 
ATOM     32  C   UNL     1       1.976  -4.569   1.114  0.00  0.00    -0.011 A 
ATOM     33  C   UNL     1       1.050  -5.603   0.890  0.00  0.00    +0.009 A 
ATOM     34  C   UNL     1       1.483  -6.891   0.819  0.00  0.00    +0.001 A 
ATOM     35  C   UNL     1       2.834  -7.203   0.966  0.00  0.00    +0.001 A 
ATOM     36  C   UNL     1       3.760  -6.228   1.170  0.00  0.00    +0.008 A 
ENDBRANCH  26  27
ENDBRANCH  25  26
ENDBRANCH   6  25
TORSDOF 7
