REMARK  Name = ZINC63994057
REMARK  11 active torsions:
REMARK  status: ('A' for Active; 'I' for Inactive)
REMARK    1  A    between atoms: C_1  and  C_2
REMARK    2  A    between atoms: C_4  and  C_33
REMARK    3  A    between atoms: C_5  and  N_9
REMARK    4  A    between atoms: C_6  and  C_8
REMARK    5  A    between atoms: C_10  and  C_12
REMARK    6  A    between atoms: C_12  and  N_13
REMARK    7  A    between atoms: N_13  and  C_14
REMARK    8  A    between atoms: C_15  and  C_17
REMARK    9  A    between atoms: C_17  and  C_19
REMARK   10  A    between atoms: C_17  and  N_29
REMARK   11  A    between atoms: C_19  and  C_20
REMARK                            x       y       z     vdW  Elec       q    Type
REMARK                         _______ _______ _______ _____ _____    ______ ____
ROOT
ATOM      1  C   UNL     1       2.646  -7.689   3.821  0.00  0.00    +0.165 C 
ENDROOT
BRANCH   1   2
ATOM      2  N   UNL     1       4.063  -7.361   4.001  0.00  0.00    -0.288 N 
ATOM      3  C   UNL     1       4.978  -7.824   3.127  0.00  0.00    +0.298 C 
ATOM      4  O   UNL     1       4.628  -8.514   2.189  0.00  0.00    -0.253 OA
ATOM      5  N   UNL     1       6.281  -7.521   3.292  0.00  0.00    -0.313 N 
ATOM      6  H   UNL     1       4.341  -6.809   4.749  0.00  0.00    +0.151 HD
ATOM      7  H   UNL     1       6.560  -6.970   4.040  0.00  0.00    +0.146 HD
ATOM      8  H   UNL     1       6.940  -7.854   2.663  0.00  0.00    +0.146 HD
ENDBRANCH   1   2
BRANCH   1  11
ATOM      9  N   UNL     1       0.858  -6.983   2.265  0.00  0.00    -0.294 N 
ATOM     10  C   UNL     1      -0.114  -7.292   3.317  0.00  0.00    +0.132 C 
ATOM     11  C   UNL     1       2.174  -7.167   2.489  0.00  0.00    +0.236 C 
ATOM     12  O   UNL     1       2.979  -6.912   1.618  0.00  0.00    -0.274 OA
BRANCH   9  13
ATOM     13  C   UNL     1       0.399  -6.476   0.969  0.00  0.00    +0.203 C 
BRANCH  13  15
ATOM     14  N   UNL     1      -0.052  -4.280  -0.077  0.00  0.00    -0.284 N 
ATOM     15  C   UNL     1       0.345  -4.970   1.011  0.00  0.00    +0.235 C 
ATOM     16  O   UNL     1       0.659  -4.380   2.022  0.00  0.00    -0.274 OA
ATOM     17  H   UNL     1      -0.370  -4.753  -0.862  0.00  0.00    +0.155 HD
BRANCH  14  22
ATOM     18  C   UNL     1       0.136   1.390  -0.065  0.00  0.00    +0.044 C 
ATOM     19  C   UNL     1       0.086  -0.116  -0.068  0.00  0.00    -0.050 A 
ATOM     20  C   UNL     1       0.759  -0.827  -1.045  0.00  0.00    +0.008 A 
ATOM     21  C   UNL     1       0.715  -2.207  -1.051  0.00  0.00    -0.029 A 
ATOM     22  C   UNL     1      -0.005  -2.882  -0.074  0.00  0.00    +0.039 A 
ATOM     23  C   UNL     1      -0.679  -2.165   0.906  0.00  0.00    -0.029 A 
ATOM     24  C   UNL     1      -0.628  -0.785   0.909  0.00  0.00    +0.008 A 
ATOM     25  C   UNL     1      -1.463  -2.893   1.968  0.00  0.00    +0.045 C 
ATOM     26  C   UNL     1       1.448  -2.981  -2.116  0.00  0.00    +0.045 C 
ENDBRANCH  14  22
ENDBRANCH  13  15
ENDBRANCH   9  13
ENDBRANCH   1  11
BRANCH   1  27
ATOM     27  C   UNL     1       2.466  -9.208   3.867  0.00  0.00    +0.065 C 
BRANCH  27  28
ATOM     28  C   UNL     1       2.822  -9.715   5.240  0.00  0.00    -0.039 C 
ATOM     29  C   UNL     1       1.972  -9.951   6.266  0.00  0.00    -0.001 A 
ATOM     30  C   UNL     1       0.517  -9.810   6.404  0.00  0.00    +0.010 A 
ATOM     31  C   UNL     1      -0.064 -10.132   7.582  0.00  0.00    +0.001 A 
ATOM     32  C   UNL     1       0.687 -10.594   8.672  0.00  0.00    +0.002 A 
ATOM     33  C   UNL     1       2.026 -10.750   8.621  0.00  0.00    +0.026 A 
ATOM     34  C   UNL     1       2.741 -10.442   7.431  0.00  0.00    +0.043 A 
ATOM     35  N   UNL     1       4.017 -10.507   7.138  0.00  0.00    -0.380 N 
ATOM     36  C   UNL     1       4.201 -10.070   5.749  0.00  0.00    +0.144 C 
ATOM     37  H   UNL     1       4.722 -10.799   7.737  0.00  0.00    +0.160 HD
ENDBRANCH  27  28
ENDBRANCH   1  27
TORSDOF 7
