REMARK  Name = ZINC38818463
REMARK  4 active torsions:
REMARK  status: ('A' for Active; 'I' for Inactive)
REMARK    1  A    between atoms: C_7  and  C_10
REMARK    2  A    between atoms: N_11  and  N_12
REMARK    3  A    between atoms: C_13  and  C_15
REMARK    4  A    between atoms: C_15  and  N_16
REMARK                            x       y       z     vdW  Elec       q    Type
REMARK                         _______ _______ _______ _____ _____    ______ ____
ROOT
ATOM      1  C   UNL     1       4.480  -6.068  -0.377  0.00  0.00    +0.202 C 
ENDROOT
BRANCH   1   2
ATOM      2  N   UNL     1       4.737  -7.489  -0.626  0.00  0.00    -0.309 N 
ATOM      3  C   UNL     1       4.830  -8.395   0.508  0.00  0.00    +0.031 C 
ATOM      4  N   UNL     1       5.624  -9.569   0.196  0.00  0.00    +0.398 N 
ATOM      5  C   UNL     1       5.283 -10.233  -1.032  0.00  0.00    +0.011 C 
ATOM      6  C   UNL     1       5.195  -9.330  -2.267  0.00  0.00    +0.098 C 
ATOM      7  C   UNL     1       4.871  -7.906  -1.886  0.00  0.00    +0.221 C 
ATOM      8  O   UNL     1       4.748  -7.091  -2.776  0.00  0.00    -0.275 OA
ATOM      9  C   UNL     1       4.104  -9.798  -3.208  0.00  0.00    -0.049 C 
ATOM     10  C   UNL     1       3.155 -10.579  -2.704  0.00  0.00    -0.016 C 
ATOM     11  S   UNL     1       3.558 -10.869  -0.978  0.00  0.00    -0.144 S 
ATOM     12  C   UNL     1       1.969 -11.144  -3.434  0.00  0.00    +0.042 C 
ATOM     13  C   UNL     1       1.810 -10.400  -4.766  0.00  0.00    +0.005 C 
ATOM     14  C   UNL     1       3.177 -10.334  -5.454  0.00  0.00    +0.005 C 
ATOM     15  C   UNL     1       4.092  -9.387  -4.677  0.00  0.00    +0.032 C 
ATOM     16  H   UNL     1       6.593  -9.292   0.148  0.00  0.00    -0.082 HD
ATOM     17  H   UNL     1       5.524 -10.229   0.953  0.00  0.00    -0.082 HD
ENDBRANCH   1   2
BRANCH   1  19
ATOM     18  N   UNL     1       2.519  -4.578  -0.146  0.00  0.00    -0.206 N 
ATOM     19  C   UNL     1       2.994  -5.822  -0.360  0.00  0.00    +0.249 C 
ATOM     20  O   UNL     1       2.224  -6.741  -0.540  0.00  0.00    -0.272 OA
ATOM     21  H   UNL     1       3.135  -3.842  -0.003  0.00  0.00    +0.177 HD
BRANCH  18  23
ATOM     22  C   UNL     1       0.678  -3.126  -0.046  0.00  0.00    +0.136 C 
ATOM     23  N   UNL     1       1.137  -4.349  -0.132  0.00  0.00    -0.188 NA
BRANCH  22  30
ATOM     24  C   UNL     1      -0.047   1.346  -0.234  0.00  0.00    +0.001 A 
ATOM     25  C   UNL     1       1.125   2.098  -0.345  0.00  0.00    +0.002 A 
ATOM     26  C   UNL     1       2.348   1.516  -0.389  0.00  0.00    +0.026 A 
ATOM     27  C   UNL     1       2.459   0.102  -0.322  0.00  0.00    +0.043 A 
ATOM     28  N   UNL     1       3.509  -0.692  -0.346  0.00  0.00    -0.380 N 
ATOM     29  C   UNL     1       3.064  -2.085  -0.246  0.00  0.00    +0.150 C 
ATOM     30  C   UNL     1       1.555  -2.038  -0.156  0.00  0.00    +0.000 C 
ATOM     31  C   UNL     1       1.219  -0.687  -0.205  0.00  0.00    +0.004 A 
ATOM     32  C   UNL     1      -0.019  -0.009  -0.165  0.00  0.00    +0.010 A 
ATOM     33  H   UNL     1       4.431  -0.400  -0.418  0.00  0.00    +0.160 HD
ENDBRANCH  22  30
ENDBRANCH  18  23
ENDBRANCH   1  19
TORSDOF 4
