REMARK  Name = ZINC40400491
REMARK  6 active torsions:
REMARK  status: ('A' for Active; 'I' for Inactive)
REMARK    1  A    between atoms: C_1  and  C_2
REMARK    2  A    between atoms: C_5  and  N_8
REMARK    3  A    between atoms: C_21  and  C_23
REMARK    4  A    between atoms: N_25  and  C_26
REMARK    5  A    between atoms: C_29  and  C_35
REMARK    6  A    between atoms: C_30  and  N_32
REMARK                            x       y       z     vdW  Elec       q    Type
REMARK                         _______ _______ _______ _____ _____    ______ ____
ROOT
ATOM      1  N   UNL     1      -0.102  -4.420  -0.390  0.00  0.00    -0.285 N 
ATOM      2  C   UNL     1       0.050  -5.045   0.821  0.00  0.00    +0.202 A 
ATOM      3  N   UNL     1       0.185  -6.399   0.858  0.00  0.00    -0.295 N 
ATOM      4  H   UNL     1       0.186  -6.909   0.033  0.00  0.00    +0.172 HD
ATOM      5  C   UNL     1       0.318  -7.032   2.043  0.00  0.00    +0.258 A 
ATOM      6  O   UNL     1       0.424  -8.248   2.091  0.00  0.00    -0.267 OA
ATOM      7  C   UNL     1       0.332  -6.268   3.214  0.00  0.00    +0.069 A 
ATOM      8  C   UNL     1       0.211  -4.893   3.122  0.00  0.00    +0.138 A 
ATOM      9  N   UNL     1       0.066  -4.321   1.920  0.00  0.00    -0.200 NA
ATOM     10  N   UNL     1       0.266  -4.110   4.262  0.00  0.00    -0.270 N 
ATOM     11  C   UNL     1       0.690  -4.620   5.431  0.00  0.00    +0.219 C 
ATOM     12  O   UNL     1       0.626  -3.945   6.436  0.00  0.00    -0.275 OA
ATOM     13  C   UNL     1       1.242  -6.019   5.506  0.00  0.00    +0.114 C 
ATOM     14  C   UNL     1       0.465  -6.933   4.557  0.00  0.00    +0.122 C 
ATOM     15  H   UNL     1      -0.195  -4.947  -1.200  0.00  0.00    +0.155 HD
ATOM     16  H   UNL     1      -0.006  -3.180   4.216  0.00  0.00    +0.156 HD
ENDROOT
BRANCH   1  21
ATOM     17  C   UNL     1      -0.185   1.245  -0.669  0.00  0.00    +0.044 C 
ATOM     18  C   UNL     1      -0.163  -0.260  -0.595  0.00  0.00    -0.050 A 
ATOM     19  C   UNL     1       0.615  -0.893   0.358  0.00  0.00    +0.005 A 
ATOM     20  C   UNL     1       0.638  -2.272   0.428  0.00  0.00    +0.023 A 
ATOM     21  C   UNL     1      -0.123  -3.023  -0.459  0.00  0.00    +0.034 A 
ATOM     22  C   UNL     1      -0.903  -2.385  -1.414  0.00  0.00    +0.023 A 
ATOM     23  C   UNL     1      -0.925  -1.005  -1.476  0.00  0.00    +0.005 A 
ENDBRANCH   1  21
BRANCH  14  24
ATOM     24  C   UNL     1       1.202  -8.238   4.401  0.00  0.00    +0.225 C 
ATOM     25  O   UNL     1       2.361  -8.240   4.045  0.00  0.00    -0.275 OA
ATOM     26  N   UNL     1       0.574  -9.402   4.657  0.00  0.00    -0.285 N 
ATOM     27  H   UNL     1      -0.331  -9.398   5.008  0.00  0.00    +0.155 HD
BRANCH  26  28
ATOM     28  C   UNL     1       1.225 -10.617   4.417  0.00  0.00    +0.036 A 
ATOM     29  C   UNL     1       0.507 -11.712   3.954  0.00  0.00    +0.024 A 
ATOM     30  C   UNL     1       1.153 -12.909   3.718  0.00  0.00    +0.007 A 
ATOM     31  C   UNL     1       2.514 -13.018   3.942  0.00  0.00    -0.020 A 
ATOM     32  C   UNL     1       3.231 -11.930   4.403  0.00  0.00    +0.131 A 
ATOM     33  C   UNL     1       2.592 -10.728   4.635  0.00  0.00    +0.056 A 
ATOM     34  C   UNL     1       3.216 -14.327   3.683  0.00  0.00    +0.046 C 
BRANCH  32  35
ATOM     35  N   UNL     1       4.687 -12.052   4.641  0.00  0.00    +0.057 N 
ATOM     36  O   UNL     1       5.195 -11.483   5.580  0.00  0.00    -0.126 OA
ATOM     37  O   UNL     1       5.368 -12.719   3.898  0.00  0.00    -0.126 OA
ENDBRANCH  32  35
ENDBRANCH  26  28
ENDBRANCH  14  24
TORSDOF 4
