REMARK  Name = ZINC39550987
REMARK  9 active torsions:
REMARK  status: ('A' for Active; 'I' for Inactive)
REMARK    1  A    between atoms: C_1  and  C_2
REMARK    2  A    between atoms: C_2  and  C_4
REMARK    3  A    between atoms: C_6  and  C_10
REMARK    4  A    between atoms: N_12  and  C_13
REMARK    5  A    between atoms: N_23  and  C_24
REMARK    6  A    between atoms: C_27  and  C_30
REMARK    7  A    between atoms: C_30  and  C_31
REMARK    8  A    between atoms: C_30  and  C_32
REMARK    9  A    between atoms: C_30  and  C_33
REMARK                            x       y       z     vdW  Elec       q    Type
REMARK                         _______ _______ _______ _____ _____    ______ ____
ROOT
ATOM      1  C   UNL     1      -6.171  -0.534   2.518  0.00  0.00    +0.102 C 
ATOM      2  C   UNL     1      -5.599   0.513   3.489  0.00  0.00    +0.027 C 
ATOM      3  C   UNL     1      -6.554   0.716   4.663  0.00  0.00    +0.004 C 
ATOM      4  C   UNL     1      -7.894   1.290   4.192  0.00  0.00    +0.029 C 
ATOM      5  C   UNL     1      -8.581   0.254   3.300  0.00  0.00    +0.123 C 
ATOM      6  C   UNL     1      -7.586  -0.112   2.207  0.00  0.00    -0.013 C 
ATOM      7  C   UNL     1      -8.186   0.035   1.058  0.00  0.00    +0.091 C 
ATOM      8  N   UNL     1      -9.472   0.527   1.214  0.00  0.00    -0.271 N 
ATOM      9  N   UNL     1      -9.727   0.818   2.582  0.00  0.00    -0.246 N 
ATOM     10  H   UNL     1     -10.109   0.654   0.494  0.00  0.00    +0.169 HD
ENDROOT
BRANCH   9  11
ATOM     11  C   UNL     1     -10.821   1.491   3.130  0.00  0.00    +0.048 A 
ATOM     12  C   UNL     1     -11.747   2.108   2.298  0.00  0.00    +0.025 A 
ATOM     13  C   UNL     1     -12.828   2.772   2.844  0.00  0.00    +0.006 A 
ATOM     14  C   UNL     1     -12.990   2.823   4.216  0.00  0.00    -0.042 A 
ATOM     15  C   UNL     1     -12.070   2.211   5.047  0.00  0.00    +0.006 A 
ATOM     16  C   UNL     1     -10.989   1.540   4.508  0.00  0.00    +0.025 A 
BRANCH  14  17
ATOM     17  C   UNL     1     -14.171   3.549   4.807  0.00  0.00    -0.013 C 
ATOM     18  C   UNL     1     -15.466   2.909   4.306  0.00  0.00    +0.015 C 
ATOM     19  C   UNL     1     -14.114   3.457   6.333  0.00  0.00    +0.015 C 
ATOM     20  C   UNL     1     -14.130   5.019   4.383  0.00  0.00    +0.015 C 
ENDBRANCH  14  17
ENDBRANCH   9  11
BRANCH   1  23
ATOM     21  C   UNL     1      -4.272  -1.337   1.219  0.00  0.00    +0.244 C 
ATOM     22  O   UNL     1      -3.939  -2.007   2.174  0.00  0.00    -0.273 OA
ATOM     23  N   UNL     1      -5.375  -0.565   1.289  0.00  0.00    -0.307 N 
ATOM     24  H   UNL     1      -5.641  -0.030   0.525  0.00  0.00    +0.149 HD
BRANCH  21  27
ATOM     25  C   UNL     1      -1.297  -0.690  -0.144  0.00  0.00    +0.126 C 
ATOM     26  C   UNL     1      -2.543  -0.157  -0.126  0.00  0.00    +0.043 C 
ATOM     27  C   UNL     1      -3.454  -1.369  -0.046  0.00  0.00    +0.238 C 
ATOM     28  N   UNL     1      -2.511  -2.499  -0.030  0.00  0.00    -0.170 NA
ATOM     29  N   UNL     1      -1.366  -2.048  -0.091  0.00  0.00    -0.150 NA
BRANCH  25  31
ATOM     30  C   UNL     1      -0.104   1.593  -0.271  0.00  0.00    +0.093 C 
ATOM     31  C   UNL     1      -0.051   0.088  -0.217  0.00  0.00    +0.180 C 
ATOM     32  O   UNL     1       1.019  -0.482  -0.233  0.00  0.00    -0.291 OA
ENDBRANCH  25  31
ENDBRANCH  21  27
ENDBRANCH   1  23
TORSDOF 5
