REMARK  Name = ZINC00302467
REMARK  5 active torsions:
REMARK  status: ('A' for Active; 'I' for Inactive)
REMARK    1  A    between atoms: C_1  and  C_2
REMARK    2  A    between atoms: C_2  and  O_3
REMARK    3  A    between atoms: O_3  and  C_4
REMARK    4  A    between atoms: C_11  and  C_20
REMARK    5  A    between atoms: C_23  and  N_26
REMARK                            x       y       z     vdW  Elec       q    Type
REMARK                         _______ _______ _______ _____ _____    ______ ____
ROOT
ATOM      1  C   UNL     1      -0.849   1.130  -3.534  0.00  0.00    +0.142 A 
ATOM      2  C   UNL     1      -0.265   0.770  -4.734  0.00  0.00    +0.047 A 
ATOM      3  C   UNL     1       1.091   0.500  -4.783  0.00  0.00    +0.004 A 
ATOM      4  C   UNL     1       1.854   0.587  -3.637  0.00  0.00    +0.006 A 
ATOM      5  C   UNL     1       1.278   0.947  -2.425  0.00  0.00    -0.016 A 
ATOM      6  C   UNL     1      -0.076   1.221  -2.372  0.00  0.00    +0.074 A 
ATOM      7  N   UNL     1      -0.720   1.571  -1.178  0.00  0.00    -0.334 N 
ATOM      8  C   UNL     1      -0.013   1.086   0.008  0.00  0.00    +0.105 C 
ATOM      9  C   UNL     1       1.423   1.616  -0.003  0.00  0.00    +0.029 C 
ATOM     10  C   UNL     1       2.166   1.020  -1.218  0.00  0.00    +0.049 C 
ATOM     11  C   UNL     1       2.579  -0.359  -0.757  0.00  0.00    -0.023 C 
ATOM     12  C   UNL     1       2.592  -0.420   0.551  0.00  0.00    -0.030 C 
ATOM     13  C   UNL     1       2.196   0.915   1.150  0.00  0.00    +0.033 C 
ATOM     14  H   UNL     1      -1.682   1.269  -1.173  0.00  0.00    +0.147 HD
ENDROOT
BRANCH   8  15
ATOM     15  C   UNL     1      -0.718   1.572   1.248  0.00  0.00    -0.027 A 
ATOM     16  C   UNL     1      -1.223   2.858   1.296  0.00  0.00    +0.008 A 
ATOM     17  C   UNL     1      -1.875   3.302   2.431  0.00  0.00    +0.033 A 
ATOM     18  C   UNL     1      -2.013   2.464   3.522  0.00  0.00    +0.126 A 
ATOM     19  C   UNL     1      -1.503   1.180   3.476  0.00  0.00    +0.033 A 
ATOM     20  C   UNL     1      -0.856   0.734   2.338  0.00  0.00    +0.008 A 
BRANCH  18  21
ATOM     21  N   UNL     1      -2.706   2.941   4.739  0.00  0.00    +0.056 N 
ATOM     22  O   UNL     1      -2.828   2.203   5.700  0.00  0.00    -0.126 OA
ATOM     23  O   UNL     1      -3.156   4.073   4.780  0.00  0.00    -0.126 OA
ENDBRANCH  18  21
ENDBRANCH   8  15
BRANCH   1  24
ATOM     24  O   UNL     1      -2.182   1.397  -3.483  0.00  0.00    -0.490 OA
BRANCH  24  26
ATOM     25  C   UNL     1      -4.384   1.622  -4.452  0.00  0.00    +0.048 C 
ATOM     26  C   UNL     1      -2.913   1.286  -4.705  0.00  0.00    +0.226 C 
ENDBRANCH  24  26
ENDBRANCH   1  24
TORSDOF 4
