REMARK  Name = ZINC20613917
REMARK  13 active torsions:
REMARK  status: ('A' for Active; 'I' for Inactive)
REMARK    1  A    between atoms: C_1  and  C_2
REMARK    2  A    between atoms: C_5  and  N_9
REMARK    3  A    between atoms: C_6  and  C_8
REMARK    4  A    between atoms: N_9  and  C_10
REMARK    5  A    between atoms: C_10  and  N_12
REMARK    6  A    between atoms: N_12  and  N_13
REMARK    7  A    between atoms: C_14  and  C_16
REMARK    8  A    between atoms: C_16  and  S_17
REMARK    9  A    between atoms: S_17  and  C_18
REMARK   10  A    between atoms: C_21  and  C_30
REMARK   11  A    between atoms: N_22  and  C_23
REMARK   12  A    between atoms: C_23  and  C_24
REMARK   13  A    between atoms: N_33  and  C_35
REMARK                            x       y       z     vdW  Elec       q    Type
REMARK                         _______ _______ _______ _____ _____    ______ ____
ROOT
ATOM      1  C   UNL     1       7.274  -0.034   0.237  0.00  0.00    +0.174 C 
ENDROOT
BRANCH   1   3
ATOM      2  N   UNL     1       4.804  -0.163   0.158  0.00  0.00    -0.234 N 
ATOM      3  C   UNL     1       5.983  -0.811   0.245  0.00  0.00    +0.239 C 
ATOM      4  O   UNL     1       6.004  -2.021   0.330  0.00  0.00    -0.273 OA
ATOM      5  H   UNL     1       4.785   0.934   0.081  0.00  0.00    +0.173 HD
BRANCH   2   6
ATOM      6  N   UNL     1       3.605  -0.886   0.166  0.00  0.00    -0.246 N 
ATOM      7  H   UNL     1       3.624  -1.983   0.243  0.00  0.00    +0.172 HD
BRANCH   6   8
ATOM      8  C   UNL     1       2.426  -0.237   0.079  0.00  0.00    +0.151 C 
ATOM      9  S   UNL     1       0.960  -1.121   0.089  0.00  0.00    -0.017 S 
BRANCH   8  10
ATOM     10  N   UNL     1       2.402   1.107  -0.015  0.00  0.00    -0.296 N 
ATOM     11  H   UNL     1       3.344   1.669  -0.093  0.00  0.00    +0.154 HD
BRANCH  10  16
ATOM     12  C   UNL     1      -2.555   3.864  -0.011  0.00  0.00    +0.044 C 
ATOM     13  C   UNL     1      -1.238   3.131  -0.012  0.00  0.00    -0.050 A 
ATOM     14  C   UNL     1      -1.062   2.030  -0.829  0.00  0.00    +0.005 A 
ATOM     15  C   UNL     1       0.142   1.353  -0.829  0.00  0.00    +0.024 A 
ATOM     16  C   UNL     1       1.180   1.786  -0.013  0.00  0.00    +0.036 A 
ATOM     17  C   UNL     1       1.001   2.896   0.802  0.00  0.00    -0.029 A 
ATOM     18  C   UNL     1      -0.207   3.565   0.801  0.00  0.00    +0.008 A 
ATOM     19  C   UNL     1       2.124   3.369   1.688  0.00  0.00    +0.045 C 
ENDBRANCH  10  16
ENDBRANCH   8  10
ENDBRANCH   6   8
ENDBRANCH   2   6
ENDBRANCH   1   3
BRANCH   1  20
ATOM     20  S   UNL     1       8.669  -1.179   0.366  0.00  0.00    -0.077 S 
BRANCH  20  21
ATOM     21  C   UNL     1      10.008  -0.034   0.334  0.00  0.00    +0.192 A 
ATOM     22  N   UNL     1       9.915   1.272   0.234  0.00  0.00    -0.122 NA
ATOM     23  N   UNL     1      11.086   1.801   0.243  0.00  0.00    -0.127 NA
ATOM     24  C   UNL     1      12.000   0.864   0.341  0.00  0.00    +0.185 A 
ATOM     25  N   UNL     1      11.338  -0.341   0.402  0.00  0.00    -0.298 N 
BRANCH  24  26
ATOM     26  C   UNL     1      13.464   1.065   0.378  0.00  0.00    +0.130 A 
ATOM     27  C   UNL     1      14.134   2.304   0.309  0.00  0.00    +0.052 A 
ATOM     28  C   UNL     1      15.461   2.061   0.377  0.00  0.00    +0.108 A 
ATOM     29  N   UNL     1      15.637   0.726   0.476  0.00  0.00    -0.274 N 
ATOM     30  N   UNL     1      14.375   0.117   0.475  0.00  0.00    -0.168 NA
ATOM     31  C   UNL     1      16.925   0.034   0.570  0.00  0.00    +0.172 C 
ENDBRANCH  24  26
BRANCH  25  32
ATOM     32  C   UNL     1      11.935  -1.674   0.516  0.00  0.00    +0.157 C 
BRANCH  32  33
ATOM     33  C   UNL     1      12.193  -2.238  -0.882  0.00  0.00    +0.138 C 
ATOM     34  C   UNL     1      12.874  -3.627  -0.784  0.00  0.00    +0.035 C 
ATOM     35  C   UNL     1      12.457  -4.256  -2.141  0.00  0.00    +0.031 C 
ATOM     36  C   UNL     1      11.047  -3.664  -2.357  0.00  0.00    +0.160 C 
ATOM     37  O   UNL     1      10.949  -2.478  -1.560  0.00  0.00    -0.375 OA
ENDBRANCH  32  33
ENDBRANCH  25  32
ENDBRANCH  20  21
ENDBRANCH   1  20
TORSDOF 10
