REMARK  Name = ZINC35270674
REMARK  10 active torsions:
REMARK  status: ('A' for Active; 'I' for Inactive)
REMARK    1  A    between atoms: C_1  and  C_2
REMARK    2  A    between atoms: C_6  and  C_33
REMARK    3  A    between atoms: C_7  and  C_32
REMARK    4  A    between atoms: C_13  and  C_17
REMARK    5  A    between atoms: C_18  and  C_31
REMARK    6  A    between atoms: C_23  and  C_29
REMARK    7  A    between atoms: C_23  and  C_30
REMARK    8  A    between atoms: C_25  and  O_28
REMARK    9  A    between atoms: C_33  and  O_35
REMARK   10  A    between atoms: O_35  and  C_36
REMARK                            x       y       z     vdW  Elec       q    Type
REMARK                         _______ _______ _______ _____ _____    ______ ____
ROOT
ATOM      1  C   UNL     1      -0.121   1.305   0.358  0.00  0.00    +0.060 C 
ATOM      2  C   UNL     1      -0.180  -0.222   0.204  0.00  0.00    +0.240 C 
ATOM      3  C   UNL     1       0.711  -0.652  -0.936  0.00  0.00    +0.192 C 
ATOM      4  O   UNL     1       1.007   0.166  -1.794  0.00  0.00    -0.292 OA
ATOM      5  C   UNL     1       1.257  -2.053  -1.035  0.00  0.00    +0.161 C 
ATOM      6  C   UNL     1       0.482  -2.926  -2.001  0.00  0.00    +0.062 C 
ATOM      7  C   UNL     1      -0.761  -3.571  -1.439  0.00  0.00    +0.022 C 
ATOM      8  C   UNL     1      -0.477  -4.372  -0.173  0.00  0.00    +0.037 C 
ATOM      9  C   UNL     1       0.345  -3.571   0.794  0.00  0.00    -0.058 C 
ATOM     10  C   UNL     1       0.116  -3.693   2.093  0.00  0.00    +0.009 C 
ATOM     11  C   UNL     1       1.448  -2.649   0.353  0.00  0.00    +0.109 C 
ATOM     12  C   UNL     1       1.445  -1.481   1.340  0.00  0.00    +0.319 C 
ATOM     13  O   UNL     1       2.413  -1.199   1.990  0.00  0.00    -0.250 OA
ATOM     14  O   UNL     1       0.280  -0.806   1.427  0.00  0.00    -0.453 OA
ATOM     15  C   UNL     1       2.806  -3.362   0.457  0.00  0.00    +0.029 C 
ATOM     16  C   UNL     1      -1.981  -2.707  -1.315  0.00  0.00    +0.016 C 
ATOM     17  C   UNL     1      -2.337  -2.394   0.104  0.00  0.00    -0.012 C 
ATOM     18  C   UNL     1      -3.240  -1.455   0.378  0.00  0.00    +0.044 C 
ATOM     19  C   UNL     1      -3.880  -0.693  -0.686  0.00  0.00    +0.166 C 
ATOM     20  O   UNL     1      -4.948  -0.138  -0.475  0.00  0.00    -0.292 OA
ATOM     21  C   UNL     1      -3.227  -0.543  -2.049  0.00  0.00    +0.053 C 
ATOM     22  C   UNL     1      -2.072  -1.509  -2.205  0.00  0.00    -0.002 C 
ATOM     23  C   UNL     1      -1.141  -1.282  -3.137  0.00  0.00    +0.161 C 
ATOM     24  C   UNL     1       0.081  -2.095  -3.212  0.00  0.00    +0.205 C 
ATOM     25  O   UNL     1       0.750  -2.132  -4.238  0.00  0.00    -0.288 OA
ATOM     26  C   UNL     1      -4.275  -0.775  -3.145  0.00  0.00    +0.024 C 
ATOM     27  C   UNL     1      -2.736   0.912  -2.145  0.00  0.00    +0.024 C 
ATOM     28  C   UNL     1      -3.124  -3.630  -1.785  0.00  0.00    +0.020 C 
ATOM     29  C   UNL     1       1.426  -4.043  -2.518  0.00  0.00    +0.021 C 
ENDROOT
BRANCH  23  30
ATOM     30  O   UNL     1      -1.318  -0.325  -4.098  0.00  0.00    -0.503 OA
ATOM     31  H   UNL     1      -0.580  -0.249  -4.718  0.00  0.00    +0.292 HD
ENDBRANCH  23  30
BRANCH   5  32
ATOM     32  C   UNL     1       2.667  -1.904  -1.631  0.00  0.00    +0.323 C 
ATOM     33  O   UNL     1       3.080  -0.811  -1.941  0.00  0.00    -0.250 OA
BRANCH  32  34
ATOM     34  O   UNL     1       3.440  -2.988  -1.806  0.00  0.00    -0.467 OA
ATOM     35  C   UNL     1       4.738  -2.776  -2.364  0.00  0.00    +0.280 C 
ENDBRANCH  32  34
ENDBRANCH   5  32
TORSDOF 3
