REMARK  Name = ZINC53199189
REMARK  8 active torsions:
REMARK  status: ('A' for Active; 'I' for Inactive)
REMARK    1  A    between atoms: C_1  and  C_2
REMARK    2  A    between atoms: C_7  and  O_8
REMARK    3  A    between atoms: O_8  and  C_9
REMARK    4  A    between atoms: C_9  and  C_10
REMARK    5  A    between atoms: C_9  and  C_11
REMARK    6  A    between atoms: C_9  and  C_14
REMARK    7  A    between atoms: C_11  and  O_12
REMARK    8  A    between atoms: O_12  and  C_13
REMARK                            x       y       z     vdW  Elec       q    Type
REMARK                         _______ _______ _______ _____ _____    ______ ____
ROOT
ATOM      1  C   UNL     1       0.790  -0.228   0.361  0.00  0.00    +0.047 C 
ATOM      2  C   UNL     1       1.071  -1.384   1.285  0.00  0.00    -0.006 A 
ATOM      3  C   UNL     1       1.527  -2.584   0.773  0.00  0.00    +0.022 A 
ATOM      4  C   UNL     1       1.785  -3.646   1.620  0.00  0.00    +0.020 A 
ATOM      5  C   UNL     1       1.587  -3.510   2.983  0.00  0.00    +0.039 A 
ATOM      6  C   UNL     1       1.132  -2.312   3.500  0.00  0.00    +0.084 A 
ATOM      7  C   UNL     1       0.877  -1.243   2.651  0.00  0.00    +0.143 A 
ATOM      8 CL   UNL     1       0.883  -2.142   5.210  0.00  0.00    -0.080 Cl
ATOM      9 BR   UNL     1       2.409  -5.286   0.916  0.00  0.00    -0.050 Br
ENDROOT
BRANCH   7  10
ATOM     10  O   UNL     1       0.434  -0.062   3.157  0.00  0.00    -0.471 OA
BRANCH  10  11
ATOM     11  C   UNL     1      -0.974   0.178   3.108  0.00  0.00    +0.230 C 
ATOM     12  C   UNL     1      -1.421   0.291   1.649  0.00  0.00    +0.070 C 
BRANCH  11  13
ATOM     13  C   UNL     1      -1.701  -0.964   3.769  0.00  0.00    +0.401 C 
ATOM     14  O   UNL     1      -1.274  -2.102   3.664  0.00  0.00    -0.242 OA
ATOM     15  O   UNL     1      -2.716  -0.751   4.410  0.00  0.00    -0.242 OA
ENDBRANCH  11  13
BRANCH  11  16
ATOM     16  C   UNL     1      -1.295   1.481   3.842  0.00  0.00    +0.219 C 
BRANCH  16  17
ATOM     17  O   UNL     1      -2.703   1.721   3.793  0.00  0.00    -0.378 OA
ATOM     18  C   UNL     1      -3.112   2.920   4.454  0.00  0.00    +0.194 C 
ENDBRANCH  16  17
ENDBRANCH  11  16
ENDBRANCH  10  11
ENDBRANCH   7  10
TORSDOF 5
