REMARK  Name = ZINC42439180
REMARK  4 active torsions:
REMARK  status: ('A' for Active; 'I' for Inactive)
REMARK    1  A    between atoms: C_1  and  C_2
REMARK    2  A    between atoms: C_6  and  C_19
REMARK    3  A    between atoms: N_9  and  C_10
REMARK    4  A    between atoms: CA_14  and  C_16
REMARK                            x       y       z     vdW  Elec       q    Type
REMARK                         _______ _______ _______ _____ _____    ______ ____
ROOT
ATOM      1  C   UNL     1      -0.010   1.539   0.027  0.00  0.00    +0.028 C 
ATOM      2  C   UNL     1       0.009   0.009   0.003  0.00  0.00    +0.070 C 
ATOM      3  C   UNL     1      -1.427  -0.523   0.007  0.00  0.00    +0.023 C 
ATOM      4  C   UNL     1      -2.101  -0.150   1.330  0.00  0.00    +0.016 C 
ATOM      5  C   UNL     1      -1.343  -0.797   2.491  0.00  0.00    +0.092 C 
ATOM      6  C   UNL     1       0.095  -0.269   2.515  0.00  0.00    +0.118 C 
ATOM      7  N   UNL     1       0.706  -0.494   1.195  0.00  0.00    -0.326 N 
ENDROOT
BRANCH   7   8
ATOM      8  C   UNL     1       1.917  -1.170   1.076  0.00  0.00    +0.033 A 
ATOM      9  C   UNL     1       2.440  -1.484  -0.177  0.00  0.00    +0.040 A 
ATOM     10  C   UNL     1       3.645  -2.157  -0.258  0.00  0.00    +0.085 A 
ATOM     11  N   UNL     1       4.303  -2.504   0.828  0.00  0.00    -0.355 N 
ATOM     12  CA  UNL     1       3.843  -2.226   2.044  0.00  0.00    +0.130 A 
ATOM     13  C   UNL     1       2.640  -1.546   2.208  0.00  0.00    +0.056 A 
ATOM     14  H   UNL     1       5.146  -2.975   0.739  0.00  0.00    +0.166 HD
BRANCH  12  15
ATOM     15  C   UNL     1       4.620  -2.638   3.233  0.00  0.00    +0.402 C 
ATOM     16  O   UNL     1       5.680  -3.231   3.095  0.00  0.00    -0.239 OA
ATOM     17  OXT UNL     1       4.203  -2.385   4.354  0.00  0.00    -0.239 OA
ENDBRANCH  12  15
ENDBRANCH   7   8
BRANCH   5  18
ATOM     18  C   UNL     1      -2.026  -0.457   3.790  0.00  0.00    +0.215 C 
ATOM     19  O   UNL     1      -1.424   0.147   4.652  0.00  0.00    -0.276 OA
ATOM     20  N   UNL     1      -3.307  -0.823   3.994  0.00  0.00    -0.329 N 
ATOM     21  H   UNL     1      -3.789  -1.306   3.304  0.00  0.00    +0.145 HD
ATOM     22  H   UNL     1      -3.747  -0.604   4.830  0.00  0.00    +0.145 HD
ENDBRANCH   5  18
TORSDOF 3
