REMARK  Name = ZINC05018474
REMARK  9 active torsions:
REMARK  status: ('A' for Active; 'I' for Inactive)
REMARK    1  A    between atoms: C_1  and  C_2
REMARK    2  A    between atoms: C_5  and  C_8
REMARK    3  A    between atoms: C_10  and  C_24
REMARK    4  A    between atoms: C_11  and  C_16
REMARK    5  A    between atoms: C_16  and  S_17
REMARK    6  A    between atoms: S_17  and  C_18
REMARK    7  A    between atoms: N_22  and  C_23
REMARK    8  A    between atoms: C_24  and  O_26
REMARK    9  A    between atoms: O_26  and  C_27
REMARK                            x       y       z     vdW  Elec       q    Type
REMARK                         _______ _______ _______ _____ _____    ______ ____
ROOT
ATOM      1  C   UNL     1       7.203   3.354  -1.148  0.00  0.00    +0.144 C 
ATOM      2  C   UNL     1       5.691   3.445  -1.192  0.00  0.00    +0.079 C 
ATOM      3  C   UNL     1       5.016   3.250  -0.039  0.00  0.00    +0.034 C 
ATOM      4  N   UNL     1       5.673   2.970   1.124  0.00  0.00    -0.272 N 
ATOM      5  C   UNL     1       7.006   2.873   1.219  0.00  0.00    +0.304 C 
ATOM      6  O   UNL     1       7.501   2.619   2.300  0.00  0.00    -0.252 OA
ATOM      7  N   UNL     1       7.815   3.047   0.156  0.00  0.00    -0.288 N 
ATOM      8  H   UNL     1       5.146   2.834   1.927  0.00  0.00    +0.156 HD
ATOM      9  H   UNL     1       8.778   2.973   0.247  0.00  0.00    +0.151 HD
ENDROOT
BRANCH   1  14
ATOM     10  C   UNL     1       9.358   8.390  -2.988  0.00  0.00    +0.044 C 
ATOM     11  C   UNL     1       8.796   7.077  -2.508  0.00  0.00    -0.050 A 
ATOM     12  C   UNL     1       8.597   6.042  -3.403  0.00  0.00    +0.004 A 
ATOM     13  C   UNL     1       8.082   4.837  -2.963  0.00  0.00    +0.006 A 
ATOM     14  C   UNL     1       7.765   4.667  -1.628  0.00  0.00    -0.022 A 
ATOM     15  C   UNL     1       7.959   5.704  -0.734  0.00  0.00    +0.006 A 
ATOM     16  C   UNL     1       8.480   6.907  -1.173  0.00  0.00    +0.004 A 
ENDBRANCH   1  14
BRANCH   2  17
ATOM     17  C   UNL     1       5.010   3.730  -2.399  0.00  0.00    +0.339 C 
ATOM     18  O   UNL     1       3.813   3.947  -2.385  0.00  0.00    -0.245 OA
BRANCH  17  19
ATOM     19  O   UNL     1       5.688   3.761  -3.565  0.00  0.00    -0.465 OA
ATOM     20  C   UNL     1       4.938   4.055  -4.745  0.00  0.00    +0.280 C 
ENDBRANCH  17  19
ENDBRANCH   2  17
BRANCH   3  21
ATOM     21  C   UNL     1       3.511   3.338  -0.037  0.00  0.00    +0.128 C 
BRANCH  21  22
ATOM     22  S   UNL     1       3.002   4.964   0.572  0.00  0.00    -0.079 S 
BRANCH  22  23
ATOM     23  C   UNL     1       1.251   4.795   0.471  0.00  0.00    +0.209 A 
ATOM     24  N   UNL     1       0.591   3.736   0.053  0.00  0.00    -0.102 NA
ATOM     25  N   UNL     1      -0.675   3.945   0.106  0.00  0.00    -0.022 NA
ATOM     26  N   UNL     1      -0.915   5.128   0.559  0.00  0.00    -0.043 NA
ATOM     27  N   UNL     1       0.331   5.730   0.808  0.00  0.00    -0.223 N 
ATOM     28  C   UNL     1       0.581   7.077   1.327  0.00  0.00    +0.177 C 
ENDBRANCH  22  23
ENDBRANCH  21  22
ENDBRANCH   3  21
TORSDOF 6
