REMARK  Name = ZINC65456112
REMARK  5 active torsions:
REMARK  status: ('A' for Active; 'I' for Inactive)
REMARK    1  A    between atoms: C_1  and  C_2
REMARK    2  A    between atoms: C_6  and  C_26
REMARK    3  A    between atoms: C_9  and  O_12
REMARK    4  A    between atoms: O_12  and  C_13
REMARK    5  A    between atoms: C_13  and  C_14
REMARK                            x       y       z     vdW  Elec       q    Type
REMARK                         _______ _______ _______ _____ _____    ______ ____
ROOT
ATOM      1  C   UNL     1      -3.535  -2.141  -1.106  0.00  0.00    +0.234 C 
ENDROOT
BRANCH   1   2
ATOM      2  C   UNL     1      -4.923  -2.717  -0.993  0.00  0.00    +0.134 A 
ATOM      3  N   UNL     1      -5.885  -2.540  -1.846  0.00  0.00    -0.225 NA
ATOM      4  C   UNL     1      -6.996  -3.214  -1.421  0.00  0.00    +0.146 A 
ATOM      5  H   UNL     1      -4.851  -3.806   0.779  0.00  0.00    +0.167 HD
ATOM      6  C   UNL     1      -6.673  -3.811  -0.243  0.00  0.00    +0.048 A 
ATOM      7  N   UNL     1      -5.368  -3.510   0.013  0.00  0.00    -0.343 N 
ATOM      8  C   UNL     1      -7.547  -4.640   0.644  0.00  0.00    +0.057 C 
ATOM      9  C   UNL     1      -8.572  -5.438  -0.118  0.00  0.00    +0.025 C 
ATOM     10  C   UNL     1      -9.701  -4.607  -0.664  0.00  0.00    +0.105 C 
ATOM     11  N   UNL     1      -9.375  -3.863  -1.851  0.00  0.00    -0.310 N 
ATOM     12  C   UNL     1      -8.255  -3.251  -2.161  0.00  0.00    +0.264 C 
ATOM     13  O   UNL     1      -8.268  -2.630  -3.206  0.00  0.00    -0.268 OA
ATOM     14  H   UNL     1     -10.079  -3.805  -2.515  0.00  0.00    +0.149 HD
ENDBRANCH   1   2
BRANCH   1  15
ATOM     15  O   UNL     1      -2.753  -2.558   0.015  0.00  0.00    -0.366 OA
BRANCH  15  24
ATOM     16  C   UNL     1      -0.019   1.526   0.010  0.00  0.00    +0.011 C 
ATOM     17  C   UNL     1       0.002  -0.004   0.002  0.00  0.00    -0.029 C 
ATOM     18  C   UNL     1       0.718  -0.497  -1.257  0.00  0.00    +0.010 C 
ATOM     19  C   UNL     1       0.739  -2.027  -1.265  0.00  0.00    -0.007 C 
ATOM     20  C   UNL     1       1.479  -2.534  -0.026  0.00  0.00    +0.010 C 
ATOM     21  C   UNL     1       0.763  -2.041   1.233  0.00  0.00    -0.029 C 
ATOM     22  C   UNL     1       0.742  -0.511   1.242  0.00  0.00    +0.013 C 
ATOM     23  C   UNL     1      -0.673  -2.570   1.244  0.00  0.00    +0.041 C 
ATOM     24  C   UNL     1      -1.413  -2.063   0.004  0.00  0.00    +0.071 C 
ATOM     25  C   UNL     1      -0.696  -2.557  -1.254  0.00  0.00    +0.038 C 
ATOM     26  C   UNL     1      -1.433  -0.534   0.013  0.00  0.00    +0.041 C 
ATOM     27  C   UNL     1       1.503  -2.548   2.473  0.00  0.00    +0.011 C 
ENDBRANCH  15  24
ENDBRANCH   1  15
TORSDOF 3
