REMARK  Name = ZINC13558602
REMARK  10 active torsions:
REMARK  status: ('A' for Active; 'I' for Inactive)
REMARK    1  A    between atoms: C_1  and  C_2
REMARK    2  A    between atoms: N_4  and  C_5
REMARK    3  A    between atoms: C_5  and  C_6
REMARK    4  A    between atoms: C_10  and  C_12
REMARK    5  A    between atoms: C_15  and  N_17
REMARK    6  A    between atoms: N_19  and  C_20
REMARK    7  A    between atoms: C_20  and  C_21
REMARK    8  A    between atoms: C_21  and  C_22
REMARK    9  A    between atoms: C_27  and  O_28
REMARK   10  A    between atoms: O_28  and  C_29
REMARK                            x       y       z     vdW  Elec       q    Type
REMARK                         _______ _______ _______ _____ _____    ______ ____
ROOT
ATOM      1  C   UNL     1      -5.490  -2.021   4.196  0.00  0.00    +0.099 A 
ATOM      2  C   UNL     1      -5.229  -1.950   2.856  0.00  0.00    +0.078 A 
ATOM      3  S   UNL     1      -6.501  -3.027   2.209  0.00  0.00    -0.056 S 
ATOM      4  C   UNL     1      -7.246  -3.459   3.776  0.00  0.00    +0.196 A 
ATOM      5  N   UNL     1      -6.489  -2.778   4.625  0.00  0.00    -0.220 NA
ENDROOT
BRANCH   4   6
ATOM      6  N   UNL     1      -8.303  -4.275   4.029  0.00  0.00    -0.189 NA
ATOM      7  C   UNL     1      -8.626  -4.567   5.271  0.00  0.00    +0.197 C 
ATOM      8  N   UNL     1      -9.773  -5.270   5.534  0.00  0.00    -0.356 N 
ATOM      9  N   UNL     1      -7.815  -4.169   6.302  0.00  0.00    -0.370 N 
ATOM     10  H   UNL     1      -6.978  -3.718   6.113  0.00  0.00    +0.159 HD
ATOM     11  H   UNL     1      -8.079  -4.339   7.220  0.00  0.00    +0.159 HD
ATOM     12  H   UNL     1     -10.347  -5.551   4.805  0.00  0.00    +0.162 HD
BRANCH   8  13
ATOM     13  C   UNL     1     -10.133  -5.595   6.917  0.00  0.00    +0.120 C 
BRANCH  13  14
ATOM     14  C   UNL     1     -11.448  -6.377   6.931  0.00  0.00    +0.060 C 
BRANCH  14  15
ATOM     15  C   UNL     1     -11.817  -6.712   8.353  0.00  0.00    -0.004 A 
ATOM     16  C   UNL     1     -11.461  -7.933   8.891  0.00  0.00    +0.007 A 
ATOM     17  C   UNL     1     -11.800  -8.241  10.195  0.00  0.00    +0.000 A 
ATOM     18  C   UNL     1     -12.496  -7.327  10.965  0.00  0.00    +0.004 A 
ATOM     19  C   UNL     1     -12.854  -6.104  10.433  0.00  0.00    +0.046 A 
ATOM     20  C   UNL     1     -12.511  -5.791   9.125  0.00  0.00    +0.123 A 
BRANCH  20  21
ATOM     21  O   UNL     1     -12.857  -4.586   8.601  0.00  0.00    -0.495 OA
ATOM     22  C   UNL     1     -13.570  -3.688   9.453  0.00  0.00    +0.277 C 
ENDBRANCH  20  21
ENDBRANCH  14  15
ENDBRANCH  13  14
ENDBRANCH   8  13
ENDBRANCH   4   6
BRANCH   1  27
ATOM     23  C   UNL     1      -2.899   0.181   5.544  0.00  0.00    +0.059 A 
ATOM     24  C   UNL     1      -3.114   0.143   6.909  0.00  0.00    +0.025 A 
ATOM     25  C   UNL     1      -4.148  -0.634   7.414  0.00  0.00    +0.004 A 
ATOM     26  C   UNL     1      -4.933  -1.347   6.526  0.00  0.00    +0.030 A 
ATOM     27  C   UNL     1      -4.660  -1.262   5.161  0.00  0.00    +0.090 A 
ATOM     28  N   UNL     1      -3.664  -0.503   4.718  0.00  0.00    -0.248 NA
BRANCH  23  29
ATOM     29  C   UNL     1      -1.777   1.023   4.992  0.00  0.00    +0.159 C 
BRANCH  29  33
ATOM     30  C   UNL     1       1.767  -0.128   4.115  0.00  0.00    +0.109 C 
ATOM     31  C   UNL     1       0.544   0.731   4.313  0.00  0.00    +0.210 C 
ATOM     32  O   UNL     1       0.580   1.911   4.033  0.00  0.00    -0.276 OA
ATOM     33  N   UNL     1      -0.589   0.188   4.800  0.00  0.00    -0.310 N 
ATOM     34  H   UNL     1      -0.617  -0.755   5.024  0.00  0.00    +0.149 HD
ENDBRANCH  29  33
ENDBRANCH  23  29
ENDBRANCH   1  27
TORSDOF 8
