REMARK  Name = ZINC39252323
REMARK  11 active torsions:
REMARK  status: ('A' for Active; 'I' for Inactive)
REMARK    1  A    between atoms: C_1  and  C_2
REMARK    2  A    between atoms: C_2  and  O_3
REMARK    3  A    between atoms: O_3  and  C_4
REMARK    4  A    between atoms: C_4  and  C_5
REMARK    5  A    between atoms: C_9  and  N_12
REMARK    6  A    between atoms: C_13  and  C_15
REMARK    7  A    between atoms: N_20  and  C_22
REMARK    8  A    between atoms: C_22  and  C_23
REMARK    9  A    between atoms: C_23  and  C_24
REMARK   10  A    between atoms: C_27  and  O_33
REMARK   11  A    between atoms: O_33  and  C_34
REMARK                            x       y       z     vdW  Elec       q    Type
REMARK                         _______ _______ _______ _____ _____    ______ ____
ROOT
ATOM      1  C   UNL     1       5.433   1.708   5.287  0.00  0.00    +0.101 C 
ATOM      2  C   UNL     1       4.922   2.776   4.293  0.00  0.00    +0.110 C 
ATOM      3  C   UNL     1       6.052   3.779   4.212  0.00  0.00    +0.216 C 
ATOM      4  O   UNL     1       5.953   4.902   3.766  0.00  0.00    -0.276 OA
ATOM      5  N   UNL     1       7.181   3.243   4.707  0.00  0.00    -0.300 N 
ATOM      6  C   UNL     1       6.965   1.863   5.158  0.00  0.00    +0.121 C 
ENDROOT
BRANCH   1   8
ATOM      7  N   UNL     1       3.683   0.015   4.852  0.00  0.00    -0.290 N 
ATOM      8  C   UNL     1       4.994   0.328   4.870  0.00  0.00    +0.220 C 
ATOM      9  O   UNL     1       5.819  -0.501   4.550  0.00  0.00    -0.275 OA
ATOM     10  H   UNL     1       3.022   0.677   5.108  0.00  0.00    +0.151 HD
BRANCH   7  14
ATOM     11  C   UNL     1       1.526  -2.293   2.520  0.00  0.00    +0.155 C 
ATOM     12  N   UNL     1       0.906  -1.685   3.738  0.00  0.00    -0.239 NA
ATOM     13  N   UNL     1       1.846  -1.573   4.834  0.00  0.00    -0.226 NA
ATOM     14  C   UNL     1       3.256  -1.327   4.446  0.00  0.00    +0.217 C 
ATOM     15  S   UNL     1       3.179  -1.468   2.608  0.00  0.00    -0.099 S 
ATOM     16  H   UNL     1       0.083  -2.197   4.018  0.00  0.00    +0.142 HD
ATOM     17  H   UNL     1       1.533  -0.893   5.510  0.00  0.00    +0.143 HD
BRANCH  11  18
ATOM     18  C   UNL     1       0.770  -1.902   1.249  0.00  0.00    +0.190 C 
BRANCH  18  19
ATOM     19  O   UNL     1       0.693  -0.477   1.160  0.00  0.00    -0.378 OA
BRANCH  19  21
ATOM     20  C   UNL     1      -0.019   1.526   0.010  0.00  0.00    +0.034 C 
ATOM     21  C   UNL     1       0.002  -0.004   0.002  0.00  0.00    +0.156 C 
ENDBRANCH  19  21
ENDBRANCH  18  19
ENDBRANCH  11  18
ENDBRANCH   7  14
ENDBRANCH   1   8
BRANCH   5  22
ATOM     22  C   UNL     1       8.463   3.947   4.788  0.00  0.00    +0.112 C 
BRANCH  22  23
ATOM     23  C   UNL     1       8.562   4.674   6.130  0.00  0.00    +0.056 C 
BRANCH  23  24
ATOM     24  C   UNL     1       9.882   5.399   6.213  0.00  0.00    -0.021 A 
ATOM     25  C   UNL     1      10.177   6.734   5.689  0.00  0.00    +0.006 A 
ATOM     26  C   UNL     1       9.427   7.695   5.007  0.00  0.00    +0.056 A 
ATOM     27  C   UNL     1      10.017   8.889   4.643  0.00  0.00    +0.121 A 
ATOM     28  C   UNL     1      11.352   9.134   4.952  0.00  0.00    +0.047 A 
ATOM     29  C   UNL     1      12.101   8.194   5.623  0.00  0.00    +0.030 A 
ATOM     30  C   UNL     1      11.525   6.986   6.000  0.00  0.00    +0.047 A 
ATOM     31  N   UNL     1      12.002   5.875   6.665  0.00  0.00    -0.360 N 
ATOM     32  C   UNL     1      11.007   4.944   6.787  0.00  0.00    +0.087 A 
ATOM     33  H   UNL     1      12.906   5.772   6.999  0.00  0.00    +0.165 HD
BRANCH  27  34
ATOM     34  O   UNL     1       9.292   9.828   3.978  0.00  0.00    -0.495 OA
ATOM     35  C   UNL     1       9.964  11.040   3.631  0.00  0.00    +0.277 C 
ENDBRANCH  27  34
ENDBRANCH  23  24
ENDBRANCH  22  23
ENDBRANCH   5  22
TORSDOF 9
