REMARK  Name = ZINC63161219
REMARK  9 active torsions:
REMARK  status: ('A' for Active; 'I' for Inactive)
REMARK    1  A    between atoms: C_1  and  C_2
REMARK    2  A    between atoms: C_4  and  C_28
REMARK    3  A    between atoms: N_6  and  C_8
REMARK    4  A    between atoms: C_8  and  C_9
REMARK    5  A    between atoms: C_8  and  C_10
REMARK    6  A    between atoms: C_8  and  C_11
REMARK    7  A    between atoms: C_11  and  N_12
REMARK    8  A    between atoms: N_15  and  C_16
REMARK    9  A    between atoms: C_18  and  C_24
REMARK                            x       y       z     vdW  Elec       q    Type
REMARK                         _______ _______ _______ _____ _____    ______ ____
ROOT
ATOM      1  N   UNL     1       3.530  -2.546   0.959  0.00  0.00    -0.300 N 
ATOM      2  C   UNL     1       4.820  -2.358   0.616  0.00  0.00    +0.304 C 
ATOM      3  O   UNL     1       5.632  -2.034   1.461  0.00  0.00    -0.253 OA
ATOM      4  N   UNL     1       5.209  -2.528  -0.663  0.00  0.00    -0.265 N 
ATOM      5  H   UNL     1       2.882  -2.804   0.285  0.00  0.00    +0.150 HD
ATOM      6  H   UNL     1       4.578  -2.857  -1.322  0.00  0.00    +0.157 HD
ENDROOT
BRANCH   4   7
ATOM      7  C   UNL     1       6.526  -2.231  -1.040  0.00  0.00    +0.100 A 
ATOM      8  C   UNL     1       7.322  -3.196  -1.594  0.00  0.00    +0.042 A 
ATOM      9  C   UNL     1       8.635  -2.872  -1.963  0.00  0.00    +0.073 A 
ATOM     10  C   UNL     1       9.102  -1.617  -1.771  0.00  0.00    +0.098 A 
ATOM     11  N   UNL     1       8.313  -0.656  -1.221  0.00  0.00    -0.327 N 
ATOM     12  H   UNL     1       8.665   0.238  -1.091  0.00  0.00    +0.168 HD
ATOM     13  C   UNL     1       7.045  -0.930  -0.860  0.00  0.00    +0.270 A 
ATOM     14  O   UNL     1       6.346  -0.056  -0.372  0.00  0.00    -0.266 OA
BRANCH   9  15
ATOM     15  C   UNL     1       9.527  -3.922  -2.573  0.00  0.00    +0.419 C 
ATOM     16  F   UNL     1      10.779  -3.364  -2.855  0.00  0.00    -0.166 F 
ATOM     17  F   UNL     1       9.681  -4.983  -1.675  0.00  0.00    -0.166 F 
ATOM     18  F   UNL     1       8.950  -4.393  -3.757  0.00  0.00    -0.166 F 
ENDBRANCH   9  15
ENDBRANCH   4   7
BRANCH   1  19
ATOM     19  C   UNL     1       3.107  -2.360   2.349  0.00  0.00    +0.093 C 
BRANCH  19  20
ATOM     20  C   UNL     1       1.633  -2.744   2.490  0.00  0.00    -0.055 C 
ATOM     21  C   UNL     1       1.190  -2.547   3.941  0.00  0.00    -0.008 C 
ATOM     22  C   UNL     1       1.448  -4.211   2.095  0.00  0.00    -0.008 C 
BRANCH  20  28
ATOM     23  C   UNL     1       0.427   1.875   1.405  0.00  0.00    +0.005 C 
ATOM     24  C   UNL     1       0.229   0.409   1.015  0.00  0.00    -0.031 C 
ATOM     25  C   UNL     1      -1.260   0.056   1.092  0.00  0.00    +0.003 C 
ATOM     26  C   UNL     1      -1.438  -1.432   0.777  0.00  0.00    -0.031 C 
ATOM     27  C   UNL     1      -0.595  -2.259   1.750  0.00  0.00    -0.075 C 
ATOM     28  N   UNL     1       0.820  -1.894   1.610  0.00  0.00    +0.384 N 
ATOM     29  C   UNL     1       1.010  -0.486   1.980  0.00  0.00    -0.075 C 
ATOM     30  C   UNL     1      -0.982  -1.709  -0.657  0.00  0.00    +0.005 C 
ATOM     31  H   UNL     1       1.108  -2.031   0.653  0.00  0.00    -0.081 HD
ENDBRANCH  20  28
ENDBRANCH  19  20
ENDBRANCH   1  19
TORSDOF 5
