REMARK  Name = ZINC65111684
REMARK  8 active torsions:
REMARK  status: ('A' for Active; 'I' for Inactive)
REMARK    1  A    between atoms: C_1  and  C_2
REMARK    2  A    between atoms: C_2  and  C_4
REMARK    3  A    between atoms: C_2  and  N_25
REMARK    4  A    between atoms: C_4  and  C_5
REMARK    5  A    between atoms: C_5  and  N_6
REMARK    6  A    between atoms: C_7  and  C_9
REMARK    7  A    between atoms: C_11  and  C_14
REMARK    8  A    between atoms: C_14  and  N_15
REMARK                            x       y       z     vdW  Elec       q    Type
REMARK                         _______ _______ _______ _____ _____    ______ ____
ROOT
ATOM      1  N   UNL     1       1.742  -2.486   2.289  0.00  0.00    -0.307 N 
ATOM      2  C   UNL     1       2.055  -3.791   2.407  0.00  0.00    +0.302 C 
ATOM      3  O   UNL     1       1.676  -4.585   1.569  0.00  0.00    -0.265 OA
ATOM      4  H   UNL     1       2.045  -1.852   2.958  0.00  0.00    +0.149 HD
ENDROOT
BRANCH   2   5
ATOM      5  C   UNL     1       2.863  -4.258   3.558  0.00  0.00    +0.313 A 
ATOM      6  N   UNL     1       3.239  -5.494   3.785  0.00  0.00    -0.186 NA
ATOM      7  C   UNL     1       3.954  -5.556   4.909  0.00  0.00    +0.192 A 
ATOM      8  N   UNL     1       4.048  -4.361   5.421  0.00  0.00    -0.059 NA
ATOM      9  O   UNL     1       3.344  -3.488   4.550  0.00  0.00    -0.328 OA
BRANCH   7  10
ATOM     10  C   UNL     1       4.556  -6.807   5.495  0.00  0.00    +0.208 C 
BRANCH  10  11
ATOM     11  N   UNL     1       5.907  -6.995   4.961  0.00  0.00    -0.267 N 
ATOM     12  C   UNL     1       6.247  -7.697   3.805  0.00  0.00    +0.091 A 
ATOM     13  C   UNL     1       5.507  -8.388   2.858  0.00  0.00    +0.030 A 
ATOM     14  C   UNL     1       6.146  -8.996   1.796  0.00  0.00    +0.002 A 
ATOM     15  C   UNL     1       7.523  -8.917   1.675  0.00  0.00    +0.004 A 
ATOM     16  C   UNL     1       8.267  -8.230   2.614  0.00  0.00    +0.048 A 
ATOM     17  C   UNL     1       7.634  -7.616   3.683  0.00  0.00    +0.157 A 
ATOM     18  O   UNL     1       8.089  -6.891   4.734  0.00  0.00    -0.407 OA
ATOM     19  C   UNL     1       7.048  -6.516   5.495  0.00  0.00    +0.422 A 
ATOM     20  O   UNL     1       7.124  -5.850   6.509  0.00  0.00    -0.223 OA
ENDBRANCH  10  11
ENDBRANCH   7  10
ENDBRANCH   2   5
BRANCH   1  21
ATOM     21  C   UNL     1       0.943  -2.024   1.151  0.00  0.00    +0.103 C 
BRANCH  21  22
ATOM     22  C   UNL     1       0.731  -0.513   1.256  0.00  0.00    +0.003 C 
BRANCH  22  24
ATOM     23  C   UNL     1      -0.093   1.516   0.052  0.00  0.00    -0.013 C 
ATOM     24  C   UNL     1       0.013  -0.010   0.002  0.00  0.00    -0.070 C 
BRANCH  24  25
ATOM     25  N   UNL     1      -1.334  -0.592  -0.058  0.00  0.00    +0.381 N 
ATOM     26  C   UNL     1      -1.921  -0.294  -1.379  0.00  0.00    -0.078 C 
ATOM     27  C   UNL     1      -2.967  -1.338  -1.679  0.00  0.00    -0.019 C 
ATOM     28  C   UNL     1      -4.377  -0.848  -1.298  0.00  0.00    -0.002 C 
ATOM     29  C   UNL     1      -4.373  -0.079   0.039  0.00  0.00    -0.002 C 
ATOM     30  C   UNL     1      -3.490  -0.729   1.073  0.00  0.00    -0.019 C 
ATOM     31  C   UNL     1      -2.086  -0.092   1.007  0.00  0.00    -0.078 C 
ATOM     32  H   UNL     1      -1.258  -1.593   0.042  0.00  0.00    -0.081 HD
ENDBRANCH  24  25
ENDBRANCH  22  24
ENDBRANCH  21  22
ENDBRANCH   1  21
TORSDOF 7
