REMARK  Name = ZINC58133990
REMARK  2 active torsions:
REMARK  status: ('A' for Active; 'I' for Inactive)
REMARK    1  A    between atoms: C_7  and  C_13
REMARK    2  A    between atoms: N_11  and  N_12
REMARK                            x       y       z     vdW  Elec       q    Type
REMARK                         _______ _______ _______ _____ _____    ______ ____
ROOT
ATOM      1  C   UNL     1       0.016   1.317   0.591  0.00  0.00    +0.001 A 
ATOM      2  C   UNL     1       1.200   2.050   0.574  0.00  0.00    +0.002 A 
ATOM      3  C   UNL     1       2.401   1.439   0.365  0.00  0.00    +0.028 A 
ATOM      4  C   UNL     1       2.447   0.052   0.165  0.00  0.00    +0.077 A 
ATOM      5  C   UNL     1       1.240  -0.691   0.183  0.00  0.00    +0.026 A 
ATOM      6  C   UNL     1       0.024  -0.033   0.400  0.00  0.00    +0.012 A 
ATOM      7  C   UNL     1       1.310  -2.092  -0.021  0.00  0.00    +0.084 A 
ATOM      8  N   UNL     1       2.503  -2.639  -0.220  0.00  0.00    -0.213 NA
ATOM      9  C   UNL     1       3.610  -1.902  -0.229  0.00  0.00    +0.230 A 
ATOM     10  N   UNL     1       3.600  -0.596  -0.044  0.00  0.00    -0.213 NA
ATOM     11  N   UNL     1       4.822  -2.533  -0.441  0.00  0.00    -0.252 N 
ATOM     12  H   UNL     1       4.853  -3.493  -0.579  0.00  0.00    +0.169 HD
ENDROOT
BRANCH   7  13
ATOM     13  C   UNL     1       0.086  -2.923  -0.013  0.00  0.00    +0.001 A 
ATOM     14  C   UNL     1      -1.054  -2.498  -0.697  0.00  0.00    +0.011 A 
ATOM     15  C   UNL     1      -2.192  -3.277  -0.686  0.00  0.00    +0.020 A 
ATOM     16  C   UNL     1      -2.205  -4.479   0.002  0.00  0.00    +0.041 A 
ATOM     17  C   UNL     1      -1.077  -4.906   0.682  0.00  0.00    +0.020 A 
ATOM     18  C   UNL     1       0.069  -4.138   0.673  0.00  0.00    +0.011 A 
ATOM     19 CL   UNL     1      -3.641  -5.454   0.011  0.00  0.00    -0.084 Cl
ENDBRANCH   7  13
BRANCH  11  20
ATOM     20  N   UNL     1       5.978  -1.804  -0.456  0.00  0.00    -0.254 NA
ATOM     21  H   UNL     1       6.777  -2.397  -0.621  0.00  0.00    +0.140 HD
ATOM     22  H   UNL     1       5.929  -1.064  -1.140  0.00  0.00    +0.140 HD
ENDBRANCH  11  20
TORSDOF 2
