REMARK  Name = ZINC45615957
REMARK  6 active torsions:
REMARK  status: ('A' for Active; 'I' for Inactive)
REMARK    1  A    between atoms: C_1  and  C_2
REMARK    2  A    between atoms: C_5  and  C_8
REMARK    3  A    between atoms: C_8  and  N_9
REMARK    4  A    between atoms: N_13  and  C_16
REMARK    5  A    between atoms: C_19  and  C_25
REMARK    6  A    between atoms: C_21  and  N_22
REMARK                            x       y       z     vdW  Elec       q    Type
REMARK                         _______ _______ _______ _____ _____    ______ ____
ROOT
ATOM      1  N   UNL     1       1.451  -4.747  -0.032  0.00  0.00    +0.383 N 
ATOM      2  C   UNL     1       1.451  -6.188   0.210  0.00  0.00    -0.077 C 
ATOM      3  C   UNL     1       2.737  -6.578   0.902  0.00  0.00    +0.000 C 
ATOM      4  C   UNL     1       3.775  -7.010  -0.150  0.00  0.00    +0.103 C 
ATOM      5  N   UNL     1       3.715  -6.141  -1.343  0.00  0.00    -0.330 N 
ATOM      6  C   UNL     1       3.553  -4.705  -1.248  0.00  0.00    +0.086 C 
ATOM      7  C   UNL     1       2.048  -4.347  -1.248  0.00  0.00    -0.059 C 
ATOM      8  H   UNL     1       1.943  -4.299   0.727  0.00  0.00    -0.081 HD
ENDROOT
BRANCH   5   9
ATOM      9  C   UNL     1       3.819  -6.723  -2.601  0.00  0.00    +0.060 A 
ATOM     10  C   UNL     1       2.671  -7.142  -3.270  0.00  0.00    +0.026 A 
ATOM     11  C   UNL     1       2.771  -7.717  -4.516  0.00  0.00    +0.015 A 
ATOM     12  C   UNL     1       4.025  -7.881  -5.110  0.00  0.00    +0.039 A 
ATOM     13  C   UNL     1       5.175  -7.460  -4.437  0.00  0.00    +0.047 A 
ATOM     14  C   UNL     1       5.069  -6.880  -3.193  0.00  0.00    +0.148 A 
BRANCH  12  15
ATOM     15  C   UNL     1       4.135  -8.498  -6.446  0.00  0.00    +0.242 C 
ATOM     16  O   UNL     1       5.227  -8.640  -6.962  0.00  0.00    -0.270 OA
ATOM     17  N   UNL     1       3.026  -8.905  -7.094  0.00  0.00    -0.325 N 
ATOM     18  H   UNL     1       2.155  -8.791  -6.682  0.00  0.00    +0.145 HD
ATOM     19  H   UNL     1       3.098  -9.310  -7.972  0.00  0.00    +0.145 HD
ENDBRANCH  12  15
BRANCH  14  20
ATOM     20  N   UNL     1       6.286  -6.428  -2.481  0.00  0.00    +0.058 N 
ATOM     21  O   UNL     1       7.372  -6.564  -2.995  0.00  0.00    -0.126 OA
ATOM     22  O   UNL     1       6.194  -5.923  -1.387  0.00  0.00    -0.126 OA
ENDBRANCH  14  20
ENDBRANCH   5   9
BRANCH   1  23
ATOM     23  C   UNL     1       0.059  -4.275  -0.021  0.00  0.00    -0.043 C 
BRANCH  23  28
ATOM     24  C   UNL     1      -0.018   1.503   0.010  0.00  0.00    +0.044 C 
ATOM     25  C   UNL     1       0.002  -0.004   0.002  0.00  0.00    -0.050 A 
ATOM     26  C   UNL     1       0.006  -0.689  -1.199  0.00  0.00    +0.003 A 
ATOM     27  C   UNL     1       0.025  -2.071  -1.206  0.00  0.00    +0.002 A 
ATOM     28  C   UNL     1       0.040  -2.768  -0.013  0.00  0.00    -0.064 A 
ATOM     29  C   UNL     1       0.037  -2.084   1.188  0.00  0.00    +0.002 A 
ATOM     30  C   UNL     1       0.023  -0.702   1.195  0.00  0.00    +0.003 A 
ENDBRANCH  23  28
ENDBRANCH   1  23
TORSDOF 5
