REMARK  Name = ZINC62789130
REMARK  3 active torsions:
REMARK  status: ('A' for Active; 'I' for Inactive)
REMARK    1  A    between atoms: C_3  and  C_17
REMARK    2  A    between atoms: C_4  and  O_8
REMARK    3  A    between atoms: O_8  and  C_9
REMARK                            x       y       z     vdW  Elec       q    Type
REMARK                         _______ _______ _______ _____ _____    ______ ____
ROOT
ATOM      1  C   UNL     1       0.023   1.295  -0.459  0.00  0.00    +0.021 A 
ATOM      2  C   UNL     1       1.166   2.056  -0.345  0.00  0.00    +0.016 A 
ATOM      3  C   UNL     1       2.403   1.433  -0.168  0.00  0.00    +0.054 A 
ATOM      4  C   UNL     1       2.473   0.035  -0.108  0.00  0.00    +0.140 A 
ATOM      5  C   UNL     1       1.314  -0.717  -0.224  0.00  0.00    +0.067 A 
ATOM      6  C   UNL     1       0.095  -0.088  -0.399  0.00  0.00    +0.044 A 
ATOM      7 CL   UNL     1      -1.352  -1.035  -0.544  0.00  0.00    -0.083 Cl
ENDROOT
BRANCH   3   8
ATOM      8  C   UNL     1       3.631   2.243  -0.046  0.00  0.00    +0.098 C 
ATOM      9  N   UNL     1       3.952   3.116  -1.001  0.00  0.00    -0.387 N 
ATOM     10  N   UNL     1       4.419   2.102   1.020  0.00  0.00    -0.344 N 
ATOM     11  H   UNL     1       4.718   3.700  -0.887  0.00  0.00    +0.157 HD
ATOM     12  H   UNL     1       4.186   1.467   1.715  0.00  0.00    +0.144 HD
ATOM     13  H   UNL     1       5.226   2.634   1.100  0.00  0.00    +0.144 HD
ATOM     14  H   UNL     1       3.420   3.167  -1.810  0.00  0.00    +0.157 HD
ENDBRANCH   3   8
BRANCH   4  15
ATOM     15  O   UNL     1       3.670  -0.581   0.063  0.00  0.00    -0.452 OA
BRANCH  15  16
ATOM     16  C   UNL     1       3.703  -1.939   0.004  0.00  0.00    +0.164 A 
ATOM     17  C   UNL     1       3.615  -2.688   1.167  0.00  0.00    +0.050 A 
ATOM     18  C   UNL     1       3.648  -4.068   1.105  0.00  0.00    +0.019 A 
ATOM     19  C   UNL     1       3.771  -4.704  -0.118  0.00  0.00    +0.021 A 
ATOM     20  C   UNL     1       3.860  -3.960  -1.281  0.00  0.00    +0.057 A 
ATOM     21  C   UNL     1       3.820  -2.579  -1.224  0.00  0.00    +0.166 A 
ATOM     22  F   UNL     1       3.901  -1.852  -2.360  0.00  0.00    -0.202 F 
ATOM     23 BR   UNL     1       3.817  -6.592  -0.199  0.00  0.00    -0.050 Br
ENDBRANCH  15  16
ENDBRANCH   4  15
TORSDOF 3
