REMARK  Name = ZINC42175922
REMARK  7 active torsions:
REMARK  status: ('A' for Active; 'I' for Inactive)
REMARK    1  A    between atoms: C_1  and  C_2
REMARK    2  A    between atoms: C_4  and  N_8
REMARK    3  A    between atoms: N_5  and  C_7
REMARK    4  A    between atoms: C_9  and  C_11
REMARK    5  A    between atoms: C_11  and  N_12
REMARK    6  A    between atoms: C_15  and  C_19
REMARK    7  A    between atoms: C_15  and  C_20
REMARK                            x       y       z     vdW  Elec       q    Type
REMARK                         _______ _______ _______ _____ _____    ______ ____
ROOT
ATOM      1  N   UNL     1      -0.645  -4.040  -5.122  0.00  0.00    -0.215 N 
ATOM      2  C   UNL     1      -1.492  -3.757  -6.131  0.00  0.00    +0.251 C 
ATOM      3  O   UNL     1      -2.700  -3.866  -6.125  0.00  0.00    -0.272 OA
ATOM      4  C   UNL     1      -0.622  -3.273  -7.274  0.00  0.00    +0.140 C 
ATOM      5  N   UNL     1       0.743  -3.346  -6.724  0.00  0.00    -0.281 N 
ATOM      6  C   UNL     1       0.626  -3.800  -5.463  0.00  0.00    +0.310 C 
ATOM      7  O   UNL     1       1.571  -3.975  -4.718  0.00  0.00    -0.252 OA
ATOM      8  C   UNL     1      -0.976  -1.832  -7.646  0.00  0.00    +0.047 C 
ATOM      9  H   UNL     1       1.565  -3.111  -7.182  0.00  0.00    +0.152 HD
ENDROOT
BRANCH   4  10
ATOM     10  C   UNL     1      -0.762  -4.181  -8.468  0.00  0.00    +0.055 A 
ATOM     11  C   UNL     1       0.149  -5.202  -8.673  0.00  0.00    +0.132 A 
ATOM     12  C   UNL     1       0.020  -6.035  -9.771  0.00  0.00    +0.039 A 
ATOM     13  C   UNL     1      -1.020  -5.848 -10.663  0.00  0.00    +0.006 A 
ATOM     14  C   UNL     1      -1.931  -4.829 -10.459  0.00  0.00    +0.039 A 
ATOM     15  C   UNL     1      -1.806  -3.998  -9.358  0.00  0.00    +0.132 A 
ATOM     16  F   UNL     1      -2.700  -3.005  -9.157  0.00  0.00    -0.205 F 
ATOM     17  F   UNL     1       1.166  -5.385  -7.802  0.00  0.00    -0.205 F 
ENDBRANCH   4  10
BRANCH   1  18
ATOM     18  C   UNL     1      -1.064  -4.543  -3.811  0.00  0.00    +0.214 C 
BRANCH  18  20
ATOM     19  N   UNL     1      -1.734  -3.604  -1.623  0.00  0.00    -0.269 N 
ATOM     20  C   UNL     1      -1.333  -3.381  -2.890  0.00  0.00    +0.236 C 
ATOM     21  O   UNL     1      -1.188  -2.245  -3.289  0.00  0.00    -0.274 OA
ATOM     22  H   UNL     1      -1.849  -4.513  -1.304  0.00  0.00    +0.156 HD
BRANCH  19  26
ATOM     23  C   UNL     1      -2.211   1.036   0.152  0.00  0.00    +0.067 C 
ATOM     24  C   UNL     1      -2.205  -0.468   0.050  0.00  0.00    +0.062 A 
ATOM     25  C   UNL     1      -1.862  -1.210  -1.084  0.00  0.00    +0.068 A 
ATOM     26  C   UNL     1      -1.982  -2.529  -0.770  0.00  0.00    +0.123 A 
ATOM     27  N   UNL     1      -2.387  -2.607   0.518  0.00  0.00    -0.253 N 
ATOM     28  N   UNL     1      -2.514  -1.302   1.010  0.00  0.00    -0.175 NA
ATOM     29  C   UNL     1      -2.643  -3.840   1.268  0.00  0.00    +0.174 C 
ENDBRANCH  19  26
ENDBRANCH  18  20
ENDBRANCH   1  18
TORSDOF 4
