REMARK  Name = ZINC04205613
REMARK  7 active torsions:
REMARK  status: ('A' for Active; 'I' for Inactive)
REMARK    1  A    between atoms: C_1  and  C_2
REMARK    2  A    between atoms: C_6  and  O_8
REMARK    3  A    between atoms: O_8  and  C_9
REMARK    4  A    between atoms: C_10  and  C_21
REMARK    5  A    between atoms: C_17  and  C_20
REMARK    6  A    between atoms: C_22  and  C_23
REMARK    7  A    between atoms: C_22  and  C_25
REMARK                            x       y       z     vdW  Elec       q    Type
REMARK                         _______ _______ _______ _____ _____    ______ ____
ROOT
ATOM      1  C   UNL     1       0.824   5.769  -0.234  0.00  0.00    +0.235 A 
ATOM      2  C   UNL     1       1.036   7.132   0.090  0.00  0.00    +0.103 A 
ATOM      3  C   UNL     1       2.373   7.588   0.234  0.00  0.00    +0.269 A 
ATOM      4  O   UNL     1       2.604   8.751   0.513  0.00  0.00    -0.266 OA
ATOM      5  N   UNL     1       3.383   6.709   0.058  0.00  0.00    -0.267 N 
ATOM      6  C   UNL     1       4.670   7.136   0.195  0.00  0.00    +0.096 A 
ATOM      7  C   UNL     1       5.705   6.283   0.024  0.00  0.00    +0.019 A 
ATOM      8  C   UNL     1       5.463   4.941  -0.295  0.00  0.00    +0.008 A 
ATOM      9  C   UNL     1       4.178   4.503  -0.433  0.00  0.00    -0.007 A 
ATOM     10  C   UNL     1       3.115   5.405  -0.253  0.00  0.00    +0.147 A 
ATOM     11  N   UNL     1       1.862   4.966  -0.386  0.00  0.00    -0.194 NA
ATOM     12  C   UNL     1       3.900   3.062  -0.776  0.00  0.00    +0.047 C 
ENDROOT
BRANCH   2  13
ATOM     13  C   UNL     1      -0.049   8.010   0.264  0.00  0.00    +0.042 C 
ATOM     14  C   UNL     1      -1.037   7.716   1.194  0.00  0.00    +0.114 C 
BRANCH  14  15
ATOM     15  C   UNL     1      -2.230   8.563   1.288  0.00  0.00    +0.252 C 
ATOM     16  O   UNL     1      -2.354   9.524   0.551  0.00  0.00    -0.270 OA
ATOM     17  N   UNL     1      -3.189   8.278   2.191  0.00  0.00    -0.325 N 
ATOM     18  H   UNL     1      -3.091   7.513   2.778  0.00  0.00    +0.145 HD
ATOM     19  H   UNL     1      -3.979   8.839   2.253  0.00  0.00    +0.145 HD
ENDBRANCH  14  15
BRANCH  14  20
ATOM     20  C   UNL     1      -0.891   6.586   2.061  0.00  0.00    +0.104 C 
ATOM     21  N   UNL     1      -0.775   5.689   2.749  0.00  0.00    -0.191 NA
ENDBRANCH  14  20
ENDBRANCH   2  13
BRANCH   1  22
ATOM     22  O   UNL     1      -0.433   5.293  -0.381  0.00  0.00    -0.437 OA
BRANCH  22  28
ATOM     23  C   UNL     1      -1.488   1.667  -3.473  0.00  0.00    +0.044 C 
ATOM     24  C   UNL     1      -1.101   2.158  -2.102  0.00  0.00    -0.047 A 
ATOM     25  C   UNL     1      -0.902   1.253  -1.074  0.00  0.00    +0.003 A 
ATOM     26  C   UNL     1      -0.542   1.700   0.183  0.00  0.00    +0.004 A 
ATOM     27  C   UNL     1      -0.384   3.053   0.418  0.00  0.00    +0.046 A 
ATOM     28  C   UNL     1      -0.588   3.962  -0.610  0.00  0.00    +0.131 A 
ATOM     29  C   UNL     1      -0.950   3.511  -1.871  0.00  0.00    +0.049 A 
ENDBRANCH  22  28
ENDBRANCH   1  22
TORSDOF 5
