REMARK  Name = ZINC14607556
REMARK  4 active torsions:
REMARK  status: ('A' for Active; 'I' for Inactive)
REMARK    1  A    between atoms: C_1  and  C_2
REMARK    2  A    between atoms: C_12  and  C_14
REMARK    3  A    between atoms: N_21  and  C_22
REMARK    4  A    between atoms: C_22  and  C_23
REMARK                            x       y       z     vdW  Elec       q    Type
REMARK                         _______ _______ _______ _____ _____    ______ ____
ROOT
ATOM      1  C   UNL     1      -0.095   1.499   0.058  0.00  0.00    +0.066 C 
ATOM      2  C   UNL     1      -0.054  -0.007   0.037  0.00  0.00    +0.047 C 
ATOM      3  C   UNL     1      -1.224  -0.714   0.040  0.00  0.00    +0.091 C 
ATOM      4  C   UNL     1      -1.166  -2.119   0.020  0.00  0.00    +0.249 C 
ATOM      5  O   UNL     1      -2.186  -2.788   0.021  0.00  0.00    -0.270 OA
ATOM      6  N   UNL     1       0.065  -2.716  -0.002  0.00  0.00    -0.211 N 
ATOM      7  C   UNL     1       1.204  -1.956  -0.003  0.00  0.00    +0.229 C 
ATOM      8  N   UNL     1       1.116  -0.630   0.011  0.00  0.00    -0.219 NA
ATOM      9  N   UNL     1       2.410  -2.537  -0.024  0.00  0.00    -0.183 NA
ATOM     10  C   UNL     1       2.600  -3.836  -0.043  0.00  0.00    +0.194 C 
ATOM     11  N   UNL     1       1.561  -4.723  -0.044  0.00  0.00    -0.335 N 
ATOM     12  C   UNL     1       0.191  -4.180  -0.022  0.00  0.00    +0.211 C 
ATOM     13  N   UNL     1       3.878  -4.316  -0.063  0.00  0.00    -0.313 N 
ATOM     14  H   UNL     1       4.037  -5.272  -0.077  0.00  0.00    +0.149 HD
ATOM     15  H   UNL     1       1.720  -5.680  -0.059  0.00  0.00    +0.164 HD
ENDROOT
BRANCH  12  16
ATOM     16  C   UNL     1      -0.534  -4.693  -1.240  0.00  0.00    -0.007 A 
ATOM     17  C   UNL     1      -0.193  -4.226  -2.495  0.00  0.00    +0.009 A 
ATOM     18  C   UNL     1      -0.857  -4.696  -3.612  0.00  0.00    +0.020 A 
ATOM     19  C   UNL     1      -1.864  -5.635  -3.474  0.00  0.00    +0.041 A 
ATOM     20  C   UNL     1      -2.205  -6.103  -2.217  0.00  0.00    +0.020 A 
ATOM     21  C   UNL     1      -1.536  -5.636  -1.102  0.00  0.00    +0.009 A 
ATOM     22 CL   UNL     1      -2.699  -6.226  -4.877  0.00  0.00    -0.084 Cl
ENDBRANCH  12  16
BRANCH  13  23
ATOM     23  C   UNL     1       5.010  -3.385  -0.062  0.00  0.00    +0.135 C 
BRANCH  23  24
ATOM     24  C   UNL     1       6.320  -4.175  -0.087  0.00  0.00    +0.135 C 
ATOM     25  C   UNL     1       7.517  -3.208   0.035  0.00  0.00    +0.035 C 
ATOM     26  C   UNL     1       8.546  -3.832  -0.946  0.00  0.00    +0.031 C 
ATOM     27  C   UNL     1       7.605  -4.394  -2.042  0.00  0.00    +0.160 C 
ATOM     28  O   UNL     1       6.446  -4.868  -1.334  0.00  0.00    -0.375 OA
ENDBRANCH  23  24
ENDBRANCH  13  23
TORSDOF 3
