REMARK  Name = ZINC32995808
REMARK  4 active torsions:
REMARK  status: ('A' for Active; 'I' for Inactive)
REMARK    1  A    between atoms: C_9  and  C_12
REMARK    2  A    between atoms: C_12  and  N_13
REMARK    3  A    between atoms: C_14  and  C_16
REMARK    4  A    between atoms: C_21  and  O_22
REMARK                            x       y       z     vdW  Elec       q    Type
REMARK                         _______ _______ _______ _____ _____    ______ ____
ROOT
ATOM      1  N   UNL     1      -0.191   8.015  -0.714  0.00  0.00    -0.308 N 
ATOM      2  C   UNL     1       0.040   9.330  -0.530  0.00  0.00    +0.248 C 
ATOM      3  O   UNL     1      -0.596   9.949   0.301  0.00  0.00    -0.270 OA
ATOM      4  H   UNL     1       0.385   7.455  -1.465  0.00  0.00    +0.149 HD
ENDROOT
BRANCH   2   5
ATOM      5  C   UNL     1       1.064  10.018  -1.338  0.00  0.00    +0.078 A 
ATOM      6  C   UNL     1       1.802   9.309  -2.290  0.00  0.00    +0.018 A 
ATOM      7  C   UNL     1       2.753   9.959  -3.044  0.00  0.00    +0.021 A 
ATOM      8  C   UNL     1       2.991  11.312  -2.857  0.00  0.00    +0.044 A 
ATOM      9  C   UNL     1       2.273  12.024  -1.915  0.00  0.00    +0.066 A 
ATOM     10  C   UNL     1       1.308  11.386  -1.150  0.00  0.00    +0.130 A 
ATOM     11 CL   UNL     1       4.199  12.117  -3.810  0.00  0.00    -0.083 Cl
BRANCH  10  12
ATOM     12  O   UNL     1       0.602  12.083  -0.225  0.00  0.00    -0.506 OA
ATOM     13  H   UNL     1       0.795  13.156  -0.079  0.00  0.00    +0.292 HD
ENDBRANCH  10  12
ENDBRANCH   2   5
BRANCH   1  14
ATOM     14  C   UNL     1      -1.208   7.331   0.088  0.00  0.00    +0.152 C 
BRANCH  14  23
ATOM     15  C   UNL     1      -0.013   1.076   0.008  0.00  0.00    +0.004 A 
ATOM     16  C   UNL     1       1.176   1.782   0.000  0.00  0.00    +0.004 A 
ATOM     17  C   UNL     1       1.161   3.164   0.009  0.00  0.00    +0.049 A 
ATOM     18  C   UNL     1      -0.046   3.846   0.026  0.00  0.00    +0.163 A 
ATOM     19  C   UNL     1      -1.241   3.136   0.031  0.00  0.00    +0.162 A 
ATOM     20  C   UNL     1      -1.219   1.749   0.017  0.00  0.00    +0.049 A 
ATOM     21  O   UNL     1      -2.437   3.785   0.043  0.00  0.00    -0.485 OA
ATOM     22  C   UNL     1      -2.417   5.163   0.432  0.00  0.00    +0.275 C 
ATOM     23  C   UNL     1      -1.270   5.856  -0.315  0.00  0.00    +0.228 C 
ATOM     24  O   UNL     1      -0.045   5.207   0.043  0.00  0.00    -0.480 OA
ENDBRANCH  14  23
ENDBRANCH   1  14
TORSDOF 4
