REMARK  Name = ZINC14745146
REMARK  8 active torsions:
REMARK  status: ('A' for Active; 'I' for Inactive)
REMARK    1  A    between atoms: C_1  and  C_2
REMARK    2  A    between atoms: C_2  and  C_3
REMARK    3  A    between atoms: C_3  and  N_4
REMARK    4  A    between atoms: C_7  and  C_9
REMARK    5  A    between atoms: C_18  and  N_64
REMARK    6  A    between atoms: C_22  and  C_23
REMARK    7  A    between atoms: C_22  and  N_64
REMARK    8  A    between atoms: C_23  and  O_29
REMARK                            x       y       z     vdW  Elec       q    Type
REMARK                         _______ _______ _______ _____ _____    ______ ____
ROOT
ATOM      1  N   UNL     1      -3.325   2.679   0.131  0.00  0.00    -0.267 N 
ATOM      2  C   UNL     1      -2.665   3.843   0.015  0.00  0.00    +0.043 A 
ATOM      3  C   UNL     1      -1.343   3.551  -0.045  0.00  0.00    +0.004 A 
ATOM      4  C   UNL     1      -1.253   2.151   0.035  0.00  0.00    +0.151 A 
ATOM      5  N   UNL     1      -2.490   1.698   0.142  0.00  0.00    -0.166 NA
ATOM      6  C   UNL     1      -0.248   4.572  -0.190  0.00  0.00    +0.023 C 
ATOM      7  C   UNL     1      -0.878   5.894  -0.647  0.00  0.00    -0.067 C 
ATOM      8  C   UNL     1      -2.076   6.226   0.248  0.00  0.00    -0.009 C 
ATOM      9  C   UNL     1      -3.219   5.244  -0.036  0.00  0.00    +0.054 C 
ENDROOT
BRANCH   4  10
ATOM     10  C   UNL     1      -0.016   1.344   0.009  0.00  0.00    +0.267 C 
ATOM     11  O   UNL     1       1.069   1.892   0.020  0.00  0.00    -0.268 OA
ATOM     12  N   UNL     1      -0.090  -0.002  -0.031  0.00  0.00    -0.292 N 
ATOM     13  C   UNL     1      -1.387  -0.692   0.056  0.00  0.00    +0.136 C 
ATOM     14  C   UNL     1      -1.474  -1.696  -1.105  0.00  0.00    +0.179 C 
ATOM     15  O   UNL     1      -0.311  -2.527  -1.093  0.00  0.00    -0.377 OA
ATOM     16  C   UNL     1       0.914  -1.822  -1.302  0.00  0.00    +0.179 C 
ATOM     17  C   UNL     1       1.123  -0.824  -0.157  0.00  0.00    +0.136 C 
ENDBRANCH   4  10
BRANCH   7  18
ATOM     18  N   UNL     1       0.126   6.970  -0.544  0.00  0.00    +0.383 N 
ATOM     19  H   UNL     1       1.053   6.591  -0.771  0.00  0.00    -0.085 HD
ATOM     20  H   UNL     1       0.132   7.337   0.415  0.00  0.00    -0.085 HD
BRANCH  18  21
ATOM     21  C   UNL     1      -0.196   8.062  -1.482  0.00  0.00    -0.047 C 
BRANCH  21  22
ATOM     22  C   UNL     1       0.861   9.161  -1.353  0.00  0.00    +0.051 C 
ATOM     23  C   UNL     1       0.953   9.611   0.106  0.00  0.00    +0.033 C 
ATOM     24  C   UNL     1       2.010  10.710   0.235  0.00  0.00    +0.003 C 
ATOM     25  C   UNL     1       1.617  11.901  -0.642  0.00  0.00    +0.000 C 
ATOM     26  C   UNL     1       1.525  11.451  -2.101  0.00  0.00    +0.003 C 
ATOM     27  C   UNL     1       0.468  10.352  -2.230  0.00  0.00    +0.033 C 
BRANCH  22  28
ATOM     28  O   UNL     1       2.128   8.655  -1.777  0.00  0.00    -0.390 OA
ATOM     29  H   UNL     1       2.441   7.897  -1.264  0.00  0.00    +0.210 HD
ENDBRANCH  22  28
ENDBRANCH  21  22
ENDBRANCH  18  21
ENDBRANCH   7  18
BRANCH   1  30
ATOM     30  C   UNL     1      -4.780   2.544   0.230  0.00  0.00    +0.143 C 
BRANCH  30  32
ATOM     31  C   UNL     1      -6.718   2.449   1.805  0.00  0.00    +0.005 C 
ATOM     32  C   UNL     1      -5.197   2.589   1.702  0.00  0.00    +0.020 C 
ENDBRANCH  30  32
ENDBRANCH   1  30
TORSDOF 7
