REMARK  Name = ZINC20103564
REMARK  9 active torsions:
REMARK  status: ('A' for Active; 'I' for Inactive)
REMARK    1  A    between atoms: C_1  and  C_2
REMARK    2  A    between atoms: C_2  and  N_3
REMARK    3  A    between atoms: C_7  and  C_9
REMARK    4  A    between atoms: C_9  and  N_10
REMARK    5  A    between atoms: C_11  and  C_13
REMARK    6  A    between atoms: C_13  and  C_14
REMARK    7  A    between atoms: C_14  and  N_15
REMARK    8  A    between atoms: C_16  and  C_18
REMARK    9  A    between atoms: C_18  and  N_19
REMARK                            x       y       z     vdW  Elec       q    Type
REMARK                         _______ _______ _______ _____ _____    ______ ____
ROOT
ATOM      1  N   UNL     1       3.603   8.406  -1.645  0.00  0.00    -0.313 N 
ATOM      2  C   UNL     1       2.798   7.357  -1.384  0.00  0.00    +0.233 C 
ATOM      3  O   UNL     1       2.240   6.780  -2.293  0.00  0.00    -0.274 OA
ATOM      4  H   UNL     1       4.109   8.929  -0.820  0.00  0.00    +0.149 HD
ENDROOT
BRANCH   1   5
ATOM      5  C   UNL     1       3.803   8.850  -3.027  0.00  0.00    +0.113 C 
BRANCH   5   6
ATOM      6  C   UNL     1       4.754  10.049  -3.044  0.00  0.00    +0.114 C 
BRANCH   6   8
ATOM      7  N   UNL     1       5.764  11.555  -4.726  0.00  0.00    -0.317 N 
ATOM      8  C   UNL     1       4.960  10.506  -4.465  0.00  0.00    +0.214 C 
ATOM      9  O   UNL     1       4.402   9.929  -5.375  0.00  0.00    -0.276 OA
ATOM     10  H   UNL     1       6.271  12.078  -3.901  0.00  0.00    +0.149 HD
BRANCH   7  11
ATOM     11  C   UNL     1       5.965  11.999  -6.108  0.00  0.00    +0.089 C 
BRANCH  11  16
ATOM     12  N   UNL     1       7.094  13.678  -7.506  0.00  0.00    +0.382 N 
ATOM     13  C   UNL     1       6.506  15.015  -7.734  0.00  0.00    -0.078 C 
ATOM     14  C   UNL     1       6.412  15.652  -6.325  0.00  0.00    -0.020 C 
ATOM     15  C   UNL     1       6.034  14.426  -5.451  0.00  0.00    -0.016 C 
ATOM     16  C   UNL     1       6.813  13.272  -6.116  0.00  0.00    -0.051 C 
ATOM     17  H   UNL     1       8.182  13.717  -7.666  0.00  0.00    -0.081 HD
BRANCH  12  19
ATOM     18  C   UNL     1       6.779  13.201  -9.887  0.00  0.00    -0.017 C 
ATOM     19  C   UNL     1       6.559  12.697  -8.459  0.00  0.00    -0.082 C 
ENDBRANCH  12  19
ENDBRANCH  11  16
ENDBRANCH   7  11
ENDBRANCH   6   8
ENDBRANCH   5   6
ENDBRANCH   1   5
BRANCH   2  20
ATOM     20  C   UNL     1       2.592   6.900   0.037  0.00  0.00    +0.221 C 
BRANCH  20  21
ATOM     21  N   UNL     1       1.682   5.752   0.054  0.00  0.00    -0.290 N 
ATOM     22  C   UNL     1       0.352   5.984   0.164  0.00  0.00    +0.203 A 
ATOM     23  N   UNL     1      -0.543   5.021   0.187  0.00  0.00    -0.230 NA
ATOM     24  C   UNL     1      -0.099   3.772   0.097  0.00  0.00    +0.116 A 
ATOM     25  C   UNL     1       1.266   3.428  -0.020  0.00  0.00    +0.076 A 
ATOM     26  C   UNL     1       2.210   4.508  -0.041  0.00  0.00    +0.263 A 
ATOM     27  O   UNL     1       3.410   4.319  -0.138  0.00  0.00    -0.267 OA
ATOM     28  C   UNL     1       1.564   2.010  -0.106  0.00  0.00    -0.023 A 
ATOM     29  C   UNL     1       0.508   1.164  -0.068  0.00  0.00    -0.004 A 
ATOM     30  S   UNL     1      -0.919   2.209   0.079  0.00  0.00    -0.073 S 
ATOM     31  C   UNL     1       0.540  -0.332  -0.140  0.00  0.00    +0.043 C 
ATOM     32  C   UNL     1       1.926  -0.765  -0.639  0.00  0.00    +0.005 C 
ATOM     33  C   UNL     1       2.992  -0.008   0.159  0.00  0.00    +0.005 C 
ATOM     34  C   UNL     1       2.986   1.469  -0.235  0.00  0.00    +0.037 C 
ENDBRANCH  20  21
ENDBRANCH   2  20
TORSDOF 8
