REMARK  Name = ZINC37443956
REMARK  6 active torsions:
REMARK  status: ('A' for Active; 'I' for Inactive)
REMARK    1  A    between atoms: C_1  and  C_2
REMARK    2  A    between atoms: C_5  and  N_8
REMARK    3  A    between atoms: C_21  and  C_22
REMARK    4  A    between atoms: C_21  and  C_23
REMARK    5  A    between atoms: N_25  and  C_26
REMARK    6  A    between atoms: C_32  and  C_34
REMARK                            x       y       z     vdW  Elec       q    Type
REMARK                         _______ _______ _______ _____ _____    ______ ____
ROOT
ATOM      1  N   UNL     1       0.039  -4.174  -0.022  0.00  0.00    -0.249 N 
ATOM      2  C   UNL     1      -0.060  -4.832  -1.201  0.00  0.00    +0.287 C 
ATOM      3  O   UNL     1       0.021  -4.251  -2.265  0.00  0.00    -0.266 OA
ATOM      4  C   UNL     1      -0.271  -6.299  -1.126  0.00  0.00    +0.198 A 
ATOM      5  N   UNL     1      -0.227  -7.195  -2.068  0.00  0.00    -0.223 NA
ATOM      6  C   UNL     1      -0.463  -8.401  -1.545  0.00  0.00    +0.090 A 
ATOM      7  C   UNL     1      -0.519  -9.677  -2.127  0.00  0.00    +0.030 A 
ATOM      8  C   UNL     1      -0.784 -10.732  -1.293  0.00  0.00    +0.002 A 
ATOM      9  C   UNL     1      -0.991 -10.566   0.068  0.00  0.00    +0.002 A 
ATOM     10  C   UNL     1      -0.944  -9.323   0.672  0.00  0.00    +0.028 A 
ATOM     11  C   UNL     1      -0.676  -8.229  -0.149  0.00  0.00    +0.069 A 
ATOM     12  N   UNL     1      -0.562  -6.902   0.087  0.00  0.00    -0.317 N 
ATOM     13  C   UNL     1      -0.708  -6.126   1.320  0.00  0.00    +0.159 C 
ATOM     14  C   UNL     1       0.184  -4.883   1.244  0.00  0.00    +0.133 C 
ATOM     15  C   UNL     1      -0.188  -3.936   2.387  0.00  0.00    +0.044 C 
ENDROOT
BRANCH   1  20
ATOM     16  C   UNL     1      -0.094   1.496  -0.012  0.00  0.00    +0.044 C 
ATOM     17  C   UNL     1      -0.059  -0.011  -0.014  0.00  0.00    -0.050 A 
ATOM     18  C   UNL     1       1.074  -0.673  -0.449  0.00  0.00    +0.005 A 
ATOM     19  C   UNL     1       1.110  -2.054  -0.453  0.00  0.00    +0.024 A 
ATOM     20  C   UNL     1       0.006  -2.777  -0.019  0.00  0.00    +0.038 A 
ATOM     21  C   UNL     1      -1.130  -2.108   0.418  0.00  0.00    +0.024 A 
ATOM     22  C   UNL     1      -1.157  -0.727   0.424  0.00  0.00    +0.005 A 
ENDBRANCH   1  20
BRANCH  14  23
ATOM     23  C   UNL     1       1.623  -5.299   1.408  0.00  0.00    +0.239 C 
ATOM     24  O   UNL     1       1.893  -6.348   1.954  0.00  0.00    -0.273 OA
ATOM     25  N   UNL     1       2.611  -4.505   0.949  0.00  0.00    -0.310 N 
ATOM     26  H   UNL     1       2.395  -3.666   0.512  0.00  0.00    +0.149 HD
BRANCH  25  27
ATOM     27  C   UNL     1       4.010  -4.909   1.108  0.00  0.00    +0.076 C 
ATOM     28  C   UNL     1       4.410  -5.828  -0.048  0.00  0.00    +0.022 C 
ATOM     29  C   UNL     1       5.871  -6.250   0.118  0.00  0.00    +0.002 C 
ATOM     30  C   UNL     1       6.764  -5.008   0.115  0.00  0.00    +0.000 C 
ATOM     31  C   UNL     1       6.364  -4.089   1.272  0.00  0.00    +0.005 C 
ATOM     32  C   UNL     1       4.903  -3.667   1.105  0.00  0.00    +0.006 C 
ATOM     33  C   UNL     1       4.502  -2.748   2.261  0.00  0.00    +0.009 C 
ENDBRANCH  25  27
ENDBRANCH  14  23
TORSDOF 3
