REMARK  Name = ZINC19794635
REMARK  6 active torsions:
REMARK  status: ('A' for Active; 'I' for Inactive)
REMARK    1  A    between atoms: C_1  and  C_2
REMARK    2  A    between atoms: C_5  and  N_8
REMARK    3  A    between atoms: C_12  and  N_16
REMARK    4  A    between atoms: N_16  and  C_17
REMARK    5  A    between atoms: C_17  and  C_19
REMARK    6  A    between atoms: C_17  and  C_20
REMARK                            x       y       z     vdW  Elec       q    Type
REMARK                         _______ _______ _______ _____ _____    ______ ____
ROOT
ATOM      1  N   UNL     1      -1.107   0.824   2.120  0.00  0.00    +0.389 N 
ATOM      2  H   UNL     1      -2.032   0.387   1.718  0.00  0.00    -0.084 HD
ATOM      3  H   UNL     1      -0.330   0.048   2.178  0.00  0.00    -0.084 HD
ENDROOT
BRANCH   1   8
ATOM      4  N   UNL     1       0.355   1.507  -0.826  0.00  0.00    -0.212 N 
ATOM      5  C   UNL     1       1.386   1.819  -0.031  0.00  0.00    +0.225 C 
ATOM      6  O   UNL     1       2.548   1.864  -0.373  0.00  0.00    -0.275 OA
ATOM      7  C   UNL     1       0.871   2.107   1.363  0.00  0.00    +0.090 C 
ATOM      8  C   UNL     1      -0.653   1.907   1.237  0.00  0.00    +0.026 C 
ATOM      9  C   UNL     1      -0.838   1.524  -0.218  0.00  0.00    +0.213 C 
ATOM     10  O   UNL     1      -1.899   1.274  -0.748  0.00  0.00    -0.277 OA
BRANCH   4  15
ATOM     11  C   UNL     1       0.988   0.220  -6.317  0.00  0.00    +0.044 C 
ATOM     12  C   UNL     1       0.820   0.562  -4.859  0.00  0.00    -0.050 A 
ATOM     13  C   UNL     1       0.397  -0.407  -3.967  0.00  0.00    +0.005 A 
ATOM     14  C   UNL     1       0.242  -0.097  -2.630  0.00  0.00    +0.024 A 
ATOM     15  C   UNL     1       0.511   1.189  -2.182  0.00  0.00    +0.044 A 
ATOM     16  C   UNL     1       0.931   2.161  -3.080  0.00  0.00    +0.024 A 
ATOM     17  C   UNL     1       1.089   1.843  -4.415  0.00  0.00    +0.005 A 
ENDBRANCH   4  15
ENDBRANCH   1   8
BRANCH   1  18
ATOM     18  C   UNL     1      -1.374   1.326   3.475  0.00  0.00    -0.068 C 
ATOM     19  C   UNL     1      -2.807   1.857   3.549  0.00  0.00    -0.013 C 
BRANCH  18  20
ATOM     20  C   UNL     1      -1.198   0.189   4.484  0.00  0.00    -0.041 C 
ATOM     21  C   UNL     1       0.236  -0.341   4.409  0.00  0.00    +0.009 C 
ATOM     22  C   UNL     1       0.412  -1.478   5.418  0.00  0.00    -0.010 C 
ATOM     23  C   UNL     1       0.134  -0.955   6.829  0.00  0.00    +0.007 C 
ATOM     24  C   UNL     1      -1.299  -0.425   6.903  0.00  0.00    -0.010 C 
ATOM     25  C   UNL     1      -1.475   0.712   5.894  0.00  0.00    +0.009 C 
ATOM     26  C   UNL     1      -2.279  -1.554   6.576  0.00  0.00    +0.007 C 
ATOM     27  C   UNL     1      -2.001  -2.076   5.165  0.00  0.00    -0.010 C 
ATOM     28  C   UNL     1      -0.568  -2.607   5.090  0.00  0.00    +0.007 C 
ATOM     29  C   UNL     1      -2.177  -0.940   4.156  0.00  0.00    +0.009 C 
ENDBRANCH  18  20
ENDBRANCH   1  18
TORSDOF 4
