REMARK  Name = ZINC60204145
REMARK  9 active torsions:
REMARK  status: ('A' for Active; 'I' for Inactive)
REMARK    1  A    between atoms: C_1  and  C_2
REMARK    2  A    between atoms: C_5  and  N_9
REMARK    3  A    between atoms: C_10  and  C_12
REMARK    4  A    between atoms: C_12  and  N_13
REMARK    5  A    between atoms: C_14  and  C_16
REMARK    6  A    between atoms: C_16  and  N_17
REMARK    7  A    between atoms: C_22  and  C_29
REMARK    8  A    between atoms: C_25  and  C_27
REMARK    9  A    between atoms: C_25  and  C_28
REMARK                            x       y       z     vdW  Elec       q    Type
REMARK                         _______ _______ _______ _____ _____    ______ ____
ROOT
ATOM      1  N   UNL     1      -0.236  -6.790  -2.663  0.00  0.00    -0.305 N 
ATOM      2  C   UNL     1      -0.330  -8.115  -2.894  0.00  0.00    +0.231 C 
ATOM      3  O   UNL     1      -0.333  -8.894  -1.965  0.00  0.00    -0.274 OA
ATOM      4  H   UNL     1      -0.233  -6.167  -3.407  0.00  0.00    +0.149 HD
ENDROOT
BRANCH   1   5
ATOM      5  C   UNL     1      -0.137  -6.292  -1.289  0.00  0.00    +0.200 C 
BRANCH   5   7
ATOM      6  N   UNL     1       0.056  -4.105  -0.148  0.00  0.00    -0.283 N 
ATOM      7  C   UNL     1      -0.044  -4.787  -1.306  0.00  0.00    +0.234 C 
ATOM      8  O   UNL     1      -0.058  -4.191  -2.362  0.00  0.00    -0.274 OA
ATOM      9  H   UNL     1       0.151  -4.584   0.690  0.00  0.00    +0.155 HD
BRANCH   6  14
ATOM     10  C   UNL     1      -0.084   1.567  -0.176  0.00  0.00    +0.044 C 
ATOM     11  C   UNL     1      -0.046   0.061  -0.169  0.00  0.00    -0.049 A 
ATOM     12  C   UNL     1      -0.636  -0.649  -1.198  0.00  0.00    +0.005 A 
ATOM     13  C   UNL     1      -0.604  -2.030  -1.194  0.00  0.00    +0.025 A 
ATOM     14  C   UNL     1       0.022  -2.706  -0.155  0.00  0.00    +0.052 A 
ATOM     15  C   UNL     1       0.615  -1.990   0.878  0.00  0.00    +0.062 A 
ATOM     16  C   UNL     1       0.583  -0.608   0.865  0.00  0.00    +0.025 A 
ATOM     17 CL   UNL     1       1.398  -2.830   2.179  0.00  0.00    -0.082 Cl
ENDBRANCH   6  14
ENDBRANCH   5   7
ENDBRANCH   1   5
BRANCH   2  18
ATOM     18  C   UNL     1      -0.432  -8.628  -4.308  0.00  0.00    +0.213 C 
BRANCH  18  19
ATOM     19  N   UNL     1      -0.522 -10.090  -4.291  0.00  0.00    -0.215 N 
ATOM     20  C   UNL     1       0.543 -10.916  -4.332  0.00  0.00    +0.247 C 
ATOM     21  O   UNL     1       1.713 -10.603  -4.387  0.00  0.00    -0.273 OA
ATOM     22  C   UNL     1      -0.028 -12.315  -4.294  0.00  0.00    +0.113 C 
ATOM     23  C   UNL     1       0.460 -13.055  -3.053  0.00  0.00    +0.038 C 
ATOM     24  C   UNL     1      -0.154 -14.457  -3.018  0.00  0.00    -0.011 C 
ATOM     25  C   UNL     1       0.249 -15.221  -4.281  0.00  0.00    +0.009 C 
ATOM     26  C   UNL     1      -0.268 -14.479  -5.515  0.00  0.00    -0.032 C 
ATOM     27  C   UNL     1       0.346 -13.077  -5.560  0.00  0.00    +0.041 C 
ATOM     28  C   UNL     1       0.127 -15.249  -6.776  0.00  0.00    +0.011 C 
ATOM     29  C   UNL     1      -1.792 -14.366  -5.441  0.00  0.00    +0.011 C 
ATOM     30  C   UNL     1       0.353 -15.206  -1.784  0.00  0.00    +0.007 C 
ATOM     31  N   UNL     1      -1.480 -12.105  -4.230  0.00  0.00    -0.285 N 
ATOM     32  C   UNL     1      -1.673 -10.772  -4.228  0.00  0.00    +0.310 C 
ATOM     33  O   UNL     1      -2.768 -10.247  -4.177  0.00  0.00    -0.252 OA
ATOM     34  H   UNL     1      -2.165 -12.790  -4.193  0.00  0.00    +0.151 HD
ENDBRANCH  18  19
ENDBRANCH   2  18
TORSDOF 5
