REMARK  Name = ZINC08686847
REMARK  12 active torsions:
REMARK  status: ('A' for Active; 'I' for Inactive)
REMARK    1  A    between atoms: C_1  and  C_2
REMARK    2  A    between atoms: C_2  and  C_4
REMARK    3  A    between atoms: C_2  and  O_15
REMARK    4  A    between atoms: N_6  and  C_7
REMARK    5  A    between atoms: N_6  and  C_8
REMARK    6  A    between atoms: C_8  and  C_9
REMARK    7  A    between atoms: O_15  and  C_16
REMARK    8  A    between atoms: C_16  and  C_18
REMARK    9  A    between atoms: C_23  and  N_24
REMARK   10  A    between atoms: N_24  and  S_25
REMARK   11  A    between atoms: S_25  and  C_28
REMARK   12  A    between atoms: C_32  and  N_34
REMARK                            x       y       z     vdW  Elec       q    Type
REMARK                         _______ _______ _______ _____ _____    ______ ____
ROOT
ATOM      1  C   UNL     1       2.746  -0.362   2.517  0.00  0.00    +0.083 A 
ATOM      2  C   UNL     1       2.074  -0.266   3.739  0.00  0.00    +0.017 A 
ATOM      3  C   UNL     1       2.779  -0.352   4.919  0.00  0.00    +0.001 A 
ATOM      4  C   UNL     1       4.153  -0.534   4.903  0.00  0.00    +0.002 A 
ATOM      5  C   UNL     1       4.831  -0.631   3.705  0.00  0.00    +0.027 A 
ATOM      6  C   UNL     1       4.137  -0.552   2.504  0.00  0.00    +0.088 A 
ENDROOT
BRANCH   1   7
ATOM      7  C   UNL     1       1.999  -0.271   1.251  0.00  0.00    +0.342 C 
ATOM      8  O   UNL     1       2.586  -0.360   0.191  0.00  0.00    -0.245 OA
BRANCH   7   9
ATOM      9  O   UNL     1       0.664  -0.088   1.268  0.00  0.00    -0.449 OA
BRANCH   9  11
ATOM     10  C   UNL     1      -0.037   1.449  -0.460  0.00  0.00    +0.062 C 
ATOM     11  C   UNL     1       0.003  -0.009   0.003  0.00  0.00    +0.259 C 
BRANCH  11  12
ATOM     12  C   UNL     1      -1.403  -0.532   0.137  0.00  0.00    +0.256 C 
ATOM     13  O   UNL     1      -1.898  -0.668   1.236  0.00  0.00    -0.272 OA
ATOM     14  N   UNL     1      -2.112  -0.850  -0.965  0.00  0.00    -0.297 N 
ATOM     15  C   UNL     1      -1.477  -0.800  -2.284  0.00  0.00    +0.132 C 
BRANCH  14  16
ATOM     16  C   UNL     1      -3.517  -1.247  -0.843  0.00  0.00    +0.142 C 
BRANCH  16  17
ATOM     17  C   UNL     1      -4.394  -0.025  -0.939  0.00  0.00    -0.030 A 
ATOM     18  C   UNL     1      -4.728   0.678   0.204  0.00  0.00    +0.005 A 
ATOM     19  C   UNL     1      -5.532   1.799   0.116  0.00  0.00    +0.000 A 
ATOM     20  C   UNL     1      -6.002   2.217  -1.115  0.00  0.00    +0.000 A 
ATOM     21  C   UNL     1      -5.667   1.515  -2.258  0.00  0.00    +0.000 A 
ATOM     22  C   UNL     1      -4.859   0.396  -2.170  0.00  0.00    +0.005 A 
ENDBRANCH  16  17
ENDBRANCH  14  16
ENDBRANCH  11  12
ENDBRANCH   9  11
ENDBRANCH   7   9
ENDBRANCH   1   7
BRANCH   6  23
ATOM     23  N   UNL     1       4.816  -0.655   1.298  0.00  0.00    -0.097 NA
BRANCH  23  24
ATOM     24  S   UNL     1       6.457  -0.879   1.288  0.00  0.00    +0.092 S 
ATOM     25  O   UNL     1       7.032   0.304   1.826  0.00  0.00    -0.148 OA
ATOM     26  O   UNL     1       6.695  -2.164   1.847  0.00  0.00    -0.148 OA
BRANCH  24  27
ATOM     27  C   UNL     1       6.962  -0.962  -0.398  0.00  0.00    +0.112 A 
ATOM     28  C   UNL     1       6.992  -2.181  -1.051  0.00  0.00    +0.029 A 
ATOM     29  C   UNL     1       7.387  -2.251  -2.374  0.00  0.00    +0.004 A 
ATOM     30  C   UNL     1       7.753  -1.103  -3.049  0.00  0.00    +0.023 A 
ATOM     31  C   UNL     1       7.724   0.123  -2.396  0.00  0.00    +0.026 A 
ATOM     32  C   UNL     1       7.321   0.191  -1.068  0.00  0.00    +0.051 A 
BRANCH  31  33
ATOM     33  N   UNL     1       8.093   1.287  -3.075  0.00  0.00    -0.358 N 
ATOM     34  H   UNL     1       8.371   1.239  -4.003  0.00  0.00    +0.142 HD
ATOM     35  H   UNL     1       8.072   2.142  -2.619  0.00  0.00    +0.142 HD
ENDBRANCH  31  33
ENDBRANCH  24  27
ENDBRANCH  23  24
ENDBRANCH   6  23
TORSDOF 10
