REMARK  Name = ZINC48673755
REMARK  8 active torsions:
REMARK  status: ('A' for Active; 'I' for Inactive)
REMARK    1  A    between atoms: C_1  and  C_2
REMARK    2  A    between atoms: C_2  and  C_3
REMARK    3  A    between atoms: C_3  and  N_4
REMARK    4  A    between atoms: N_4  and  C_5
REMARK    5  A    between atoms: N_4  and  S_10
REMARK    6  A    between atoms: C_5  and  C_6
REMARK    7  A    between atoms: N_8  and  C_9
REMARK    8  A    between atoms: S_10  and  C_13
REMARK                            x       y       z     vdW  Elec       q    Type
REMARK                         _______ _______ _______ _____ _____    ______ ____
ROOT
ATOM      1  S   UNL     1       2.055  -2.776  -0.676  0.00  0.00    +0.061 S 
ATOM      2  O   UNL     1       2.053  -4.054  -1.296  0.00  0.00    -0.153 OA
ATOM      3  O   UNL     1       3.158  -1.885  -0.769  0.00  0.00    -0.153 OA
ENDROOT
BRANCH   1   4
ATOM      4  C   UNL     1       1.772  -3.050   1.042  0.00  0.00    +0.108 A 
ATOM      5  C   UNL     1       2.187  -2.111   1.968  0.00  0.00    +0.031 A 
ATOM      6  C   UNL     1       1.967  -2.324   3.316  0.00  0.00    +0.043 A 
ATOM      7  C   UNL     1       1.329  -3.477   3.740  0.00  0.00    +0.159 A 
ATOM      8  C   UNL     1       0.913  -4.418   2.811  0.00  0.00    +0.160 A 
ATOM      9  C   UNL     1       1.131  -4.200   1.461  0.00  0.00    +0.069 A 
ATOM     10  F   UNL     1       0.291  -5.544   3.222  0.00  0.00    -0.202 F 
ATOM     11  F   UNL     1       1.114  -3.685   5.057  0.00  0.00    -0.202 F 
ENDBRANCH   1   4
BRANCH   1  12
ATOM     12  N   UNL     1       0.738  -1.962  -1.265  0.00  0.00    -0.168 NA
BRANCH  12  13
ATOM     13  C   UNL     1       0.718  -0.497  -1.257  0.00  0.00    +0.110 C 
BRANCH  13  15
ATOM     14  C   UNL     1      -0.019   1.526   0.010  0.00  0.00    +0.005 C 
ATOM     15  C   UNL     1       0.002  -0.004   0.002  0.00  0.00    +0.014 C 
ENDBRANCH  13  15
ENDBRANCH  12  13
BRANCH  12  16
ATOM     16  C   UNL     1      -0.407  -2.708  -1.794  0.00  0.00    +0.205 C 
BRANCH  16  17
ATOM     17  C   UNL     1      -0.271  -2.841  -3.289  0.00  0.00    +0.229 C 
ATOM     18  O   UNL     1       0.687  -2.362  -3.857  0.00  0.00    -0.274 OA
ATOM     19  N   UNL     1      -1.215  -3.494  -3.995  0.00  0.00    -0.317 N 
ATOM     20  C   UNL     1      -1.084  -3.624  -5.449  0.00  0.00    +0.128 C 
ATOM     21  H   UNL     1      -1.982  -3.878  -3.542  0.00  0.00    +0.148 HD
ENDBRANCH  16  17
ENDBRANCH  12  16
ENDBRANCH   1  12
TORSDOF 6
