REMARK  Name = ZINC01106057
REMARK  6 active torsions:
REMARK  status: ('A' for Active; 'I' for Inactive)
REMARK    1  A    between atoms: C_1  and  O_2
REMARK    2  A    between atoms: O_2  and  C_3
REMARK    3  A    between atoms: C_3  and  C_4
REMARK    4  A    between atoms: C_3  and  O_23
REMARK    5  A    between atoms: N_15  and  C_16
REMARK    6  A    between atoms: O_23  and  C_24
REMARK                            x       y       z     vdW  Elec       q    Type
REMARK                         _______ _______ _______ _____ _____    ______ ____
ROOT
ATOM      1  C   UNL     1       1.097  -2.012   1.413  0.00  0.00    +0.223 C 
ATOM      2  N   UNL     1       1.265  -2.139  -0.039  0.00  0.00    -0.321 N 
ATOM      3  C   UNL     1       2.552  -2.135  -0.567  0.00  0.00    +0.041 A 
ATOM      4  C   UNL     1       2.814  -1.673  -1.845  0.00  0.00    +0.024 A 
ATOM      5  C   UNL     1       4.107  -1.698  -2.330  0.00  0.00    +0.002 A 
ATOM      6  C   UNL     1       5.143  -2.183  -1.548  0.00  0.00    +0.001 A 
ATOM      7  C   UNL     1       4.900  -2.644  -0.271  0.00  0.00    +0.015 A 
ATOM      8  C   UNL     1       3.601  -2.619   0.233  0.00  0.00    +0.058 A 
ATOM      9  C   UNL     1       3.294  -3.077   1.599  0.00  0.00    +0.254 C 
ATOM     10  O   UNL     1       4.139  -3.652   2.258  0.00  0.00    -0.270 OA
ATOM     11  N   UNL     1       2.071  -2.852   2.110  0.00  0.00    -0.243 N 
ATOM     12  H   UNL     1       0.493  -2.224  -0.620  0.00  0.00    +0.148 HD
ENDROOT
BRANCH  11  13
ATOM     13  C   UNL     1       1.725  -3.435   3.334  0.00  0.00    +0.039 A 
ATOM     14  C   UNL     1       2.341  -3.011   4.504  0.00  0.00    +0.026 A 
ATOM     15  C   UNL     1       1.997  -3.587   5.712  0.00  0.00    +0.040 A 
ATOM     16  C   UNL     1       1.040  -4.587   5.756  0.00  0.00    +0.124 A 
ATOM     17  C   UNL     1       0.425  -5.011   4.590  0.00  0.00    +0.040 A 
ATOM     18  C   UNL     1       0.761  -4.434   3.381  0.00  0.00    +0.026 A 
ATOM     19  F   UNL     1       0.706  -5.149   6.938  0.00  0.00    -0.205 F 
ENDBRANCH  11  13
BRANCH   1  20
ATOM     20  C   UNL     1       1.304  -0.552   1.821  0.00  0.00    +0.289 C 
BRANCH  20  22
ATOM     21  C   UNL     1       0.064   1.497   1.914  0.00  0.00    +0.197 C 
ATOM     22  O   UNL     1       0.278   0.255   1.240  0.00  0.00    -0.351 OA
ENDBRANCH  20  22
BRANCH  20  23
ATOM     23  O   UNL     1       2.580  -0.105   1.359  0.00  0.00    -0.351 OA
ATOM     24  C   UNL     1       3.036   1.097   1.983  0.00  0.00    +0.197 C 
ENDBRANCH  20  23
ENDBRANCH   1  20
TORSDOF 4
