REMARK  Name = ZINC40565503
REMARK  9 active torsions:
REMARK  status: ('A' for Active; 'I' for Inactive)
REMARK    1  A    between atoms: C_1  and  C_2
REMARK    2  A    between atoms: N_17  and  C_18
REMARK    3  A    between atoms: C_26  and  C_41
REMARK    4  A    between atoms: C_29  and  O_40
REMARK    5  A    between atoms: C_32  and  C_39
REMARK    6  A    between atoms: C_33  and  C_34
REMARK    7  A    between atoms: C_33  and  O_38
REMARK    8  A    between atoms: C_34  and  C_36
REMARK    9  A    between atoms: C_36  and  O_37
REMARK                            x       y       z     vdW  Elec       q    Type
REMARK                         _______ _______ _______ _____ _____    ______ ____
ROOT
ATOM      1  C   UNL     1       0.115   1.638   0.128  0.00  0.00    +0.011 C 
ATOM      2  C   UNL     1       0.087   0.114   0.002  0.00  0.00    +0.026 C 
ATOM      3  C   UNL     1      -1.369  -0.397   0.071  0.00  0.00    +0.011 C 
ATOM      4  C   UNL     1      -1.561  -0.769   1.572  0.00  0.00    +0.002 C 
ATOM      5  C   UNL     1      -1.792   0.552   2.317  0.00  0.00    -0.001 C 
ATOM      6  C   UNL     1      -3.218   1.001   2.010  0.00  0.00    +0.008 C 
ATOM      7  C   UNL     1      -3.813   1.865   3.111  0.00  0.00    +0.031 C 
ATOM      8  C   UNL     1      -2.711   2.598   3.836  0.00  0.00    -0.061 C 
ATOM      9  C   UNL     1      -2.747   3.930   3.904  0.00  0.00    +0.028 C 
ATOM     10  C   UNL     1      -1.625   4.602   4.580  0.00  0.00    +0.071 A 
ATOM     11  C   UNL     1      -0.444   3.916   4.845  0.00  0.00    -0.001 A 
ATOM     12  C   UNL     1       0.417   4.791   5.477  0.00  0.00    +0.139 A 
ATOM     13  N   UNL     1      -0.181   5.957   5.591  0.00  0.00    -0.174 NA
ATOM     14  N   UNL     1      -1.464   5.866   5.023  0.00  0.00    -0.231 N 
ATOM     15  C   UNL     1      -0.270   2.474   4.447  0.00  0.00    +0.050 C 
ATOM     16  C   UNL     1      -1.636   1.785   4.498  0.00  0.00    -0.001 C 
ATOM     17  C   UNL     1      -1.557   0.412   3.810  0.00  0.00    +0.031 C 
ATOM     18  C   UNL     1      -0.136  -0.113   4.066  0.00  0.00    +0.119 C 
ATOM     19  C   UNL     1       0.011  -1.490   3.426  0.00  0.00    +0.041 C 
ATOM     20  C   UNL     1      -0.203  -1.403   1.910  0.00  0.00    +0.009 C 
ATOM     21  C   UNL     1       0.834  -0.529   1.188  0.00  0.00    +0.134 C 
ATOM     22  C   UNL     1      -0.146  -2.809   1.311  0.00  0.00    +0.015 C 
ATOM     23  C   UNL     1      -2.020   1.555   5.961  0.00  0.00    +0.016 C 
ENDROOT
BRANCH  14  24
ATOM     24  C   UNL     1      -2.405   6.902   4.934  0.00  0.00    +0.084 A 
ATOM     25  C   UNL     1      -2.504   7.855   5.945  0.00  0.00    +0.034 A 
ATOM     26  C   UNL     1      -3.448   8.859   5.813  0.00  0.00    +0.061 A 
ATOM     27  C   UNL     1      -4.256   8.883   4.687  0.00  0.00    +0.213 A 
ATOM     28  N   UNL     1      -4.136   7.963   3.748  0.00  0.00    -0.225 NA
ATOM     29  C   UNL     1      -3.246   6.994   3.834  0.00  0.00    +0.141 A 
ATOM     30  F   UNL     1      -5.180   9.859   4.551  0.00  0.00    -0.184 F 
ENDBRANCH  14  24
BRANCH  21  31
ATOM     31  C   UNL     1       1.972  -1.380   0.686  0.00  0.00    +0.190 C 
ATOM     32  O   UNL     1       1.925  -1.859  -0.421  0.00  0.00    -0.292 OA
BRANCH  31  33
ATOM     33  C   UNL     1       3.168  -1.633   1.567  0.00  0.00    +0.233 C 
BRANCH  33  34
ATOM     34  O   UNL     1       4.104  -2.461   0.873  0.00  0.00    -0.387 OA
ATOM     35  H   UNL     1       4.901  -2.665   1.381  0.00  0.00    +0.210 HD
ENDBRANCH  33  34
ENDBRANCH  31  33
ENDBRANCH  21  31
BRANCH  21  36
ATOM     36  O   UNL     1       1.325   0.483   2.069  0.00  0.00    -0.380 OA
ATOM     37  H   UNL     1       1.958   1.087   1.659  0.00  0.00    +0.211 HD
ENDBRANCH  21  36
BRANCH  18  38
ATOM     38  O   UNL     1       0.090  -0.212   5.474  0.00  0.00    -0.391 OA
ATOM     39  H   UNL     1       0.969  -0.538   5.709  0.00  0.00    +0.210 HD
ENDBRANCH  18  38
TORSDOF 6
