REMARK  Name = ZINC43763554
REMARK  4 active torsions:
REMARK  status: ('A' for Active; 'I' for Inactive)
REMARK    1  A    between atoms: C_1  and  C_2
REMARK    2  A    between atoms: C_5  and  S_8
REMARK    3  A    between atoms: S_8  and  N_11
REMARK    4  A    between atoms: N_11  and  N_12
REMARK                            x       y       z     vdW  Elec       q    Type
REMARK                         _______ _______ _______ _____ _____    ______ ____
ROOT
ATOM      1  N   UNL     1       2.500  -4.622   1.014  0.00  0.00    -0.174 NA
ATOM      2  C   UNL     1       3.728  -4.984   1.005  0.00  0.00    +0.050 C 
ATOM      3  C   UNL     1       4.320  -5.820  -0.120  0.00  0.00    +0.065 C 
ATOM      4  C   UNL     1       5.811  -6.054   0.220  0.00  0.00    +0.047 C 
ATOM      5  C   UNL     1       6.414  -4.663   0.425  0.00  0.00    -0.022 C 
ATOM      6  C   UNL     1       5.864  -3.932   1.389  0.00  0.00    -0.017 C 
ATOM      7  C   UNL     1       4.704  -4.600   2.125  0.00  0.00    +0.088 C 
ATOM      8  C   UNL     1       5.265  -5.929   2.606  0.00  0.00    -0.031 A 
ATOM      9  C   UNL     1       5.840  -6.721   1.582  0.00  0.00    -0.036 A 
ATOM     10  C   UNL     1       6.382  -7.948   1.841  0.00  0.00    +0.004 A 
ATOM     11  C   UNL     1       6.345  -8.436   3.141  0.00  0.00    +0.000 A 
ATOM     12  C   UNL     1       5.771  -7.691   4.154  0.00  0.00    +0.000 A 
ATOM     13  C   UNL     1       5.231  -6.375   3.895  0.00  0.00    +0.005 A 
ENDROOT
BRANCH   1  14
ATOM     14  N   UNL     1       1.651  -4.999  -0.034  0.00  0.00    -0.137 N 
ATOM     15  H   UNL     1       1.993  -5.536  -0.767  0.00  0.00    +0.197 HD
BRANCH  14  16
ATOM     16  S   UNL     1       0.063  -4.530  -0.023  0.00  0.00    +0.086 S 
ATOM     17  O   UNL     1      -0.476  -4.950   1.223  0.00  0.00    -0.149 OA
ATOM     18  O   UNL     1      -0.490  -4.937  -1.267  0.00  0.00    -0.149 OA
BRANCH  16  23
ATOM     19  C   UNL     1      -0.018   1.503   0.010  0.00  0.00    +0.044 C 
ATOM     20  C   UNL     1       0.002  -0.004   0.002  0.00  0.00    -0.050 A 
ATOM     21  C   UNL     1       0.006  -0.689  -1.199  0.00  0.00    +0.005 A 
ATOM     22  C   UNL     1       0.025  -2.071  -1.206  0.00  0.00    +0.029 A 
ATOM     23  C   UNL     1       0.040  -2.768  -0.013  0.00  0.00    +0.110 A 
ATOM     24  C   UNL     1       0.037  -2.084   1.188  0.00  0.00    +0.029 A 
ATOM     25  C   UNL     1       0.023  -0.702   1.195  0.00  0.00    +0.005 A 
ENDBRANCH  16  23
ENDBRANCH  14  16
ENDBRANCH   1  14
TORSDOF 3
