REMARK  Name = ZINC40139465
REMARK  8 active torsions:
REMARK  status: ('A' for Active; 'I' for Inactive)
REMARK    1  A    between atoms: C_1  and  C_2
REMARK    2  A    between atoms: N_8  and  C_9
REMARK    3  A    between atoms: C_9  and  C_10
REMARK    4  A    between atoms: C_10  and  C_11
REMARK    5  A    between atoms: C_11  and  N_12
REMARK    6  A    between atoms: N_15  and  C_16
REMARK    7  A    between atoms: C_16  and  C_18
REMARK    8  A    between atoms: C_16  and  C_19
REMARK                            x       y       z     vdW  Elec       q    Type
REMARK                         _______ _______ _______ _____ _____    ______ ____
ROOT
ATOM      1  C   UNL     1       0.088  -7.200  -2.081  0.00  0.00    +0.107 C 
ENDROOT
BRANCH   1   2
ATOM      2  N   UNL     1       0.108  -8.629  -1.760  0.00  0.00    -0.299 N 
ATOM      3  C   UNL     1       0.116  -9.542  -2.751  0.00  0.00    +0.300 C 
ATOM      4  O   UNL     1       0.105  -9.180  -3.912  0.00  0.00    -0.253 OA
ATOM      5  N   UNL     1       0.135 -10.857  -2.456  0.00  0.00    -0.292 N 
ATOM      6  H   UNL     1       0.117  -8.918  -0.834  0.00  0.00    +0.150 HD
ATOM      7  H   UNL     1       0.143 -11.146  -1.530  0.00  0.00    +0.151 HD
BRANCH   5   8
ATOM      8  C   UNL     1       0.142 -11.850  -3.533  0.00  0.00    +0.108 C 
ATOM      9  C   UNL     1       1.580 -12.084  -4.000  0.00  0.00    +0.033 C 
BRANCH   8  10
ATOM     10  C   UNL     1      -0.439 -13.145  -3.027  0.00  0.00    +0.010 A 
ATOM     11  C   UNL     1      -1.266 -14.013  -3.659  0.00  0.00    +0.013 A 
ATOM     12  C   UNL     1      -1.676 -15.153  -2.992  0.00  0.00    +0.008 A 
ATOM     13  C   UNL     1      -1.239 -15.368  -1.727  0.00  0.00    +0.045 A 
ATOM     14  S   UNL     1      -0.210 -13.937  -1.444  0.00  0.00    -0.100 S 
ENDBRANCH   8  10
ENDBRANCH   5   8
ENDBRANCH   1   2
BRANCH   1  15
ATOM     15  C   UNL     1       0.084  -6.386  -0.785  0.00  0.00    +0.037 C 
BRANCH  15  16
ATOM     16  C   UNL     1       0.062  -4.893  -1.120  0.00  0.00    +0.104 C 
BRANCH  16  24
ATOM     17  C   UNL     1      -0.018   1.503   0.010  0.00  0.00    +0.045 C 
ATOM     18  C   UNL     1       0.002  -0.004   0.002  0.00  0.00    -0.034 A 
ATOM     19  C   UNL     1       0.006  -0.699  -1.200  0.00  0.00    +0.008 A 
ATOM     20  C   UNL     1       0.025  -2.081  -1.164  0.00  0.00    +0.042 A 
ATOM     21  C   UNL     1       0.039  -2.725   0.069  0.00  0.00    +0.096 A 
ATOM     22  N   UNL     1       0.035  -2.027   1.194  0.00  0.00    -0.350 N 
ATOM     23  C   UNL     1       0.023  -0.708   1.189  0.00  0.00    +0.087 A 
ATOM     24  N   UNL     1       0.058  -4.114   0.121  0.00  0.00    -0.330 N 
ATOM     25  H   UNL     1       0.068  -4.568   0.978  0.00  0.00    +0.147 HD
ATOM     26  H   UNL     1       0.045  -2.497   2.043  0.00  0.00    +0.167 HD
ENDBRANCH  16  24
ENDBRANCH  15  16
ENDBRANCH   1  15
TORSDOF 6
