REMARK  Name = ZINC65443920
REMARK  7 active torsions:
REMARK  status: ('A' for Active; 'I' for Inactive)
REMARK    1  A    between atoms: C_1  and  C_2
REMARK    2  A    between atoms: C_2  and  C_4
REMARK    3  A    between atoms: C_2  and  N_23
REMARK    4  A    between atoms: C_4  and  N_5
REMARK    5  A    between atoms: N_8  and  C_9
REMARK    6  A    between atoms: C_9  and  C_11
REMARK    7  A    between atoms: C_9  and  C_12
REMARK                            x       y       z     vdW  Elec       q    Type
REMARK                         _______ _______ _______ _____ _____    ______ ____
ROOT
ATOM      1  N   UNL     1       0.870  -2.026   1.079  0.00  0.00    -0.301 N 
ATOM      2  C   UNL     1       1.489  -2.741   2.039  0.00  0.00    +0.300 C 
ATOM      3  O   UNL     1       2.054  -2.171   2.953  0.00  0.00    -0.253 OA
ATOM      4  N   UNL     1       1.483  -4.088   1.987  0.00  0.00    -0.293 N 
ATOM      5  H   UNL     1       0.419  -2.481   0.351  0.00  0.00    +0.150 HD
ATOM      6  H   UNL     1       1.032  -4.543   1.258  0.00  0.00    +0.151 HD
ENDROOT
BRANCH   4   7
ATOM      7  C   UNL     1       2.157  -4.864   3.030  0.00  0.00    +0.102 C 
ATOM      8  C   UNL     1       1.210  -5.052   4.218  0.00  0.00    +0.033 C 
BRANCH   7   9
ATOM      9  C   UNL     1       2.547  -6.212   2.481  0.00  0.00    -0.027 A 
ATOM     10  C   UNL     1       1.685  -6.889   1.636  0.00  0.00    +0.007 A 
ATOM     11  C   UNL     1       2.039  -8.124   1.130  0.00  0.00    +0.024 A 
ATOM     12  C   UNL     1       3.262  -8.687   1.470  0.00  0.00    +0.037 A 
ATOM     13  C   UNL     1       4.125  -8.005   2.318  0.00  0.00    -0.025 A 
ATOM     14  C   UNL     1       3.768  -6.768   2.817  0.00  0.00    +0.011 A 
ATOM     15  C   UNL     1       5.452  -8.615   2.686  0.00  0.00    +0.046 C 
ATOM     16  C   UNL     1       5.310 -10.135   2.772  0.00  0.00    +0.101 C 
ATOM     17  C   UNL     1       4.603 -10.653   1.548  0.00  0.00    +0.218 C 
ATOM     18  O   UNL     1       4.918 -11.729   1.085  0.00  0.00    -0.275 OA
ATOM     19  N   UNL     1       3.627  -9.937   0.961  0.00  0.00    -0.285 N 
ATOM     20  H   UNL     1       3.173 -10.290   0.180  0.00  0.00    +0.155 HD
ENDBRANCH   7   9
ENDBRANCH   4   7
BRANCH   1  21
ATOM     21  C   UNL     1       0.876  -0.562   1.136  0.00  0.00    +0.090 C 
BRANCH  21  23
ATOM     22  C   UNL     1      -1.457  -0.404   0.257  0.00  0.00    -0.012 C 
ATOM     23  C   UNL     1      -0.000  -0.004   0.013  0.00  0.00    -0.054 C 
BRANCH  23  24
ATOM     24  N   UNL     1       0.108   1.460  -0.011  0.00  0.00    +0.382 N 
ATOM     25  C   UNL     1       1.508   1.866  -0.297  0.00  0.00    -0.078 C 
ATOM     26  C   UNL     1       1.355   3.310  -0.837  0.00  0.00    -0.020 C 
ATOM     27  C   UNL     1       0.055   3.232  -1.670  0.00  0.00    -0.020 C 
ATOM     28  C   UNL     1      -0.706   2.014  -1.114  0.00  0.00    -0.078 C 
ATOM     29  H   UNL     1      -0.193   1.846   0.872  0.00  0.00    -0.081 HD
ENDBRANCH  23  24
ENDBRANCH  21  23
ENDBRANCH   1  21
TORSDOF 5
