REMARK  Name = ZINC58823924
REMARK  6 active torsions:
REMARK  status: ('A' for Active; 'I' for Inactive)
REMARK    1  A    between atoms: C_1  and  C_2
REMARK    2  A    between atoms: C_2  and  C_32
REMARK    3  A    between atoms: C_6  and  C_19
REMARK    4  A    between atoms: C_21  and  O_27
REMARK    5  A    between atoms: C_22  and  O_26
REMARK    6  A    between atoms: O_27  and  C_28
REMARK                            x       y       z     vdW  Elec       q    Type
REMARK                         _______ _______ _______ _____ _____    ______ ____
ROOT
ATOM      1  C   UNL     1      -0.019   1.526   0.010  0.00  0.00    +0.011 C 
ATOM      2  C   UNL     1       0.002  -0.004   0.002  0.00  0.00    -0.023 C 
ATOM      3  C   UNL     1       0.742  -0.503  -1.240  0.00  0.00    +0.058 C 
ATOM      4  C   UNL     1       2.168  -0.001  -1.218  0.00  0.00    +0.016 C 
ATOM      5  C   UNL     1       2.814   0.188  -0.050  0.00  0.00    +0.024 C 
ATOM      6  C   UNL     1       4.245   0.674   0.011  0.00  0.00    +0.089 C 
ATOM      7  C   UNL     1       4.652   1.218  -1.332  0.00  0.00    +0.033 C 
ATOM      8  C   UNL     1       3.918   0.990  -2.468  0.00  0.00    +0.047 C 
ATOM      9  N   UNL     1       2.760   0.249  -2.433  0.00  0.00    -0.317 N 
ATOM     10  C   UNL     1       4.577   1.643  -3.603  0.00  0.00    +0.007 A 
ATOM     11  C   UNL     1       4.252   1.711  -4.949  0.00  0.00    +0.010 A 
ATOM     12  C   UNL     1       5.119   2.433  -5.774  0.00  0.00    +0.001 A 
ATOM     13  C   UNL     1       6.245   3.051  -5.284  0.00  0.00    +0.001 A 
ATOM     14  C   UNL     1       6.587   2.991  -3.929  0.00  0.00    +0.012 A 
ATOM     15  C   UNL     1       5.740   2.281  -3.101  0.00  0.00    +0.031 A 
ATOM     16  C   UNL     1       5.782   2.007  -1.648  0.00  0.00    +0.193 C 
ATOM     17  O   UNL     1       6.632   2.390  -0.868  0.00  0.00    -0.287 OA
ATOM     18  C   UNL     1       2.172  -0.058   1.180  0.00  0.00    +0.162 C 
ATOM     19  O   UNL     1       2.789   0.104   2.214  0.00  0.00    -0.292 OA
ATOM     20  C   UNL     1       0.742  -0.517   1.242  0.00  0.00    +0.086 C 
ATOM     21  C   UNL     1      -1.431  -0.539  -0.001  0.00  0.00    +0.011 C 
ATOM     22  H   UNL     1       2.367  -0.090  -3.252  0.00  0.00    +0.152 HD
ENDROOT
BRANCH   6  23
ATOM     23  C   UNL     1       5.150  -0.474   0.380  0.00  0.00    -0.031 A 
ATOM     24  C   UNL     1       5.913  -0.407   1.531  0.00  0.00    +0.054 A 
ATOM     25  C   UNL     1       6.745  -1.461   1.873  0.00  0.00    +0.163 A 
ATOM     26  C   UNL     1       6.809  -2.586   1.056  0.00  0.00    +0.173 A 
ATOM     27  C   UNL     1       6.041  -2.647  -0.096  0.00  0.00    +0.063 A 
ATOM     28  C   UNL     1       5.209  -1.593  -0.429  0.00  0.00    +0.023 A 
ATOM     29 BR   UNL     1       6.125  -4.173  -1.209  0.00  0.00    -0.046 Br
BRANCH  26  30
ATOM     30  O   UNL     1       7.625  -3.623   1.387  0.00  0.00    -0.503 OA
ATOM     31  H   UNL     1       7.203  -4.293   1.942  0.00  0.00    +0.292 HD
ENDBRANCH  26  30
BRANCH  25  32
ATOM     32  O   UNL     1       7.497  -1.396   3.004  0.00  0.00    -0.491 OA
ATOM     33  C   UNL     1       7.381  -0.211   3.794  0.00  0.00    +0.277 C 
ENDBRANCH  25  32
ENDBRANCH   6  23
TORSDOF 3
