REMARK  Name = ZINC05018194
REMARK  8 active torsions:
REMARK  status: ('A' for Active; 'I' for Inactive)
REMARK    1  A    between atoms: C_1  and  C_2
REMARK    2  A    between atoms: C_7  and  C_8
REMARK    3  A    between atoms: C_10  and  C_23
REMARK    4  A    between atoms: C_11  and  C_16
REMARK    5  A    between atoms: C_16  and  N_52
REMARK    6  A    between atoms: C_17  and  N_52
REMARK    7  A    between atoms: C_23  and  O_25
REMARK    8  A    between atoms: O_25  and  C_26
REMARK                            x       y       z     vdW  Elec       q    Type
REMARK                         _______ _______ _______ _____ _____    ______ ____
ROOT
ATOM      1  C   UNL     1       0.209   0.835   0.274  0.00  0.00    +0.144 C 
ATOM      2  C   UNL     1      -0.960   1.116   1.197  0.00  0.00    +0.076 C 
ATOM      3  C   UNL     1      -0.827   2.118   2.092  0.00  0.00    +0.007 C 
ATOM      4  N   UNL     1       0.321   2.855   2.160  0.00  0.00    -0.274 N 
ATOM      5  C   UNL     1       1.383   2.650   1.370  0.00  0.00    +0.304 C 
ATOM      6  O   UNL     1       2.362   3.358   1.506  0.00  0.00    -0.252 OA
ATOM      7  N   UNL     1       1.401   1.686   0.429  0.00  0.00    -0.288 N 
ATOM      8  H   UNL     1       0.371   3.565   2.819  0.00  0.00    +0.156 HD
ATOM      9  H   UNL     1       2.180   1.555  -0.133  0.00  0.00    +0.151 HD
ENDROOT
BRANCH   1  16
ATOM     10  C   UNL     1       1.540  -0.595  -1.855  0.00  0.00    +0.044 C 
ATOM     11  C   UNL     1       0.358   0.288  -2.164  0.00  0.00    -0.045 A 
ATOM     12  C   UNL     1      -0.092   0.411  -3.466  0.00  0.00    +0.004 A 
ATOM     13  C   UNL     1      -1.172   1.225  -3.750  0.00  0.00    +0.000 A 
ATOM     14  C   UNL     1      -1.806   1.913  -2.732  0.00  0.00    +0.000 A 
ATOM     15  C   UNL     1      -1.359   1.787  -1.430  0.00  0.00    +0.006 A 
ATOM     16  C   UNL     1      -0.279   0.972  -1.146  0.00  0.00    -0.020 A 
ENDBRANCH   1  16
BRANCH   2  17
ATOM     17  C   UNL     1      -2.148   0.352   1.125  0.00  0.00    +0.338 C 
ATOM     18  O   UNL     1      -2.168  -0.786   1.555  0.00  0.00    -0.245 OA
BRANCH  17  19
ATOM     19  O   UNL     1      -3.261   0.886   0.580  0.00  0.00    -0.465 OA
ATOM     20  C   UNL     1      -4.394   0.026   0.444  0.00  0.00    +0.280 C 
ENDBRANCH  17  19
ENDBRANCH   2  17
BRANCH   3  21
ATOM     21  C   UNL     1      -1.964   2.430   3.030  0.00  0.00    -0.030 C 
BRANCH  21  22
ATOM     22  N   UNL     1      -1.535   2.162   4.416  0.00  0.00    +0.384 N 
ATOM     23  H   UNL     1      -0.726   2.753   4.640  0.00  0.00    -0.085 HD
ATOM     24  H   UNL     1      -1.272   1.173   4.504  0.00  0.00    -0.085 HD
BRANCH  22  25
ATOM     25  C   UNL     1      -2.631   2.459   5.358  0.00  0.00    -0.071 C 
ATOM     26  C   UNL     1      -2.614   3.948   5.707  0.00  0.00    -0.016 C 
ATOM     27  C   UNL     1      -3.745   4.254   6.691  0.00  0.00    -0.002 C 
ATOM     28  C   UNL     1      -3.550   3.429   7.965  0.00  0.00    -0.000 C 
ATOM     29  C   UNL     1      -3.567   1.939   7.615  0.00  0.00    -0.002 C 
ATOM     30  C   UNL     1      -2.435   1.634   6.631  0.00  0.00    -0.016 C 
ENDBRANCH  22  25
ENDBRANCH  21  22
ENDBRANCH   3  21
TORSDOF 6
