REMARK  Name = ZINC40370520
REMARK  8 active torsions:
REMARK  status: ('A' for Active; 'I' for Inactive)
REMARK    1  A    between atoms: C_1  and  C_2
REMARK    2  A    between atoms: C_2  and  C_3
REMARK    3  A    between atoms: C_3  and  C_5
REMARK    4  A    between atoms: C_3  and  N_9
REMARK    5  A    between atoms: N_6  and  O_7
REMARK    6  A    between atoms: C_10  and  C_12
REMARK    7  A    between atoms: C_14  and  C_19
REMARK    8  A    between atoms: C_17  and  C_18
REMARK                            x       y       z     vdW  Elec       q    Type
REMARK                         _______ _______ _______ _____ _____    ______ ____
ROOT
ATOM      1  N   UNL     1       2.046   0.259  -0.593  0.00  0.00    -0.302 N 
ATOM      2  C   UNL     1       2.445   1.390  -1.209  0.00  0.00    +0.245 C 
ATOM      3  O   UNL     1       1.619   2.181  -1.621  0.00  0.00    -0.270 OA
ATOM      4  H   UNL     1       2.705  -0.372  -0.264  0.00  0.00    +0.150 HD
ENDROOT
BRANCH   2   5
ATOM      5  C   UNL     1       3.886   1.668  -1.383  0.00  0.00    +0.040 A 
ATOM      6  C   UNL     1       4.838   0.830  -0.799  0.00  0.00    +0.016 A 
ATOM      7  C   UNL     1       6.181   1.095  -0.965  0.00  0.00    -0.050 A 
ATOM      8  C   UNL     1       6.587   2.189  -1.710  0.00  0.00    +0.003 A 
ATOM      9  C   UNL     1       5.649   3.023  -2.291  0.00  0.00    +0.004 A 
ATOM     10  C   UNL     1       4.302   2.766  -2.137  0.00  0.00    -0.038 A 
ATOM     11  C   UNL     1       3.282   3.673  -2.776  0.00  0.00    +0.044 C 
ATOM     12  C   UNL     1       7.210   0.191  -0.335  0.00  0.00    +0.044 C 
ENDBRANCH   2   5
BRANCH   1  13
ATOM     13  C   UNL     1       0.618  -0.017  -0.421  0.00  0.00    +0.139 C 
BRANCH  13  14
ATOM     14  C   UNL     1       0.405  -1.504  -0.298  0.00  0.00    +0.152 C 
ATOM     15  N   UNL     1      -0.735  -2.021  -0.618  0.00  0.00    -0.075 NA
ATOM     16  N   UNL     1       1.425  -2.311   0.153  0.00  0.00    -0.342 N 
ATOM     17  H   UNL     1       2.281  -1.923   0.393  0.00  0.00    +0.144 HD
ATOM     18  H   UNL     1       1.288  -3.268   0.232  0.00  0.00    +0.144 HD
BRANCH  15  19
ATOM     19  O   UNL     1      -0.936  -3.418  -0.503  0.00  0.00    -0.408 OA
ATOM     20  H   UNL     1      -1.819  -3.711  -0.764  0.00  0.00    +0.328 HD
ENDBRANCH  15  19
ENDBRANCH  13  14
BRANCH  13  22
ATOM     21  C   UNL     1       0.216   2.193   0.673  0.00  0.00    +0.006 C 
ATOM     22  C   UNL     1       0.114   0.676   0.847  0.00  0.00    +0.027 C 
ENDBRANCH  13  22
ENDBRANCH   1  13
TORSDOF 5
