REMARK  Name = ZINC20214382
REMARK  12 active torsions:
REMARK  status: ('A' for Active; 'I' for Inactive)
REMARK    1  A    between atoms: C_1  and  C_2
REMARK    2  A    between atoms: C_2  and  O_3
REMARK    3  A    between atoms: O_3  and  C_4
REMARK    4  A    between atoms: C_4  and  C_6
REMARK    5  A    between atoms: C_7  and  C_24
REMARK    6  A    between atoms: C_12  and  C_14
REMARK    7  A    between atoms: C_17  and  O_20
REMARK    8  A    between atoms: O_20  and  C_21
REMARK    9  A    between atoms: C_21  and  C_22
REMARK   10  A    between atoms: C_21  and  C_23
REMARK   11  A    between atoms: C_24  and  N_25
REMARK   12  A    between atoms: C_28  and  C_31
REMARK                            x       y       z     vdW  Elec       q    Type
REMARK                         _______ _______ _______ _____ _____    ______ ____
ROOT
ATOM      1  C   UNL     1      -0.690   4.432  -1.939  0.00  0.00    +0.079 C 
ATOM      2  C   UNL     1      -1.491   3.627  -1.208  0.00  0.00    +0.038 C 
ATOM      3  N   UNL     1      -2.123   4.091  -0.089  0.00  0.00    -0.271 N 
ATOM      4  C   UNL     1      -1.998   5.342   0.370  0.00  0.00    +0.304 C 
ATOM      5  O   UNL     1      -2.597   5.661   1.378  0.00  0.00    -0.252 OA
ATOM      6  N   UNL     1      -1.234   6.261  -0.253  0.00  0.00    -0.288 N 
ATOM      7  C   UNL     1      -0.513   5.863  -1.474  0.00  0.00    +0.144 C 
ATOM      8  H   UNL     1      -2.779   3.422   0.488  0.00  0.00    +0.156 HD
ATOM      9  H   UNL     1      -1.141   7.288   0.130  0.00  0.00    +0.151 HD
ENDROOT
BRANCH   7  10
ATOM     10  C   UNL     1      -0.954   6.773  -2.591  0.00  0.00    -0.022 A 
ATOM     11  C   UNL     1      -2.300   7.016  -2.794  0.00  0.00    +0.009 A 
ATOM     12  C   UNL     1      -2.706   7.854  -3.814  0.00  0.00    +0.046 A 
ATOM     13  C   UNL     1      -1.762   8.443  -4.643  0.00  0.00    +0.121 A 
ATOM     14  C   UNL     1      -0.413   8.194  -4.441  0.00  0.00    +0.046 A 
ATOM     15  C   UNL     1      -0.011   7.360  -3.416  0.00  0.00    +0.009 A 
BRANCH  13  16
ATOM     16  O   UNL     1      -2.160   9.263  -5.651  0.00  0.00    -0.489 OA
BRANCH  16  17
ATOM     17  C   UNL     1      -3.566   9.383  -5.874  0.00  0.00    +0.167 C 
ATOM     18  C   UNL     1      -4.136  10.472  -4.963  0.00  0.00    +0.051 C 
ATOM     19  C   UNL     1      -3.821   9.756  -7.336  0.00  0.00    +0.051 C 
ENDBRANCH  16  17
ENDBRANCH  13  16
ENDBRANCH   7  10
BRANCH   1  20
ATOM     20  C   UNL     1      -0.039   3.955  -3.100  0.00  0.00    +0.339 C 
ATOM     21  O   UNL     1       1.160   3.744  -3.083  0.00  0.00    -0.245 OA
BRANCH  20  22
ATOM     22  O   UNL     1      -0.746   3.733  -4.228  0.00  0.00    -0.462 OA
BRANCH  22  24
ATOM     23  C   UNL     1      -0.986   3.062  -6.537  0.00  0.00    +0.048 C 
ATOM     24  C   UNL     1      -0.023   3.252  -5.363  0.00  0.00    +0.229 C 
ENDBRANCH  22  24
ENDBRANCH  20  22
ENDBRANCH   1  20
BRANCH   2  25
ATOM     25  C   UNL     1      -1.695   2.197  -1.636  0.00  0.00    +0.135 C 
BRANCH  25  26
ATOM     26  N   UNL     1      -1.141   1.297  -0.616  0.00  0.00    -0.297 NA
ATOM     27  C   UNL     1       0.318   1.436  -0.528  0.00  0.00    +0.085 C 
ATOM     28  C   UNL     1       0.843   0.595   0.639  0.00  0.00    +0.028 C 
ATOM     29  C   UNL     1       0.464  -0.871   0.415  0.00  0.00    +0.077 C 
ATOM     30  C   UNL     1      -1.057  -0.982   0.279  0.00  0.00    +0.028 C 
ATOM     31  C   UNL     1      -1.527  -0.096  -0.877  0.00  0.00    +0.085 C 
BRANCH  29  32
ATOM     32  C   UNL     1       0.926  -1.696   1.589  0.00  0.00    +0.214 C 
ATOM     33  O   UNL     1       0.118  -2.313   2.252  0.00  0.00    -0.276 OA
ATOM     34  N   UNL     1       2.236  -1.749   1.902  0.00  0.00    -0.329 N 
ATOM     35  H   UNL     1       2.573  -2.351   2.758  0.00  0.00    +0.145 HD
ATOM     36  H   UNL     1       2.967  -1.190   1.301  0.00  0.00    +0.145 HD
ENDBRANCH  29  32
ENDBRANCH  25  26
ENDBRANCH   2  25
TORSDOF 9
