REMARK  Name = ZINC67489979
REMARK  6 active torsions:
REMARK  status: ('A' for Active; 'I' for Inactive)
REMARK    1  A    between atoms: C_1  and  C_2
REMARK    2  A    between atoms: C_2  and  C_3
REMARK    3  A    between atoms: C_2  and  N_4
REMARK    4  A    between atoms: C_5  and  C_7
REMARK    5  A    between atoms: C_10  and  N_30
REMARK    6  A    between atoms: C_14  and  C_16
REMARK                            x       y       z     vdW  Elec       q    Type
REMARK                         _______ _______ _______ _____ _____    ______ ____
ROOT
ATOM      1  C   UNL     1      -3.298  -2.221  -0.510  0.00  0.00    +0.161 C 
ATOM      2  C   UNL     1      -3.920  -2.706   0.816  0.00  0.00    +0.017 C 
ATOM      3  C   UNL     1      -4.849  -3.863   0.361  0.00  0.00    -0.055 C 
ATOM      4  C   UNL     1      -4.031  -4.480  -0.801  0.00  0.00    +0.093 C 
ATOM      5  N   UNL     1      -3.401  -3.326  -1.475  0.00  0.00    -0.288 N 
ATOM      6  C   UNL     1      -2.990  -3.289  -2.758  0.00  0.00    +0.249 C 
ATOM      7  O   UNL     1      -2.572  -2.251  -3.233  0.00  0.00    -0.270 OA
ENDROOT
BRANCH   6   8
ATOM      8  C   UNL     1      -3.046  -4.509  -3.585  0.00  0.00    +0.061 A 
ATOM      9  C   UNL     1      -2.782  -5.754  -3.017  0.00  0.00    +0.015 A 
ATOM     10  C   UNL     1      -2.833  -6.901  -3.788  0.00  0.00    +0.001 A 
ATOM     11  C   UNL     1      -3.146  -6.833  -5.129  0.00  0.00    +0.010 A 
ATOM     12  C   UNL     1      -3.415  -5.598  -5.722  0.00  0.00    +0.004 A 
ATOM     13  C   UNL     1      -3.372  -4.423  -4.948  0.00  0.00    +0.059 A 
ATOM     14  N   UNL     1      -3.682  -3.375  -5.778  0.00  0.00    -0.357 N 
ATOM     15  H   UNL     1      -3.725  -2.445  -5.507  0.00  0.00    +0.166 HD
ATOM     16  C   UNL     1      -3.922  -3.835  -7.043  0.00  0.00    +0.020 A 
ATOM     17  C   UNL     1      -3.768  -5.172  -7.073  0.00  0.00    -0.019 A 
ATOM     18  C   UNL     1      -3.953  -6.029  -8.298  0.00  0.00    +0.037 C 
ATOM     19  C   UNL     1      -4.702  -5.210  -9.356  0.00  0.00    +0.005 C 
ATOM     20  C   UNL     1      -4.025  -3.846  -9.514  0.00  0.00    +0.006 C 
ATOM     21  C   UNL     1      -4.292  -3.006  -8.252  0.00  0.00    +0.053 C 
ENDBRANCH   6   8
BRANCH   1  23
ATOM     22  N   UNL     1      -1.524  -0.669   0.241  0.00  0.00    -0.311 N 
ATOM     23  C   UNL     1      -1.850  -1.861  -0.296  0.00  0.00    +0.234 C 
ATOM     24  O   UNL     1      -0.978  -2.645  -0.607  0.00  0.00    -0.274 OA
ATOM     25  H   UNL     1      -2.221  -0.042   0.490  0.00  0.00    +0.149 HD
BRANCH  22  27
ATOM     26  C   UNL     1       0.035   1.203   0.459  0.00  0.00    +0.027 C 
ATOM     27  C   UNL     1      -0.117  -0.320   0.450  0.00  0.00    +0.067 C 
ATOM     28  C   UNL     1       0.357  -0.888   1.789  0.00  0.00    +0.027 C 
ENDBRANCH  22  27
ENDBRANCH   1  23
BRANCH   3  29
ATOM     29  N   UNL     1      -5.045  -4.837   1.443  0.00  0.00    +0.381 N 
ATOM     30  H   UNL     1      -5.465  -4.378   2.237  0.00  0.00    -0.090 HD
ATOM     31  H   UNL     1      -5.651  -5.578   1.123  0.00  0.00    -0.090 HD
ATOM     32  H   UNL     1      -4.153  -5.225   1.712  0.00  0.00    -0.090 HD
ENDBRANCH   3  29
TORSDOF 4
