REMARK  Name = ZINC13076647
REMARK  3 active torsions:
REMARK  status: ('A' for Active; 'I' for Inactive)
REMARK    1  A    between atoms: C_4  and  C_18
REMARK    2  A    between atoms: C_6  and  S_7
REMARK    3  A    between atoms: S_7  and  N_10
REMARK                            x       y       z     vdW  Elec       q    Type
REMARK                         _______ _______ _______ _____ _____    ______ ____
ROOT
ATOM      1  S   UNL     1      -1.368   6.135   0.049  0.00  0.00    +0.061 S 
ATOM      2  O   UNL     1      -1.748   4.801  -0.257  0.00  0.00    -0.153 OA
ATOM      3  O   UNL     1      -0.037   6.605  -0.117  0.00  0.00    -0.153 OA
ENDROOT
BRANCH   1   4
ATOM      4  N   UNL     1      -1.766   6.389   1.636  0.00  0.00    -0.177 NA
ATOM      5  C   UNL     1      -2.715   5.497   2.316  0.00  0.00    +0.109 C 
ATOM      6  C   UNL     1      -2.067   4.123   2.483  0.00  0.00    +0.017 C 
ATOM      7  C   UNL     1      -0.982   4.203   3.570  0.00  0.00    +0.001 C 
ATOM      8  C   UNL     1       0.269   4.853   2.990  0.00  0.00    +0.000 C 
ATOM      9  C   UNL     1       0.533   6.216   3.655  0.00  0.00    +0.001 C 
ATOM     10  C   UNL     1      -0.774   7.000   3.762  0.00  0.00    +0.017 C 
ATOM     11  C   UNL     1      -1.184   7.500   2.370  0.00  0.00    +0.109 C 
ENDBRANCH   1   4
BRANCH   1  17
ATOM     12  C   UNL     1      -3.625   6.728  -1.367  0.00  0.00    +0.031 A 
ATOM     13  C   UNL     1      -4.441   7.545  -2.128  0.00  0.00    +0.041 A 
ATOM     14  C   UNL     1      -4.037   8.829  -2.444  0.00  0.00    +0.138 A 
ATOM     15  C   UNL     1      -2.795   9.295  -2.000  0.00  0.00    +0.100 A 
ATOM     16  C   UNL     1      -1.978   8.462  -1.232  0.00  0.00    +0.046 A 
ATOM     17  C   UNL     1      -2.398   7.186  -0.921  0.00  0.00    +0.106 A 
ATOM     18  F   UNL     1      -4.837   9.629  -3.182  0.00  0.00    -0.205 F 
BRANCH  15  19
ATOM     19  C   UNL     1      -2.352  10.662  -2.337  0.00  0.00    +0.389 C 
ATOM     20  O   UNL     1      -3.065  11.384  -3.005  0.00  0.00    -0.240 OA
ATOM     21  O   UNL     1      -1.158  11.110  -1.903  0.00  0.00    -0.240 OA
ENDBRANCH  15  19
ENDBRANCH   1  17
TORSDOF 3
