REMARK  Name = ZINC39948773
REMARK  10 active torsions:
REMARK  status: ('A' for Active; 'I' for Inactive)
REMARK    1  A    between atoms: C_1  and  C_2
REMARK    2  A    between atoms: C_2  and  O_3
REMARK    3  A    between atoms: O_3  and  C_4
REMARK    4  A    between atoms: C_6  and  C_11
REMARK    5  A    between atoms: C_9  and  O_10
REMARK    6  A    between atoms: N_12  and  N_13
REMARK    7  A    between atoms: C_14  and  C_16
REMARK    8  A    between atoms: C_17  and  C_27
REMARK    9  A    between atoms: C_27  and  N_28
REMARK   10  A    between atoms: C_33  and  C_35
REMARK                            x       y       z     vdW  Elec       q    Type
REMARK                         _______ _______ _______ _____ _____    ______ ____
ROOT
ATOM      1  C   UNL     1       1.635  -8.646   1.925  0.00  0.00    +0.170 A 
ATOM      2  C   UNL     1       1.987  -9.955   2.095  0.00  0.00    +0.063 A 
ATOM      3  N   UNL     1       2.601 -10.041   3.297  0.00  0.00    -0.194 N 
ATOM      4  N   UNL     1       2.607  -8.749   3.841  0.00  0.00    -0.058 NA
ATOM      5  N   UNL     1       2.035  -7.954   3.006  0.00  0.00    -0.124 NA
ATOM      6  C   UNL     1       3.128 -11.197   3.884  0.00  0.00    +0.240 A 
ATOM      7  C   UNL     1       3.785 -11.271   5.192  0.00  0.00    +0.206 A 
ATOM      8  N   UNL     1       4.144 -12.508   5.401  0.00  0.00    -0.032 NA
ATOM      9  O   UNL     1       3.748 -13.271   4.275  0.00  0.00    -0.239 OA
ATOM     10  N   UNL     1       3.113 -12.392   3.364  0.00  0.00    -0.027 NA
ATOM     11  N   UNL     1       3.992 -10.206   6.061  0.00  0.00    -0.337 N 
ATOM     12  H   UNL     1       3.689  -9.317   5.819  0.00  0.00    +0.144 HD
ATOM     13  H   UNL     1       4.438 -10.351   6.910  0.00  0.00    +0.144 HD
ENDROOT
BRANCH   1  15
ATOM     14  N   UNL     1       0.652  -6.771   0.703  0.00  0.00    -0.202 N 
ATOM     15  C   UNL     1       0.939  -8.087   0.752  0.00  0.00    +0.285 C 
ATOM     16  O   UNL     1       0.624  -8.813  -0.172  0.00  0.00    -0.267 OA
ATOM     17  H   UNL     1       0.903  -6.192   1.439  0.00  0.00    +0.178 HD
BRANCH  14  19
ATOM     18  C   UNL     1      -0.173  -4.956  -0.519  0.00  0.00    +0.138 C 
ATOM     19  N   UNL     1      -0.010  -6.239  -0.412  0.00  0.00    -0.187 NA
BRANCH  18  22
ATOM     20  C   UNL     1       1.306  -1.829   0.941  0.00  0.00    +0.162 A 
ATOM     21  C   UNL     1       0.426  -2.688   0.308  0.00  0.00    +0.059 A 
ATOM     22  C   UNL     1       0.761  -4.035   0.154  0.00  0.00    -0.002 A 
ATOM     23  C   UNL     1       1.982  -4.509   0.641  0.00  0.00    +0.013 A 
ATOM     24  C   UNL     1       2.854  -3.646   1.270  0.00  0.00    +0.050 A 
ATOM     25  C   UNL     1       2.524  -2.307   1.418  0.00  0.00    +0.158 A 
BRANCH  25  26
ATOM     26  O   UNL     1       3.390  -1.459   2.035  0.00  0.00    -0.503 OA
ATOM     27  H   UNL     1       3.264  -1.396   2.992  0.00  0.00    +0.292 HD
ENDBRANCH  25  26
BRANCH  20  28
ATOM     28  O   UNL     1       0.984  -0.516   1.092  0.00  0.00    -0.489 OA
BRANCH  28  30
ATOM     29  C   UNL     1      -0.466   1.401   0.839  0.00  0.00    +0.048 C 
ATOM     30  C   UNL     1      -0.282  -0.095   0.579  0.00  0.00    +0.226 C 
ENDBRANCH  28  30
ENDBRANCH  20  28
ENDBRANCH  18  22
ENDBRANCH  14  19
ENDBRANCH   1  15
BRANCH   2  31
ATOM     31  C   UNL     1       1.738 -11.086   1.130  0.00  0.00    -0.019 C 
BRANCH  31  32
ATOM     32  N   UNL     1       0.437 -11.702   1.423  0.00  0.00    +0.385 N 
ATOM     33  C   UNL     1       0.478 -12.319   2.754  0.00  0.00    -0.078 C 
ATOM     34  C   UNL     1      -0.899 -12.892   3.097  0.00  0.00    -0.019 C 
ATOM     35  C   UNL     1      -1.281 -13.947   2.055  0.00  0.00    -0.003 C 
ATOM     36  C   UNL     1      -1.247 -13.311   0.663  0.00  0.00    -0.016 C 
ATOM     37  C   UNL     1       0.142 -12.723   0.410  0.00  0.00    -0.071 C 
ATOM     38  C   UNL     1       0.181 -12.086  -0.981  0.00  0.00    -0.013 C 
ATOM     39  H   UNL     1      -0.281 -10.994   1.404  0.00  0.00    -0.081 HD
ENDBRANCH  31  32
ENDBRANCH   2  31
TORSDOF 8
