REMARK  Name = ZINC37349694
REMARK  3 active torsions:
REMARK  status: ('A' for Active; 'I' for Inactive)
REMARK    1  A    between atoms: C_4  and  C_8
REMARK    2  A    between atoms: C_9  and  C_14
REMARK    3  A    between atoms: C_12  and  N_13
REMARK                            x       y       z     vdW  Elec       q    Type
REMARK                         _______ _______ _______ _____ _____    ______ ____
ROOT
ATOM      1  C   UNL     1       3.700  -0.688  -0.038  0.00  0.00    +0.069 A 
ATOM      2  C   UNL     1       4.420  -1.083  -1.186  0.00  0.00    +0.096 A 
ATOM      3  N   UNL     1       5.506  -1.688  -0.797  0.00  0.00    -0.080 NA
ATOM      4  O   UNL     1       5.531  -1.709   0.618  0.00  0.00    -0.339 OA
ATOM      5  C   UNL     1       4.426  -1.091   1.066  0.00  0.00    +0.223 A 
ENDROOT
BRANCH   1   9
ATOM      6  C   UNL     1      -0.017   1.379   0.010  0.00  0.00    +0.003 A 
ATOM      7  C   UNL     1       1.168   2.093   0.002  0.00  0.00    +0.021 A 
ATOM      8  C   UNL     1       2.378   1.427  -0.013  0.00  0.00    +0.050 A 
ATOM      9  C   UNL     1       2.404   0.033  -0.021  0.00  0.00    +0.025 A 
ATOM     10  C   UNL     1       1.206  -0.681  -0.013  0.00  0.00    +0.050 A 
ATOM     11  C   UNL     1       0.002  -0.004   0.002  0.00  0.00    +0.021 A 
ATOM     12 CL   UNL     1       1.227  -2.417  -0.023  0.00  0.00    -0.083 Cl
ATOM     13 CL   UNL     1       3.865   2.325  -0.024  0.00  0.00    -0.083 Cl
ENDBRANCH   1   9
BRANCH   2  14
ATOM     14  C   UNL     1       4.005  -0.846  -2.615  0.00  0.00    +0.042 C 
ATOM     15  C   UNL     1       3.920  -2.188  -3.371  0.00  0.00    +0.010 C 
ATOM     16  C   UNL     1       4.442  -1.858  -4.791  0.00  0.00    +0.001 C 
ATOM     17  C   UNL     1       5.591  -0.858  -4.510  0.00  0.00    +0.001 C 
ATOM     18  C   UNL     1       5.067   0.000  -3.339  0.00  0.00    +0.010 C 
ENDBRANCH   2  14
BRANCH   5  19
ATOM     19  N   UNL     1       4.078  -0.896   2.386  0.00  0.00    -0.327 N 
ATOM     20  H   UNL     1       3.253  -0.437   2.608  0.00  0.00    +0.145 HD
ATOM     21  H   UNL     1       4.659  -1.219   3.093  0.00  0.00    +0.145 HD
ENDBRANCH   5  19
TORSDOF 3
