REMARK  Name = ZINC20727860
REMARK  2 active torsions:
REMARK  status: ('A' for Active; 'I' for Inactive)
REMARK    1  A    between atoms: C_13  and  O_27
REMARK    2  A    between atoms: N_19  and  C_20
REMARK                            x       y       z     vdW  Elec       q    Type
REMARK                         _______ _______ _______ _____ _____    ______ ____
ROOT
ATOM      1  C   UNL     1      -0.017   1.375   0.010  0.00  0.00    +0.002 A 
ATOM      2  C   UNL     1       1.161   2.116   0.002  0.00  0.00    +0.007 A 
ATOM      3  C   UNL     1       2.345   1.411  -0.012  0.00  0.00    -0.005 A 
ATOM      4  C   UNL     1       2.378   0.011  -0.020  0.00  0.00    +0.056 A 
ATOM      5  C   UNL     1       1.189  -0.722  -0.013  0.00  0.00    +0.062 A 
ATOM      6  C   UNL     1       0.002  -0.004   0.002  0.00  0.00    +0.022 A 
ATOM      7 CL   UNL     1       1.196  -2.458  -0.022  0.00  0.00    -0.082 Cl
ATOM      8  N   UNL     1       3.687  -0.439  -0.035  0.00  0.00    -0.283 N 
ATOM      9  C   UNL     1       4.572   0.580  -0.037  0.00  0.00    +0.233 C 
ATOM     10  O   UNL     1       5.781   0.486  -0.050  0.00  0.00    -0.274 OA
ATOM     11  C   UNL     1       3.769   1.861  -0.023  0.00  0.00    +0.112 C 
ATOM     12  C   UNL     1       4.080   2.694  -1.266  0.00  0.00    +0.121 C 
ATOM     13  C   UNL     1       3.664   4.126  -1.088  0.00  0.00    +0.191 C 
ATOM     14  N   UNL     1       3.679   4.743   0.055  0.00  0.00    -0.197 NA
ATOM     15  C   UNL     1       4.043   4.062   1.179  0.00  0.00    +0.164 A 
ATOM     16  C   UNL     1       4.101   2.673   1.198  0.00  0.00    +0.036 A 
ATOM     17  C   UNL     1       4.491   2.282   2.465  0.00  0.00    +0.142 A 
ATOM     18  N   UNL     1       4.657   3.358   3.200  0.00  0.00    -0.173 NA
ATOM     19  N   UNL     1       4.374   4.490   2.419  0.00  0.00    -0.214 N 
ATOM     20  H   UNL     1       3.939  -1.376  -0.042  0.00  0.00    +0.155 HD
ENDROOT
BRANCH  19  21
ATOM     21  C   UNL     1       4.426   5.823   2.846  0.00  0.00    +0.068 A 
ATOM     22  C   UNL     1       4.835   6.820   1.970  0.00  0.00    +0.029 A 
ATOM     23  C   UNL     1       4.885   8.133   2.394  0.00  0.00    +0.022 A 
ATOM     24  C   UNL     1       4.527   8.457   3.691  0.00  0.00    +0.041 A 
ATOM     25  C   UNL     1       4.119   7.466   4.566  0.00  0.00    +0.022 A 
ATOM     26  C   UNL     1       4.061   6.152   4.145  0.00  0.00    +0.029 A 
ATOM     27 CL   UNL     1       4.592  10.108   4.221  0.00  0.00    -0.084 Cl
ENDBRANCH  19  21
BRANCH  13  28
ATOM     28  O   UNL     1       3.252   4.809  -2.175  0.00  0.00    -0.495 OA
ATOM     29  H   UNL     1       2.999   5.724  -1.992  0.00  0.00    +0.293 HD
ENDBRANCH  13  28
TORSDOF 2
