REMARK  Name = ZINC63767080
REMARK  8 active torsions:
REMARK  status: ('A' for Active; 'I' for Inactive)
REMARK    1  A    between atoms: C_1  and  C_2
REMARK    2  A    between atoms: C_2  and  C_3
REMARK    3  A    between atoms: C_3  and  C_4
REMARK    4  A    between atoms: C_10  and  S_12
REMARK    5  A    between atoms: S_12  and  C_13
REMARK    6  A    between atoms: C_13  and  C_14
REMARK    7  A    between atoms: N_16  and  C_17
REMARK    8  A    between atoms: C_19  and  C_30
REMARK                            x       y       z     vdW  Elec       q    Type
REMARK                         _______ _______ _______ _____ _____    ______ ____
ROOT
ATOM      1  C   UNL     1      -4.860  -3.669   2.597  0.00  0.00    +0.224 C 
ATOM      2  O   UNL     1      -5.129  -4.819   2.318  0.00  0.00    -0.275 OA
ATOM      3  N   UNL     1      -5.512  -3.049   3.600  0.00  0.00    -0.302 N 
ATOM      4  H   UNL     1      -5.252  -2.154   3.867  0.00  0.00    +0.150 HD
ENDROOT
BRANCH   3   5
ATOM      5  C   UNL     1      -6.614  -3.727   4.287  0.00  0.00    +0.143 C 
ATOM      6  C   UNL     1      -6.748  -3.221   5.737  0.00  0.00    +0.109 C 
ATOM      7  C   UNL     1      -6.155  -4.157   6.762  0.00  0.00    +0.016 C 
ATOM      8  C   UNL     1      -5.433  -3.489   7.888  0.00  0.00    +0.005 C 
ATOM      9  C   UNL     1      -3.920  -3.567   7.816  0.00  0.00    +0.000 C 
ATOM     10  C   UNL     1      -3.464  -4.985   7.482  0.00  0.00    +0.001 C 
ATOM     11  C   UNL     1      -4.048  -5.385   6.127  0.00  0.00    +0.014 C 
ATOM     12  C   UNL     1      -5.554  -5.445   6.228  0.00  0.00    +0.052 C 
ATOM     13  S   UNL     1      -6.244  -5.515   4.507  0.00  0.00    -0.134 S 
BRANCH   6  14
ATOM     14  C   UNL     1      -6.055  -1.888   5.848  0.00  0.00    +0.216 C 
ATOM     15  O   UNL     1      -4.844  -1.828   5.802  0.00  0.00    -0.276 OA
ATOM     16  N   UNL     1      -6.780  -0.762   5.999  0.00  0.00    -0.329 N 
ATOM     17  H   UNL     1      -7.748  -0.810   6.036  0.00  0.00    +0.145 HD
ATOM     18  H   UNL     1      -6.333   0.096   6.071  0.00  0.00    +0.145 HD
ENDBRANCH   6  14
ENDBRANCH   3   5
BRANCH   1  19
ATOM     19  C   UNL     1      -3.797  -2.935   1.822  0.00  0.00    +0.173 C 
BRANCH  19  20
ATOM     20  S   UNL     1      -3.111  -4.030   0.549  0.00  0.00    -0.078 S 
BRANCH  20  27
ATOM     21  C   UNL     1      -0.799  -1.016  -0.440  0.00  0.00    +0.049 A 
ATOM     22  C   UNL     1      -0.049  -1.491  -1.477  0.00  0.00    +0.093 A 
ATOM     23  C   UNL     1      -0.250  -2.812  -1.912  0.00  0.00    +0.252 A 
ATOM     24  O   UNL     1       0.404  -3.269  -2.836  0.00  0.00    -0.268 OA
ATOM     25  N   UNL     1      -1.180  -3.567  -1.288  0.00  0.00    -0.302 N 
ATOM     26  H   UNL     1      -1.335  -4.481  -1.572  0.00  0.00    +0.171 HD
ATOM     27  C   UNL     1      -1.899  -3.039  -0.259  0.00  0.00    +0.170 A 
ATOM     28  N   UNL     1      -1.700  -1.799   0.146  0.00  0.00    -0.228 NA
BRANCH  21  29
ATOM     29  C   UNL     1      -0.602   0.398   0.045  0.00  0.00    +0.055 C 
BRANCH  29  31
ATOM     30  C   UNL     1      -1.423   2.750  -0.136  0.00  0.00    +0.004 C 
ATOM     31  C   UNL     1      -1.623   1.315  -0.629  0.00  0.00    +0.003 C 
ENDBRANCH  29  31
ENDBRANCH  21  29
ENDBRANCH  20  27
ENDBRANCH  19  20
ENDBRANCH   1  19
TORSDOF 7
