REMARK  Name = ZINC01294309
REMARK  5 active torsions:
REMARK  status: ('A' for Active; 'I' for Inactive)
REMARK    1  A    between atoms: C_1  and  C_2
REMARK    2  A    between atoms: C_2  and  C_3
REMARK    3  A    between atoms: C_6  and  C_9
REMARK    4  A    between atoms: N_10  and  N_11
REMARK    5  A    between atoms: C_12  and  C_18
REMARK                            x       y       z     vdW  Elec       q    Type
REMARK                         _______ _______ _______ _____ _____    ______ ____
ROOT
ATOM      1  N   UNL     1      -0.114   4.127   0.123  0.00  0.00    -0.188 N 
ATOM      2  C   UNL     1       0.683   4.374   1.225  0.00  0.00    +0.185 A 
ATOM      3  N   UNL     1       1.719   5.066   0.840  0.00  0.00    -0.151 NA
ATOM      4  N   UNL     1       1.602   5.292  -0.539  0.00  0.00    -0.253 N 
ATOM      5  H   UNL     1       2.227   5.784  -1.094  0.00  0.00    +0.191 HD
ATOM      6  C   UNL     1       0.462   4.701  -0.952  0.00  0.00    +0.197 A 
ATOM      7  S   UNL     1      -0.144   4.683  -2.553  0.00  0.00    -0.010 S 
ENDROOT
BRANCH   2   8
ATOM      8  C   UNL     1       0.410   3.924   2.608  0.00  0.00    +0.039 A 
ATOM      9  C   UNL     1       1.418   3.954   3.578  0.00  0.00    +0.014 A 
ATOM     10  C   UNL     1       1.112   3.522   4.856  0.00  0.00    +0.020 A 
ATOM     11  C   UNL     1      -0.169   3.079   5.132  0.00  0.00    +0.111 A 
ATOM     12  N   UNL     1      -1.100   3.062   4.197  0.00  0.00    -0.263 NA
ATOM     13  C   UNL     1      -0.858   3.467   2.967  0.00  0.00    +0.122 A 
ENDBRANCH   2   8
BRANCH   1  15
ATOM     14  C   UNL     1      -1.316   2.141   0.399  0.00  0.00    +0.141 C 
ATOM     15  N   UNL     1      -1.317   3.410   0.125  0.00  0.00    -0.171 NA
BRANCH  14  19
ATOM     16  C   UNL     1       2.359   0.052   0.774  0.00  0.00    -0.048 A 
ATOM     17  C   UNL     1       1.186  -0.535   1.212  0.00  0.00    +0.004 A 
ATOM     18  C   UNL     1      -0.012   0.138   1.095  0.00  0.00    +0.010 A 
ATOM     19  C   UNL     1      -0.039   1.417   0.533  0.00  0.00    -0.005 A 
ATOM     20  C   UNL     1       1.150   2.004   0.094  0.00  0.00    +0.010 A 
ATOM     21  C   UNL     1       2.341   1.319   0.217  0.00  0.00    +0.004 A 
BRANCH  16  23
ATOM     22  C   UNL     1       3.908  -1.520  -0.357  0.00  0.00    +0.009 C 
ATOM     23  C   UNL     1       3.664  -0.690   0.905  0.00  0.00    +0.032 C 
ENDBRANCH  16  23
ENDBRANCH  14  19
ENDBRANCH   1  15
TORSDOF 4
