REMARK  Name = ZINC00844891
REMARK  5 active torsions:
REMARK  status: ('A' for Active; 'I' for Inactive)
REMARK    1  A    between atoms: C_1  and  C_2
REMARK    2  A    between atoms: C_3  and  C_17
REMARK    3  A    between atoms: C_4  and  C_10
REMARK    4  A    between atoms: C_17  and  O_19
REMARK    5  A    between atoms: O_19  and  C_20
REMARK                            x       y       z     vdW  Elec       q    Type
REMARK                         _______ _______ _______ _____ _____    ______ ____
ROOT
ATOM      1  C   UNL     1      -0.018   1.503   0.010  0.00  0.00    +0.061 C 
ATOM      2  C   UNL     1       0.002  -0.004   0.002  0.00  0.00    +0.021 C 
ATOM      3  C   UNL     1      -1.165  -0.684   0.004  0.00  0.00    +0.078 C 
ATOM      4  C   UNL     1      -1.098  -2.198  -0.005  0.00  0.00    +0.144 C 
ATOM      5  N   UNL     1       0.242  -2.807  -0.014  0.00  0.00    -0.288 N 
ATOM      6  C   UNL     1       1.317  -1.993  -0.015  0.00  0.00    +0.304 C 
ATOM      7  O   UNL     1       2.428  -2.486  -0.023  0.00  0.00    -0.252 OA
ATOM      8  N   UNL     1       1.200  -0.659  -0.013  0.00  0.00    -0.273 N 
ATOM      9  H   UNL     1       0.350  -3.771  -0.020  0.00  0.00    +0.151 HD
ATOM     10  H   UNL     1       2.012  -0.129  -0.018  0.00  0.00    +0.156 HD
ENDROOT
BRANCH   4  11
ATOM     11  C   UNL     1      -1.828  -2.702   1.214  0.00  0.00    -0.022 A 
ATOM     12  C   UNL     1      -1.203  -2.691   2.447  0.00  0.00    +0.006 A 
ATOM     13  C   UNL     1      -1.872  -3.153   3.565  0.00  0.00    +0.001 A 
ATOM     14  C   UNL     1      -3.166  -3.626   3.451  0.00  0.00    +0.014 A 
ATOM     15  C   UNL     1      -3.791  -3.637   2.217  0.00  0.00    +0.014 A 
ATOM     16  C   UNL     1      -3.124  -3.169   1.100  0.00  0.00    +0.020 A 
ATOM     17  I   UNL     1      -5.752  -4.353   2.043  0.00  0.00    -0.044 I 
ENDBRANCH   4  11
BRANCH   3  18
ATOM     18  C   UNL     1      -2.406  -0.006   0.014  0.00  0.00    +0.338 C 
ATOM     19  O   UNL     1      -2.435   1.210   0.021  0.00  0.00    -0.245 OA
BRANCH  18  20
ATOM     20  O   UNL     1      -3.558  -0.709   0.016  0.00  0.00    -0.465 OA
ATOM     21  C   UNL     1      -4.775   0.040   0.026  0.00  0.00    +0.280 C 
ENDBRANCH  18  20
ENDBRANCH   3  18
TORSDOF 3
