REMARK  Name = ZINC02135326
REMARK  8 active torsions:
REMARK  status: ('A' for Active; 'I' for Inactive)
REMARK    1  A    between atoms: C_1  and  C_2
REMARK    2  A    between atoms: C_16  and  C_18
REMARK    3  A    between atoms: C_18  and  C_19
REMARK    4  A    between atoms: C_19  and  C_20
REMARK    5  A    between atoms: N_25  and  C_28
REMARK    6  A    between atoms: C_28  and  C_29
REMARK    7  A    between atoms: C_34  and  O_35
REMARK    8  A    between atoms: O_35  and  C_36
REMARK                            x       y       z     vdW  Elec       q    Type
REMARK                         _______ _______ _______ _____ _____    ______ ____
ROOT
ATOM      1  C   UNL     1       4.622   1.286  -3.541  0.00  0.00    +0.045 C 
ATOM      2  C   UNL     1       3.983   0.647  -2.335  0.00  0.00    -0.029 A 
ATOM      3  C   UNL     1       4.384  -0.609  -1.929  0.00  0.00    +0.005 A 
ATOM      4  C   UNL     1       3.803  -1.205  -0.825  0.00  0.00    +0.001 A 
ATOM      5  C   UNL     1       2.814  -0.537  -0.123  0.00  0.00    +0.004 A 
ATOM      6  C   UNL     1       2.412   0.717  -0.523  0.00  0.00    -0.027 A 
ATOM      7  C   UNL     1       2.990   1.326  -1.633  0.00  0.00    +0.039 A 
ATOM      8  N   UNL     1       2.423   2.586  -1.842  0.00  0.00    -0.286 N 
ATOM      9  C   UNL     1       1.478   2.876  -0.927  0.00  0.00    +0.211 C 
ATOM     10  O   UNL     1       0.821   3.893  -0.862  0.00  0.00    -0.277 OA
ATOM     11  C   UNL     1       1.395   1.692  -0.002  0.00  0.00    +0.050 C 
ATOM     12  C   UNL     1      -0.013   1.086   0.008  0.00  0.00    +0.088 C 
ATOM     13  C   UNL     1      -0.684   1.671   1.282  0.00  0.00    +0.073 C 
ATOM     14  C   UNL     1       0.385   2.598   1.900  0.00  0.00    -0.057 C 
ATOM     15  C   UNL     1      -1.819   2.501   0.727  0.00  0.00    +0.224 C 
ATOM     16  O   UNL     1      -2.612   3.135   1.390  0.00  0.00    -0.275 OA
ATOM     17  N   UNL     1      -1.814   2.426  -0.608  0.00  0.00    -0.237 N 
ATOM     18  C   UNL     1      -0.827   1.661  -1.128  0.00  0.00    +0.225 C 
ATOM     19  O   UNL     1      -0.625   1.461  -2.307  0.00  0.00    -0.275 OA
ATOM     20  H   UNL     1       2.680   3.182  -2.563  0.00  0.00    +0.155 HD
ATOM     21  N   UNL     1       1.650   2.080   1.375  0.00  0.00    +0.394 N 
ATOM     22  H   UNL     1       2.373   2.808   1.411  0.00  0.00    -0.083 HD
ATOM     23  H   UNL     1       1.954   1.267   1.922  0.00  0.00    -0.083 HD
ENDROOT
BRANCH  14  24
ATOM     24  C   UNL     1       0.340   2.518   3.427  0.00  0.00    -0.006 C 
BRANCH  24  25
ATOM     25  C   UNL     1       1.373   3.479   4.019  0.00  0.00    +0.094 C 
BRANCH  25  26
ATOM     26  C   UNL     1       1.329   3.400   5.523  0.00  0.00    +0.210 C 
ATOM     27  O   UNL     1       0.548   2.649   6.069  0.00  0.00    -0.276 OA
ATOM     28  N   UNL     1       2.158   4.163   6.263  0.00  0.00    -0.329 N 
ATOM     29  H   UNL     1       2.783   4.764   5.827  0.00  0.00    +0.145 HD
ATOM     30  H   UNL     1       2.129   4.113   7.231  0.00  0.00    +0.145 HD
ENDBRANCH  25  26
ENDBRANCH  24  25
ENDBRANCH  14  24
BRANCH  17  31
ATOM     31  C   UNL     1      -2.793   3.125  -1.445  0.00  0.00    +0.155 C 
BRANCH  31  32
ATOM     32  C   UNL     1      -2.270   4.495  -1.792  0.00  0.00    +0.012 A 
ATOM     33  C   UNL     1      -2.715   5.602  -1.095  0.00  0.00    +0.009 A 
ATOM     34  C   UNL     1      -2.235   6.859  -1.412  0.00  0.00    +0.001 A 
ATOM     35  C   UNL     1      -1.310   7.012  -2.428  0.00  0.00    +0.004 A 
ATOM     36  C   UNL     1      -0.862   5.909  -3.129  0.00  0.00    +0.046 A 
ATOM     37  C   UNL     1      -1.338   4.646  -2.808  0.00  0.00    +0.125 A 
BRANCH  37  38
ATOM     38  O   UNL     1      -0.895   3.558  -3.492  0.00  0.00    -0.495 OA
ATOM     39  C   UNL     1       0.065   3.788  -4.526  0.00  0.00    +0.277 C 
ENDBRANCH  37  38
ENDBRANCH  31  32
ENDBRANCH  17  31
TORSDOF 6
