REMARK  Name = ZINC20849328
REMARK  7 active torsions:
REMARK  status: ('A' for Active; 'I' for Inactive)
REMARK    1  A    between atoms: C_1  and  C_2
REMARK    2  A    between atoms: C_2  and  C_3
REMARK    3  A    between atoms: C_2  and  C_4
REMARK    4  A    between atoms: C_4  and  O_6
REMARK    5  A    between atoms: O_6  and  N_7
REMARK    6  A    between atoms: C_9  and  C_18
REMARK    7  A    between atoms: N_20  and  C_21
REMARK                            x       y       z     vdW  Elec       q    Type
REMARK                         _______ _______ _______ _____ _____    ______ ____
ROOT
ATOM      1  N   UNL     1       4.264   3.945   1.284  0.00  0.00    -0.184 N 
ATOM      2  C   UNL     1       3.410   3.284   0.552  0.00  0.00    +0.240 A 
ATOM      3  C   UNL     1       3.603   1.844   0.268  0.00  0.00    +0.100 A 
ATOM      4  C   UNL     1       2.476   1.098   0.007  0.00  0.00    +0.030 A 
ATOM      5  C   UNL     1       1.184   1.790   0.033  0.00  0.00    +0.018 A 
ATOM      6  C   UNL     1      -0.014   1.068   0.045  0.00  0.00    +0.011 A 
ATOM      7  C   UNL     1      -1.215   1.742   0.066  0.00  0.00    +0.001 A 
ATOM      8  C   UNL     1      -1.241   3.129   0.089  0.00  0.00    +0.004 A 
ATOM      9  C   UNL     1      -0.067   3.855   0.076  0.00  0.00    +0.047 A 
ATOM     10  C   UNL     1       1.153   3.197   0.046  0.00  0.00    +0.138 A 
ATOM     11  O   UNL     1       2.315   3.897   0.027  0.00  0.00    -0.436 OA
ATOM     12  H   UNL     1       5.144   3.433   1.701  0.00  0.00    +0.211 HD
ENDROOT
BRANCH   3  13
ATOM     13  C   UNL     1       4.943   1.236   0.265  0.00  0.00    +0.254 C 
ATOM     14  O   UNL     1       5.072   0.050   0.028  0.00  0.00    -0.270 OA
ATOM     15  N   UNL     1       6.027   1.993   0.524  0.00  0.00    -0.279 N 
ATOM     16  H   UNL     1       5.921   3.081   0.648  0.00  0.00    +0.155 HD
BRANCH  15  17
ATOM     17  C   UNL     1       7.288   1.395   0.637  0.00  0.00    +0.069 A 
ATOM     18  C   UNL     1       7.394   0.058   0.997  0.00  0.00    +0.029 A 
ATOM     19  C   UNL     1       8.639  -0.532   1.103  0.00  0.00    +0.040 A 
ATOM     20  C   UNL     1       9.782   0.211   0.861  0.00  0.00    +0.126 A 
ATOM     21  C   UNL     1       9.681   1.546   0.508  0.00  0.00    +0.078 A 
ATOM     22  C   UNL     1       8.437   2.140   0.395  0.00  0.00    +0.147 A 
ATOM     23  F   UNL     1       8.338   3.442   0.050  0.00  0.00    -0.203 F 
ATOM     24  F   UNL     1      10.998  -0.367   0.971  0.00  0.00    -0.205 F 
ENDBRANCH  15  17
ENDBRANCH   3  13
BRANCH   1  25
ATOM     25  O   UNL     1       4.087   5.130   1.507  0.00  0.00    -0.339 OA
BRANCH  25  26
ATOM     26  C   UNL     1       5.001   5.750   2.266  0.00  0.00    +0.336 C 
ATOM     27  O   UNL     1       5.951   5.132   2.697  0.00  0.00    -0.248 OA
BRANCH  26  29
ATOM     28  C   UNL     1       3.533   7.441   3.331  0.00  0.00    +0.019 C 
ATOM     29  C   UNL     1       4.849   7.215   2.583  0.00  0.00    +0.094 C 
ATOM     30  C   UNL     1       6.018   7.672   3.459  0.00  0.00    +0.019 C 
ENDBRANCH  26  29
ENDBRANCH  25  26
ENDBRANCH   1  25
TORSDOF 5
