REMARK  Name = ZINC64677087
REMARK  5 active torsions:
REMARK  status: ('A' for Active; 'I' for Inactive)
REMARK    1  A    between atoms: C_1  and  C_2
REMARK    2  A    between atoms: C_5  and  N_9
REMARK    3  A    between atoms: C_7  and  C_8
REMARK    4  A    between atoms: C_10  and  C_12
REMARK    5  A    between atoms: C_12  and  C_13
REMARK                            x       y       z     vdW  Elec       q    Type
REMARK                         _______ _______ _______ _____ _____    ______ ____
ROOT
ATOM      1  C   UNL     1      -0.134  -6.343  -1.187  0.00  0.00    +0.112 C 
ENDROOT
BRANCH   1   2
ATOM      2  C   UNL     1      -0.236  -6.847  -2.628  0.00  0.00    +0.121 C 
ATOM      3  C   UNL     1       1.097  -6.622  -3.339  0.00  0.00    +0.242 C 
ATOM      4  O   UNL     1       2.053  -7.595  -2.924  0.00  0.00    -0.489 OA
ATOM      5  C   UNL     1       2.120  -7.872  -1.595  0.00  0.00    +0.142 A 
ATOM      6  C   UNL     1       3.164  -7.386  -0.828  0.00  0.00    +0.047 A 
ATOM      7  C   UNL     1       3.219  -7.673   0.524  0.00  0.00    +0.004 A 
ATOM      8  C   UNL     1       2.234  -8.444   1.113  0.00  0.00    +0.002 A 
ATOM      9  C   UNL     1       1.188  -8.935   0.354  0.00  0.00    +0.027 A 
ATOM     10  C   UNL     1       1.129  -8.653  -1.002  0.00  0.00    +0.076 A 
ATOM     11  N   UNL     1       0.083  -9.152  -1.790  0.00  0.00    -0.282 N 
ATOM     12  C   UNL     1      -0.575  -8.315  -2.620  0.00  0.00    +0.224 C 
ATOM     13  O   UNL     1      -1.438  -8.745  -3.356  0.00  0.00    -0.275 OA
ATOM     14  H   UNL     1      -0.164 -10.088  -1.740  0.00  0.00    +0.155 HD
ENDBRANCH   1   2
BRANCH   1  16
ATOM     15  N   UNL     1       0.115  -4.174  -0.023  0.00  0.00    -0.285 N 
ATOM     16  C   UNL     1       0.008  -4.842  -1.189  0.00  0.00    +0.218 C 
ATOM     17  O   UNL     1       0.025  -4.236  -2.239  0.00  0.00    -0.275 OA
ATOM     18  H   UNL     1       0.178  -4.663   0.812  0.00  0.00    +0.155 HD
BRANCH  15  23
ATOM     19  C   UNL     1       0.196   1.498  -0.002  0.00  0.00    +0.044 C 
ATOM     20  C   UNL     1       0.174  -0.009  -0.007  0.00  0.00    -0.047 A 
ATOM     21  C   UNL     1      -0.573  -0.684  -0.955  0.00  0.00    +0.005 A 
ATOM     22  C   UNL     1      -0.595  -2.065  -0.963  0.00  0.00    +0.023 A 
ATOM     23  C   UNL     1       0.135  -2.775  -0.018  0.00  0.00    +0.034 A 
ATOM     24  C   UNL     1       0.884  -2.094   0.931  0.00  0.00    +0.027 A 
ATOM     25  C   UNL     1       0.906  -0.712   0.931  0.00  0.00    -0.046 A 
ATOM     26  C   UNL     1       1.723   0.028   1.958  0.00  0.00    +0.044 C 
ENDBRANCH  15  23
ENDBRANCH   1  16
TORSDOF 3
