REMARK  Name = ZINC43668545
REMARK  3 active torsions:
REMARK  status: ('A' for Active; 'I' for Inactive)
REMARK    1  A    between atoms: C_1  and  C_2
REMARK    2  A    between atoms: C_4  and  N_18
REMARK    3  A    between atoms: N_5  and  C_7
REMARK                            x       y       z     vdW  Elec       q    Type
REMARK                         _______ _______ _______ _____ _____    ______ ____
ROOT
ATOM      1  C   UNL     1      -0.018   1.503   0.010  0.00  0.00    +0.069 C 
ATOM      2  C   UNL     1       0.002  -0.004   0.002  0.00  0.00    +0.076 A 
ATOM      3  C   UNL     1       0.008  -0.815  -1.136  0.00  0.00    +0.080 A 
ATOM      4  C   UNL     1       0.027  -2.113  -0.724  0.00  0.00    +0.129 A 
ATOM      5  N   UNL     1       0.034  -2.109   0.634  0.00  0.00    -0.242 N 
ATOM      6  N   UNL     1       0.023  -0.775   1.059  0.00  0.00    -0.173 NA
ATOM      7 BR   UNL     1      -0.009  -0.216  -2.930  0.00  0.00    -0.045 Br
ENDROOT
BRANCH   5   8
ATOM      8  C   UNL     1       0.053  -3.291   1.500  0.00  0.00    +0.146 C 
ATOM      9  C   UNL     1      -1.194  -3.293   2.388  0.00  0.00    +0.073 C 
ATOM     10  C   UNL     1      -1.009  -4.358   3.476  0.00  0.00    +0.231 C 
ATOM     11  O   UNL     1       0.083  -3.965   4.309  0.00  0.00    -0.492 OA
ATOM     12  C   UNL     1       1.242  -3.597   3.704  0.00  0.00    +0.126 A 
ATOM     13  C   UNL     1       1.290  -3.259   2.363  0.00  0.00    +0.019 A 
ATOM     14  C   UNL     1       2.493  -2.885   1.790  0.00  0.00    +0.009 A 
ATOM     15  C   UNL     1       3.646  -2.849   2.550  0.00  0.00    +0.001 A 
ATOM     16  C   UNL     1       3.602  -3.187   3.889  0.00  0.00    +0.004 A 
ATOM     17  C   UNL     1       2.406  -3.561   4.465  0.00  0.00    +0.046 A 
ENDBRANCH   5   8
BRANCH   4  18
ATOM     18  N   UNL     1       0.039  -3.238  -1.545  0.00  0.00    -0.342 N 
ATOM     19  H   UNL     1       0.033  -3.135  -2.510  0.00  0.00    +0.144 HD
ATOM     20  H   UNL     1       0.052  -4.125  -1.152  0.00  0.00    +0.144 HD
ENDBRANCH   4  18
TORSDOF 2
