REMARK  Name = ZINC39481394
REMARK  8 active torsions:
REMARK  status: ('A' for Active; 'I' for Inactive)
REMARK    1  A    between atoms: C_1  and  C_2
REMARK    2  A    between atoms: C_2  and  C_3
REMARK    3  A    between atoms: C_3  and  C_4
REMARK    4  A    between atoms: C_7  and  N_18
REMARK    5  A    between atoms: C_8  and  N_10
REMARK    6  A    between atoms: N_18  and  S_19
REMARK    7  A    between atoms: S_19  and  C_22
REMARK    8  A    between atoms: C_27  and  O_28
REMARK                            x       y       z     vdW  Elec       q    Type
REMARK                         _______ _______ _______ _____ _____    ______ ____
ROOT
ATOM      1  C   UNL     1      -0.070  -2.355  -0.338  0.00  0.00    -0.046 A 
ATOM      2  C   UNL     1       1.140  -2.897   0.055  0.00  0.00    +0.005 A 
ATOM      3  C   UNL     1       1.412  -4.233  -0.178  0.00  0.00    +0.026 A 
ATOM      4  C   UNL     1       0.470  -5.033  -0.807  0.00  0.00    +0.069 A 
ATOM      5  C   UNL     1      -0.750  -4.486  -1.203  0.00  0.00    +0.053 A 
ATOM      6  C   UNL     1      -1.017  -3.147  -0.961  0.00  0.00    +0.028 A 
ENDROOT
BRANCH   5   7
ATOM      7  N   UNL     1      -1.706  -5.288  -1.839  0.00  0.00    -0.325 N 
ATOM      8  C   UNL     1      -2.721  -6.013  -1.060  0.00  0.00    +0.120 C 
ATOM      9  C   UNL     1      -4.101  -5.703  -1.651  0.00  0.00    +0.101 C 
ATOM     10  N   UNL     1      -4.092  -6.000  -3.090  0.00  0.00    -0.302 NA
ATOM     11  C   UNL     1      -3.139  -5.141  -3.805  0.00  0.00    +0.139 C 
ATOM     12  C   UNL     1      -1.724  -5.424  -3.303  0.00  0.00    +0.135 C 
ATOM     13 BR   UNL     1      -3.240  -5.513  -5.733  0.00  0.00    -0.070 Br
ATOM     14  H   UNL     1      -3.895  -6.976  -3.256  0.00  0.00    +0.123 HD
ENDBRANCH   5   7
BRANCH   4  15
ATOM     15  N   UNL     1       0.744  -6.385  -1.044  0.00  0.00    -0.214 N 
ATOM     16  H   UNL     1       0.413  -6.813  -1.849  0.00  0.00    +0.174 HD
BRANCH  15  17
ATOM     17  S   UNL     1       1.632  -7.255   0.050  0.00  0.00    +0.076 S 
ATOM     18  O   UNL     1       1.105  -6.951   1.334  0.00  0.00    -0.150 OA
ATOM     19  O   UNL     1       1.705  -8.583  -0.449  0.00  0.00    -0.150 OA
BRANCH  17  20
ATOM     20  C   UNL     1       3.273  -6.613   0.015  0.00  0.00    +0.150 A 
ATOM     21  C   UNL     1       3.806  -6.015   1.141  0.00  0.00    +0.032 A 
ATOM     22  C   UNL     1       5.093  -5.512   1.114  0.00  0.00    +0.002 A 
ATOM     23  C   UNL     1       5.851  -5.605  -0.039  0.00  0.00    +0.004 A 
ATOM     24  C   UNL     1       5.323  -6.203  -1.167  0.00  0.00    +0.047 A 
ATOM     25  C   UNL     1       4.033  -6.714  -1.141  0.00  0.00    +0.143 A 
BRANCH  25  26
ATOM     26  O   UNL     1       3.514  -7.307  -2.248  0.00  0.00    -0.505 OA
ATOM     27  H   UNL     1       3.067  -6.695  -2.849  0.00  0.00    +0.292 HD
ENDBRANCH  25  26
ENDBRANCH  17  20
ENDBRANCH  15  17
ENDBRANCH   4  15
BRANCH   1  28
ATOM     28  C   UNL     1      -0.359  -0.899  -0.081  0.00  0.00    +0.035 C 
BRANCH  28  30
ATOM     29  C   UNL     1      -1.314   0.734   1.551  0.00  0.00    +0.004 C 
ATOM     30  C   UNL     1      -1.020  -0.745   1.290  0.00  0.00    +0.001 C 
ENDBRANCH  28  30
ENDBRANCH   1  28
TORSDOF 7
