REMARK  Name = ZINC42065116
REMARK  5 active torsions:
REMARK  status: ('A' for Active; 'I' for Inactive)
REMARK    1  A    between atoms: C_1  and  C_2
REMARK    2  A    between atoms: N_8  and  C_15
REMARK    3  A    between atoms: C_11  and  N_13
REMARK    4  A    between atoms: N_13  and  C_14
REMARK    5  A    between atoms: C_15  and  C_16
REMARK                            x       y       z     vdW  Elec       q    Type
REMARK                         _______ _______ _______ _____ _____    ______ ____
ROOT
ATOM      1  C   UNL     1       0.638   1.372   0.008  0.00  0.00    +0.045 C 
ATOM      2  C   UNL     1       0.550  -0.131   0.059  0.00  0.00    -0.029 A 
ATOM      3  C   UNL     1       0.661  -0.867  -1.103  0.00  0.00    +0.005 A 
ATOM      4  C   UNL     1       0.581  -2.247  -1.067  0.00  0.00    +0.001 A 
ATOM      5  C   UNL     1       0.389  -2.894   0.142  0.00  0.00    +0.007 A 
ATOM      6  C   UNL     1       0.278  -2.163   1.302  0.00  0.00    +0.000 A 
ATOM      7  C   UNL     1       0.362  -0.776   1.280  0.00  0.00    +0.045 A 
ATOM      8  N   UNL     1       0.228  -0.264   2.571  0.00  0.00    -0.265 N 
ATOM      9  C   UNL     1       0.061  -1.232   3.487  0.00  0.00    +0.242 C 
ATOM     10  O   UNL     1      -0.080  -1.076   4.682  0.00  0.00    -0.273 OA
ATOM     11  C   UNL     1       0.069  -2.553   2.747  0.00  0.00    +0.173 C 
ENDROOT
BRANCH  11  12
ATOM     12  N   UNL     1       1.181  -3.387   3.221  0.00  0.00    -0.305 NA
ATOM     13  C   UNL     1       0.759  -4.240   4.341  0.00  0.00    +0.102 C 
ATOM     14  H   UNL     1       1.564  -3.940   2.470  0.00  0.00    +0.123 HD
ENDBRANCH  11  12
BRANCH   8  15
ATOM     15  C   UNL     1       0.266   1.166   2.890  0.00  0.00    +0.148 C 
BRANCH  15  16
ATOM     16  C   UNL     1       1.612   1.514   3.472  0.00  0.00    -0.030 A 
ATOM     17  C   UNL     1       1.865   1.286   4.812  0.00  0.00    +0.005 A 
ATOM     18  C   UNL     1       3.100   1.606   5.346  0.00  0.00    +0.000 A 
ATOM     19  C   UNL     1       4.080   2.154   4.540  0.00  0.00    +0.000 A 
ATOM     20  C   UNL     1       3.827   2.381   3.200  0.00  0.00    +0.000 A 
ATOM     21  C   UNL     1       2.594   2.057   2.665  0.00  0.00    +0.005 A 
ENDBRANCH  15  16
ENDBRANCH   8  15
TORSDOF 3
