REMARK  Name = ZINC04372004
REMARK  5 active torsions:
REMARK  status: ('A' for Active; 'I' for Inactive)
REMARK    1  A    between atoms: C_3  and  C_6
REMARK    2  A    between atoms: C_6  and  C_8
REMARK    3  A    between atoms: C_10  and  C_22
REMARK    4  A    between atoms: C_16  and  C_17
REMARK    5  A    between atoms: C_16  and  O_21
REMARK                            x       y       z     vdW  Elec       q    Type
REMARK                         _______ _______ _______ _____ _____    ______ ____
ROOT
ATOM      1  C   UNL     1      -0.747   1.595  -1.237  0.00  0.00    +0.144 C 
ATOM      2  C   UNL     1      -0.013   1.086   0.008  0.00  0.00    +0.118 C 
ATOM      3  N   UNL     1       1.360   1.594  -0.002  0.00  0.00    -0.319 N 
ATOM      4  C   UNL     1       1.998   1.857  -1.153  0.00  0.00    +0.133 C 
ATOM      5  S   UNL     1       3.608   2.435  -1.086  0.00  0.00    -0.019 S 
ATOM      6  N   UNL     1       1.424   1.686  -2.353  0.00  0.00    -0.291 N 
ATOM      7  C   UNL     1       0.055   1.184  -2.477  0.00  0.00    +0.241 C 
ATOM      8  H   UNL     1       1.818   1.742   0.840  0.00  0.00    +0.148 HD
ATOM      9  H   UNL     1       1.927   1.899  -3.155  0.00  0.00    +0.151 HD
ENDROOT
BRANCH   2  10
ATOM     10  C   UNL     1      -0.721   1.573   1.246  0.00  0.00    -0.024 A 
ATOM     11  C   UNL     1      -0.525   2.864   1.714  0.00  0.00    +0.025 A 
ATOM     12  C   UNL     1      -1.195   3.277   2.850  0.00  0.00    +0.111 A 
ATOM     13  N   UNL     1      -2.004   2.457   3.492  0.00  0.00    -0.263 NA
ATOM     14  C   UNL     1      -2.210   1.221   3.078  0.00  0.00    +0.111 A 
ATOM     15  C   UNL     1      -1.579   0.740   1.947  0.00  0.00    +0.025 A 
ENDBRANCH   2  10
BRANCH   7  16
ATOM     16  C   UNL     1      -0.597   1.779  -3.728  0.00  0.00    +0.436 C 
ATOM     17  F   UNL     1       0.140   1.409  -4.858  0.00  0.00    -0.166 F 
ATOM     18  F   UNL     1      -1.905   1.298  -3.845  0.00  0.00    -0.166 F 
ATOM     19  F   UNL     1      -0.620   3.174  -3.622  0.00  0.00    -0.166 F 
ENDBRANCH   7  16
BRANCH   1  20
ATOM     20  C   UNL     1      -2.123   0.984  -1.299  0.00  0.00    +0.179 C 
ATOM     21  O   UNL     1      -2.341  -0.077  -0.750  0.00  0.00    -0.291 OA
BRANCH  20  24
ATOM     22  C   UNL     1      -5.285   2.098  -2.898  0.00  0.00    +0.008 A 
ATOM     23  C   UNL     1      -4.482   1.256  -2.175  0.00  0.00    +0.019 A 
ATOM     24  C   UNL     1      -3.159   1.645  -1.994  0.00  0.00    +0.055 A 
ATOM     25  S   UNL     1      -3.109   3.195  -2.878  0.00  0.00    -0.094 S 
ATOM     26  C   UNL     1      -4.760   3.246  -3.406  0.00  0.00    +0.046 A 
ENDBRANCH  20  24
ENDBRANCH   1  20
BRANCH   7  27
ATOM     27  O   UNL     1       0.076  -0.241  -2.581  0.00  0.00    -0.364 OA
ATOM     28  H   UNL     1       0.572  -0.573  -3.342  0.00  0.00    +0.212 HD
ENDBRANCH   7  27
TORSDOF 5
