REMARK  Name = ZINC26673055
REMARK  9 active torsions:
REMARK  status: ('A' for Active; 'I' for Inactive)
REMARK    1  A    between atoms: C_1  and  C_2
REMARK    2  A    between atoms: C_3  and  O_4
REMARK    3  A    between atoms: C_8  and  C_10
REMARK    4  A    between atoms: C_10  and  C_11
REMARK    5  A    between atoms: C_11  and  C_12
REMARK    6  A    between atoms: C_12  and  C_13
REMARK    7  A    between atoms: C_13  and  N_14
REMARK    8  A    between atoms: C_19  and  C_21
REMARK    9  A    between atoms: N_27  and  C_30
REMARK                            x       y       z     vdW  Elec       q    Type
REMARK                         _______ _______ _______ _____ _____    ______ ____
ROOT
ATOM      1  C   UNL     1       6.060  -2.726  -1.782  0.00  0.00    +0.074 C 
ENDROOT
BRANCH   1   8
ATOM      2  C   UNL     1       9.343  -7.599  -5.701  0.00  0.00    +0.053 C 
ATOM      3  C   UNL     1       8.969  -6.135  -5.935  0.00  0.00    +0.057 A 
ATOM      4  C   UNL     1       7.618  -5.889  -5.293  0.00  0.00    +0.152 A 
ATOM      5  C   UNL     1       7.537  -4.882  -4.300  0.00  0.00    +0.126 A 
ATOM      6  C   UNL     1       8.658  -4.153  -3.936  0.00  0.00    +0.165 A 
ATOM      7  N   UNL     1       8.245  -3.275  -2.975  0.00  0.00    -0.215 NA
ATOM      8  C   UNL     1       6.914  -3.483  -2.767  0.00  0.00    +0.110 A 
ATOM      9  N   UNL     1       6.493  -4.429  -3.551  0.00  0.00    -0.338 N 
ATOM     10  N   UNL     1       9.896  -4.355  -4.503  0.00  0.00    -0.294 N 
ATOM     11  C   UNL     1      10.120  -5.277  -5.456  0.00  0.00    +0.259 A 
ATOM     12  O   UNL     1      11.229  -5.418  -5.926  0.00  0.00    -0.267 OA
ATOM     13  C   UNL     1      11.017  -3.531  -4.048  0.00  0.00    +0.154 C 
ATOM     14  H   UNL     1       5.494  -4.872  -3.675  0.00  0.00    +0.167 HD
BRANCH   4  15
ATOM     15  O   UNL     1       6.640  -6.533  -5.617  0.00  0.00    -0.504 OA
ATOM     16  H   UNL     1       5.670  -6.338  -5.138  0.00  0.00    +0.292 HD
ENDBRANCH   4  15
ENDBRANCH   1   8
BRANCH   1  17
ATOM     17  C   UNL     1       4.862  -2.115  -2.512  0.00  0.00    +0.009 C 
BRANCH  17  18
ATOM     18  C   UNL     1       3.994  -1.346  -1.512  0.00  0.00    +0.021 C 
BRANCH  18  19
ATOM     19  C   UNL     1       2.796  -0.735  -2.242  0.00  0.00    +0.135 C 
BRANCH  19  20
ATOM     20  N   UNL     1       1.966   0.001  -1.285  0.00  0.00    -0.193 N 
ATOM     21  C   UNL     1       2.208   1.306  -1.055  0.00  0.00    +0.235 C 
ATOM     22  O   UNL     1       3.060   1.889  -1.692  0.00  0.00    -0.274 OA
ATOM     23  C   UNL     1       1.415   2.037  -0.001  0.00  0.00    +0.104 C 
ATOM     24  C   UNL     1      -0.018   1.502   0.010  0.00  0.00    +0.067 C 
ATOM     25  C   UNL     1       0.002  -0.004   0.002  0.00  0.00    +0.067 C 
ATOM     26  N   UNL     1       0.929  -0.657  -0.618  0.00  0.00    -0.182 NA
BRANCH  25  27
ATOM     27  C   UNL     1      -1.054  -0.747   0.714  0.00  0.00    -0.002 A 
ATOM     28  C   UNL     1      -2.060  -0.057   1.395  0.00  0.00    +0.010 A 
ATOM     29  C   UNL     1      -3.048  -0.758   2.055  0.00  0.00    +0.001 A 
ATOM     30  C   UNL     1      -3.038  -2.142   2.053  0.00  0.00    +0.000 A 
ATOM     31  C   UNL     1      -2.041  -2.832   1.386  0.00  0.00    +0.001 A 
ATOM     32  C   UNL     1      -1.050  -2.144   0.717  0.00  0.00    +0.010 A 
ENDBRANCH  25  27
ENDBRANCH  19  20
ENDBRANCH  18  19
ENDBRANCH  17  18
ENDBRANCH   1  17
TORSDOF 7
