REMARK  Name = ZINC19708249
REMARK  7 active torsions:
REMARK  status: ('A' for Active; 'I' for Inactive)
REMARK    1  A    between atoms: C_1  and  N_2
REMARK    2  A    between atoms: N_12  and  C_27
REMARK    3  A    between atoms: N_15  and  N_16
REMARK    4  A    between atoms: N_16  and  C_17
REMARK    5  A    between atoms: C_17  and  N_19
REMARK    6  A    between atoms: N_19  and  C_20
REMARK    7  A    between atoms: C_20  and  C_21
REMARK                            x       y       z     vdW  Elec       q    Type
REMARK                         _______ _______ _______ _____ _____    ______ ____
ROOT
ATOM      1  C   UNL     1       3.278  -6.104  11.567  0.00  0.00    +0.105 C 
ATOM      2  N   UNL     1       2.812  -5.269  10.452  0.00  0.00    -0.300 NA
ATOM      3  C   UNL     1       2.422  -3.932  10.921  0.00  0.00    +0.089 C 
ATOM      4  C   UNL     1       2.304  -2.972   9.735  0.00  0.00    +0.052 C 
ATOM      5  C   UNL     1       1.398  -3.616   8.689  0.00  0.00    -0.020 A 
ATOM      6  C   UNL     1       1.155  -4.943   8.735  0.00  0.00    +0.010 A 
ATOM      7  S   UNL     1       0.076  -5.260   7.368  0.00  0.00    -0.072 S 
ATOM      8  C   UNL     1      -0.045  -3.606   6.734  0.00  0.00    +0.118 A 
ATOM      9  C   UNL     1       0.761  -2.860   7.612  0.00  0.00    +0.076 A 
ATOM     10  C   UNL     1       0.850  -1.459   7.335  0.00  0.00    +0.268 A 
ATOM     11  O   UNL     1       1.526  -0.731   8.042  0.00  0.00    -0.266 OA
ATOM     12  N   UNL     1       0.178  -0.955   6.283  0.00  0.00    -0.247 N 
ATOM     13  C   UNL     1      -0.584  -1.755   5.480  0.00  0.00    +0.221 A 
ATOM     14  N   UNL     1      -0.687  -3.046   5.715  0.00  0.00    -0.207 NA
ATOM     15  N   UNL     1      -1.255  -1.204   4.416  0.00  0.00    -0.234 N 
ATOM     16  C   UNL     1       1.695  -5.915   9.738  0.00  0.00    +0.126 C 
ATOM     17  H   UNL     1      -1.242  -0.115   4.262  0.00  0.00    +0.173 HD
ENDROOT
BRANCH  12  18
ATOM     18  C   UNL     1       0.262   0.416   6.006  0.00  0.00    +0.053 A 
ATOM     19  C   UNL     1       1.253   0.895   5.161  0.00  0.00    +0.026 A 
ATOM     20  C   UNL     1       1.330   2.247   4.886  0.00  0.00    +0.002 A 
ATOM     21  C   UNL     1       0.428   3.123   5.461  0.00  0.00    +0.000 A 
ATOM     22  C   UNL     1      -0.556   2.649   6.308  0.00  0.00    +0.002 A 
ATOM     23  C   UNL     1      -0.642   1.298   6.582  0.00  0.00    +0.026 A 
ENDBRANCH  12  18
BRANCH  15  24
ATOM     24  N   UNL     1      -1.956  -2.030   3.527  0.00  0.00    -0.246 N 
ATOM     25  H   UNL     1      -1.969  -3.119   3.682  0.00  0.00    +0.172 HD
BRANCH  24  26
ATOM     26  C   UNL     1      -2.615  -1.489   2.483  0.00  0.00    +0.147 C 
ATOM     27  S   UNL     1      -3.472  -2.498   1.397  0.00  0.00    -0.017 S 
BRANCH  26  28
ATOM     28  N   UNL     1      -2.599  -0.155   2.294  0.00  0.00    -0.321 N 
ATOM     29  H   UNL     1      -2.049   0.493   2.992  0.00  0.00    +0.148 HD
BRANCH  28  30
ATOM     30  C   UNL     1      -3.316   0.433   1.159  0.00  0.00    +0.138 C 
BRANCH  30  31
ATOM     31  C   UNL     1      -3.141   1.929   1.175  0.00  0.00    -0.030 A 
ATOM     32  C   UNL     1      -4.047   2.724   1.853  0.00  0.00    +0.005 A 
ATOM     33  C   UNL     1      -3.884   4.096   1.873  0.00  0.00    +0.000 A 
ATOM     34  C   UNL     1      -2.821   4.676   1.205  0.00  0.00    +0.000 A 
ATOM     35  C   UNL     1      -1.919   3.882   0.522  0.00  0.00    +0.000 A 
ATOM     36  C   UNL     1      -2.078   2.509   0.507  0.00  0.00    +0.005 A 
ENDBRANCH  30  31
ENDBRANCH  28  30
ENDBRANCH  26  28
ENDBRANCH  24  26
ENDBRANCH  15  24
TORSDOF 6
