REMARK  Name = ZINC43756678
REMARK  8 active torsions:
REMARK  status: ('A' for Active; 'I' for Inactive)
REMARK    1  A    between atoms: C_1  and  C_2
REMARK    2  A    between atoms: C_2  and  C_4
REMARK    3  A    between atoms: C_2  and  O_33
REMARK    4  A    between atoms: C_10  and  C_32
REMARK    5  A    between atoms: C_21  and  C_31
REMARK    6  A    between atoms: C_24  and  O_27
REMARK    7  A    between atoms: O_27  and  C_28
REMARK    8  A    between atoms: C_28  and  C_30
REMARK                            x       y       z     vdW  Elec       q    Type
REMARK                         _______ _______ _______ _____ _____    ______ ____
ROOT
ATOM      1  C   UNL     1       0.742  -0.511   1.242  0.00  0.00    +0.024 C 
ATOM      2  C   UNL     1       0.001  -0.069   2.517  0.00  0.00    +0.007 C 
ATOM      3  C   UNL     1      -0.372  -1.360   3.281  0.00  0.00    +0.005 C 
ATOM      4  C   UNL     1       0.643  -2.393   2.758  0.00  0.00    -0.001 C 
ATOM      5  C   UNL     1       0.753  -2.063   1.258  0.00  0.00    -0.024 C 
ATOM      6  C   UNL     1      -0.502  -2.519   0.511  0.00  0.00    +0.007 C 
ATOM      7  C   UNL     1      -0.779  -3.998   0.770  0.00  0.00    +0.005 C 
ATOM      8  C   UNL     1      -1.044  -4.190   2.267  0.00  0.00    -0.001 C 
ATOM      9  C   UNL     1       0.213  -3.815   3.021  0.00  0.00    -0.004 C 
ATOM     10  C   UNL     1      -0.029  -4.032   4.516  0.00  0.00    +0.004 C 
ATOM     11  C   UNL     1      -0.387  -5.498   4.768  0.00  0.00    +0.004 C 
ATOM     12  C   UNL     1      -1.654  -5.855   3.989  0.00  0.00    -0.001 C 
ATOM     13  C   UNL     1      -1.408  -5.652   2.532  0.00  0.00    -0.026 C 
ATOM     14  C   UNL     1      -2.682  -6.008   1.764  0.00  0.00    +0.011 C 
ATOM     15  C   UNL     1      -3.048  -7.469   2.031  0.00  0.00    +0.045 C 
ATOM     16  C   UNL     1      -3.283  -7.670   3.530  0.00  0.00    +0.177 C 
ATOM     17  C   UNL     1      -2.014  -7.320   4.244  0.00  0.00    +0.048 C 
ATOM     18  C   UNL     1      -0.263  -6.555   2.067  0.00  0.00    +0.012 C 
ATOM     19  C   UNL     1       2.032  -2.633   0.640  0.00  0.00    +0.012 C 
ENDROOT
BRANCH   1  21
ATOM     20  C   UNL     1      -0.019   1.526   0.010  0.00  0.00    +0.038 C 
ATOM     21  C   UNL     1       0.002  -0.004   0.002  0.00  0.00    +0.115 C 
BRANCH  21  22
ATOM     22  O   UNL     1       0.671  -0.465  -1.174  0.00  0.00    -0.392 OA
ATOM     23  H   UNL     1       0.256  -0.181  -1.999  0.00  0.00    +0.210 HD
ENDBRANCH  21  22
ENDBRANCH   1  21
BRANCH  16  24
ATOM     24  O   UNL     1      -4.351  -6.824   3.962  0.00  0.00    -0.462 OA
BRANCH  24  25
ATOM     25  C   UNL     1      -5.592  -7.333   3.907  0.00  0.00    +0.304 C 
ATOM     26  O   UNL     1      -5.766  -8.459   3.504  0.00  0.00    -0.251 OA
ATOM     27  C   UNL     1      -6.768  -6.499   4.347  0.00  0.00    +0.136 C 
ENDBRANCH  24  25
ENDBRANCH  16  24
TORSDOF 4
