REMARK  Name = ZINC16575819
REMARK  6 active torsions:
REMARK  status: ('A' for Active; 'I' for Inactive)
REMARK    1  A    between atoms: C_9  and  C_12
REMARK    2  A    between atoms: C_12  and  O_14
REMARK    3  A    between atoms: O_14  and  C_15
REMARK    4  A    between atoms: C_15  and  C_16
REMARK    5  A    between atoms: N_18  and  C_19
REMARK    6  A    between atoms: C_20  and  C_27
REMARK                            x       y       z     vdW  Elec       q    Type
REMARK                         _______ _______ _______ _____ _____    ______ ____
ROOT
ATOM      1  C   UNL     1      -3.377   7.739  -0.633  0.00  0.00    +0.255 C 
ATOM      2  O   UNL     1      -2.260   8.123  -0.907  0.00  0.00    -0.272 OA
ATOM      3  N   UNL     1      -4.404   8.612  -0.612  0.00  0.00    -0.277 N 
ATOM      4  H   UNL     1      -5.298   8.304  -0.393  0.00  0.00    +0.155 HD
ENDROOT
BRANCH   3   5
ATOM      5  C   UNL     1      -4.183   9.949  -0.903  0.00  0.00    +0.084 A 
ATOM      6  C   UNL     1      -5.100  10.985  -0.938  0.00  0.00    +0.068 A 
ATOM      7  C   UNL     1      -4.603  12.319  -1.272  0.00  0.00    -0.023 A 
ATOM      8  C   UNL     1      -3.284  12.390  -1.524  0.00  0.00    -0.004 A 
ATOM      9  S   UNL     1      -2.694  10.728  -1.318  0.00  0.00    -0.077 S 
ATOM     10  C   UNL     1      -2.849  13.790  -1.862  0.00  0.00    +0.043 C 
ATOM     11  C   UNL     1      -4.006  14.687  -1.369  0.00  0.00    +0.010 C 
ATOM     12  C   UNL     1      -5.202  13.717  -1.429  0.00  0.00    +0.037 C 
BRANCH   6  13
ATOM     13  C   UNL     1      -6.519  10.754  -0.646  0.00  0.00    +0.244 C 
ATOM     14  O   UNL     1      -6.928  10.851   0.496  0.00  0.00    -0.270 OA
ATOM     15  N   UNL     1      -7.368  10.434  -1.642  0.00  0.00    -0.325 N 
ATOM     16  H   UNL     1      -7.042  10.357  -2.552  0.00  0.00    +0.145 HD
ATOM     17  H   UNL     1      -8.306  10.281  -1.449  0.00  0.00    +0.145 HD
ENDBRANCH   6  13
ENDBRANCH   3   5
BRANCH   1  18
ATOM     18  C   UNL     1      -3.618   6.285  -0.316  0.00  0.00    +0.328 C 
BRANCH  18  19
ATOM     19  O   UNL     1      -2.385   5.568  -0.404  0.00  0.00    -0.452 OA
BRANCH  19  20
ATOM     20  C   UNL     1      -2.426   4.244  -0.148  0.00  0.00    +0.339 C 
ATOM     21  O   UNL     1      -3.482   3.714   0.142  0.00  0.00    -0.245 OA
BRANCH  20  30
ATOM     22  C   UNL     1       2.401   0.043  -0.067  0.00  0.00    +0.023 A 
ATOM     23  C   UNL     1       2.394   1.426  -0.047  0.00  0.00    +0.048 A 
ATOM     24  C   UNL     1       1.192   2.109   0.002  0.00  0.00    +0.128 A 
ATOM     25  C   UNL     1      -0.017   1.390   0.010  0.00  0.00    +0.019 A 
ATOM     26  C   UNL     1       0.002  -0.004   0.002  0.00  0.00    +0.031 A 
ATOM     27  C   UNL     1       1.212  -0.669  -0.036  0.00  0.00    +0.042 A 
ATOM     28 CL   UNL     1       1.244  -2.405  -0.045  0.00  0.00    -0.084 Cl
ATOM     29  C   UNL     1      -1.280   2.141   0.040  0.00  0.00    +0.025 C 
ATOM     30  C   UNL     1      -1.240   3.471  -0.217  0.00  0.00    +0.074 C 
ATOM     31  C   UNL     1       0.068   4.127  -0.576  0.00  0.00    +0.271 C 
ATOM     32  O   UNL     1       1.156   3.463   0.066  0.00  0.00    -0.487 OA
ENDBRANCH  20  30
ENDBRANCH  19  20
ENDBRANCH  18  19
ENDBRANCH   1  18
TORSDOF 6
