REMARK  Name = ZINC26601399
REMARK  12 active torsions:
REMARK  status: ('A' for Active; 'I' for Inactive)
REMARK    1  A    between atoms: C_1  and  C_2
REMARK    2  A    between atoms: C_5  and  C_8
REMARK    3  A    between atoms: C_10  and  C_13
REMARK    4  A    between atoms: C_13  and  C_15
REMARK    5  A    between atoms: C_13  and  N_16
REMARK    6  A    between atoms: N_19  and  C_22
REMARK    7  A    between atoms: C_22  and  C_24
REMARK    8  A    between atoms: C_22  and  C_25
REMARK    9  A    between atoms: N_30  and  C_31
REMARK   10  A    between atoms: C_31  and  C_32
REMARK   11  A    between atoms: C_32  and  C_33
REMARK   12  A    between atoms: C_32  and  C_34
REMARK                            x       y       z     vdW  Elec       q    Type
REMARK                         _______ _______ _______ _____ _____    ______ ____
ROOT
ATOM      1  N   UNL     1      -0.781  -8.688   1.801  0.00  0.00    +0.389 N 
ATOM      2  C   UNL     1      -2.095  -8.032   1.749  0.00  0.00    -0.062 C 
ATOM      3  C   UNL     1      -3.092  -8.944   1.031  0.00  0.00    +0.066 C 
ATOM      4  N   UNL     1      -3.191 -10.221   1.752  0.00  0.00    -0.295 NA
ATOM      5  C   UNL     1      -1.878 -10.877   1.833  0.00  0.00    +0.066 C 
ATOM      6  C   UNL     1      -0.891  -9.950   2.545  0.00  0.00    -0.062 C 
ATOM      7  H   UNL     1      -0.464  -8.877   0.862  0.00  0.00    -0.081 HD
ENDROOT
BRANCH   1   8
ATOM      8  C   UNL     1       0.180  -7.805   2.474  0.00  0.00    +0.019 C 
ATOM      9  C   UNL     1       1.549  -8.486   2.526  0.00  0.00    -0.003 C 
BRANCH   8  12
ATOM     10  C   UNL     1       0.412  -4.391   1.264  0.00  0.00    +0.202 A 
ATOM     11  N   UNL     1       0.295  -5.317   2.233  0.00  0.00    -0.193 NA
ATOM     12  C   UNL     1       0.293  -6.510   1.711  0.00  0.00    +0.214 A 
ATOM     13  O   UNL     1       0.408  -6.392   0.382  0.00  0.00    -0.339 OA
ATOM     14  N   UNL     1       0.479  -5.001   0.107  0.00  0.00    -0.056 NA
BRANCH  10  19
ATOM     15  C   UNL     1       0.560   1.311   2.068  0.00  0.00    +0.044 C 
ATOM     16  C   UNL     1       0.521  -0.181   1.858  0.00  0.00    -0.050 A 
ATOM     17  C   UNL     1       0.603  -0.699   0.578  0.00  0.00    +0.004 A 
ATOM     18  C   UNL     1       0.568  -2.064   0.379  0.00  0.00    +0.012 A 
ATOM     19  C   UNL     1       0.450  -2.921   1.472  0.00  0.00    +0.022 A 
ATOM     20  C   UNL     1       0.368  -2.394   2.759  0.00  0.00    +0.012 A 
ATOM     21  C   UNL     1       0.410  -1.028   2.946  0.00  0.00    +0.004 A 
ENDBRANCH  10  19
ENDBRANCH   8  12
ENDBRANCH   1   8
BRANCH   4  22
ATOM     22  C   UNL     1      -4.183 -11.104   1.125  0.00  0.00    +0.140 C 
ATOM     23  C   UNL     1      -3.946 -11.145  -0.387  0.00  0.00    +0.034 C 
BRANCH  22  24
ATOM     24  C   UNL     1      -5.569 -10.581   1.402  0.00  0.00    +0.237 C 
ATOM     25  O   UNL     1      -5.718  -9.450   1.813  0.00  0.00    -0.274 OA
ATOM     26  N   UNL     1      -6.641 -11.369   1.194  0.00  0.00    -0.239 N 
ATOM     27  C   UNL     1      -7.881 -10.901   1.442  0.00  0.00    +0.306 C 
ATOM     28  O   UNL     1      -8.030  -9.767   1.854  0.00  0.00    -0.252 OA
ATOM     29  N   UNL     1      -8.954 -11.689   1.233  0.00  0.00    -0.299 N 
ATOM     30  H   UNL     1      -6.522 -12.274   0.865  0.00  0.00    +0.159 HD
ATOM     31  H   UNL     1      -8.834 -12.594   0.904  0.00  0.00    +0.150 HD
BRANCH  29  32
ATOM     32  C   UNL     1     -10.300 -11.180   1.503  0.00  0.00    +0.108 C 
BRANCH  32  33
ATOM     33  C   UNL     1     -11.329 -12.267   1.186  0.00  0.00    -0.000 C 
ATOM     34  C   UNL     1     -11.142 -13.443   2.146  0.00  0.00    +0.009 C 
ATOM     35  C   UNL     1     -12.740 -11.697   1.348  0.00  0.00    +0.009 C 
ENDBRANCH  32  33
ENDBRANCH  29  32
ENDBRANCH  22  24
ENDBRANCH   4  22
TORSDOF 7
