REMARK  Name = ZINC62951644
REMARK  7 active torsions:
REMARK  status: ('A' for Active; 'I' for Inactive)
REMARK    1  A    between atoms: C_1  and  C_2
REMARK    2  A    between atoms: C_2  and  C_3
REMARK    3  A    between atoms: C_3  and  C_19
REMARK    4  A    between atoms: C_9  and  C_11
REMARK    5  A    between atoms: C_14  and  N_18
REMARK    6  A    between atoms: C_16  and  N_17
REMARK    7  A    between atoms: C_19  and  C_20
REMARK                            x       y       z     vdW  Elec       q    Type
REMARK                         _______ _______ _______ _____ _____    ______ ____
ROOT
ATOM      1  C   UNL     1      -1.375  -0.559  -0.116  0.00  0.00    -0.027 C 
ATOM      2  C   UNL     1      -2.042  -0.166  -1.436  0.00  0.00    +0.026 C 
ATOM      3  C   UNL     1      -1.186  -0.664  -2.605  0.00  0.00    +0.108 C 
ATOM      4  N   UNL     1      -0.965  -2.108  -2.447  0.00  0.00    -0.297 N 
ATOM      5  C   UNL     1      -0.412  -2.604  -1.180  0.00  0.00    +0.108 C 
ATOM      6  C   UNL     1      -1.276  -2.084  -0.027  0.00  0.00    +0.026 C 
ATOM      7  C   UNL     1      -1.265  -2.962  -3.446  0.00  0.00    +0.248 C 
ATOM      8  O   UNL     1      -1.820  -2.554  -4.449  0.00  0.00    -0.270 OA
ENDROOT
BRANCH   7   9
ATOM      9  C   UNL     1      -0.922  -4.387  -3.323  0.00  0.00    +0.058 A 
ATOM     10  C   UNL     1       0.392  -4.771  -3.034  0.00  0.00    +0.017 A 
ATOM     11  C   UNL     1       0.711  -6.093  -2.920  0.00  0.00    +0.023 A 
ATOM     12  C   UNL     1      -0.268  -7.071  -3.091  0.00  0.00    +0.026 A 
ATOM     13  C   UNL     1      -1.577  -6.709  -3.378  0.00  0.00    +0.046 A 
ATOM     14  C   UNL     1      -1.914  -5.369  -3.491  0.00  0.00    +0.039 A 
BRANCH  14  15
ATOM     15  N   UNL     1      -3.223  -4.999  -3.773  0.00  0.00    -0.357 N 
ATOM     16  H   UNL     1      -3.441  -4.066  -3.926  0.00  0.00    +0.142 HD
ATOM     17  H   UNL     1      -3.919  -5.673  -3.816  0.00  0.00    +0.142 HD
ENDBRANCH  14  15
BRANCH  12  18
ATOM     18  N   UNL     1       0.069  -8.415  -2.973  0.00  0.00    -0.358 N 
ATOM     19  H   UNL     1       0.983  -8.671  -2.772  0.00  0.00    +0.142 HD
ATOM     20  H   UNL     1      -0.610  -9.098  -3.091  0.00  0.00    +0.142 HD
ENDBRANCH  12  18
ENDBRANCH   7   9
BRANCH   1  22
ATOM     21  C   UNL     1       0.738  -0.438   1.212  0.00  0.00    +0.004 C 
ATOM     22  C   UNL     1       0.029   0.047  -0.054  0.00  0.00    +0.003 C 
ENDBRANCH   1  22
BRANCH   1  23
ATOM     23  C   UNL     1      -2.210  -0.033   1.053  0.00  0.00    +0.003 C 
ATOM     24  C   UNL     1      -3.572  -0.730   1.062  0.00  0.00    +0.004 C 
ENDBRANCH   1  23
TORSDOF 5
