REMARK  Name = ZINC06776786
REMARK  10 active torsions:
REMARK  status: ('A' for Active; 'I' for Inactive)
REMARK    1  A    between atoms: C_1  and  C_2
REMARK    2  A    between atoms: C_2  and  C_3
REMARK    3  A    between atoms: C_3  and  C_5
REMARK    4  A    between atoms: C_3  and  N_6
REMARK    5  A    between atoms: C_7  and  C_9
REMARK    6  A    between atoms: C_15  and  C_17
REMARK    7  A    between atoms: C_17  and  C_18
REMARK    8  A    between atoms: C_18  and  C_19
REMARK    9  A    between atoms: C_18  and  C_20
REMARK   10  A    between atoms: C_24  and  C_27
REMARK                            x       y       z     vdW  Elec       q    Type
REMARK                         _______ _______ _______ _____ _____    ______ ____
ROOT
ATOM      1  C   UNL     1      -4.070   0.365   2.563  0.00  0.00    +0.190 C 
ATOM      2  C   UNL     1      -3.543   1.764   2.968  0.00  0.00    +0.194 C 
ATOM      3  O   UNL     1      -4.633   2.287   3.763  0.00  0.00    -0.354 OA
ATOM      4  C   UNL     1      -5.833   1.828   3.122  0.00  0.00    +0.139 C 
ATOM      5  N   UNL     1      -5.519   0.600   2.370  0.00  0.00    -0.259 N 
ATOM      6  C   UNL     1      -6.374  -0.155   1.652  0.00  0.00    +0.219 C 
ATOM      7  O   UNL     1      -5.994  -1.193   1.153  0.00  0.00    -0.275 OA
ATOM      8  C   UNL     1      -6.894   1.524   4.179  0.00  0.00    +0.055 C 
ATOM      9  C   UNL     1      -7.213   2.799   4.963  0.00  0.00    +0.005 C 
ATOM     10  C   UNL     1      -7.732   3.871   4.003  0.00  0.00    +0.003 C 
ATOM     11  C   UNL     1      -6.664   4.176   2.951  0.00  0.00    -0.010 C 
ATOM     12  C   UNL     1      -6.345   2.904   2.163  0.00  0.00    +0.058 C 
ATOM     13  C   UNL     1      -7.184   5.252   1.994  0.00  0.00    +0.007 C 
ENDROOT
BRANCH   1  15
ATOM     14  N   UNL     1      -2.329  -0.875   1.318  0.00  0.00    -0.311 N 
ATOM     15  C   UNL     1      -3.429  -0.096   1.280  0.00  0.00    +0.236 C 
ATOM     16  O   UNL     1      -3.902   0.233   0.212  0.00  0.00    -0.274 OA
ATOM     17  H   UNL     1      -1.951  -1.138   2.171  0.00  0.00    +0.149 HD
BRANCH  14  18
ATOM     18  C   UNL     1      -1.705  -1.323   0.070  0.00  0.00    +0.070 C 
ATOM     19  C   UNL     1      -2.406  -2.591  -0.423  0.00  0.00    +0.028 C 
BRANCH  18  21
ATOM     20  C   UNL     1       0.501  -0.329   0.693  0.00  0.00    +0.005 C 
ATOM     21  C   UNL     1      -0.226  -1.623   0.319  0.00  0.00    +0.018 C 
ENDBRANCH  18  21
ENDBRANCH  14  18
ENDBRANCH   1  15
BRANCH   6  22
ATOM     22  C   UNL     1      -7.802   0.290   1.469  0.00  0.00    +0.099 C 
BRANCH  22  23
ATOM     23  C   UNL     1      -8.562  -0.758   0.654  0.00  0.00    -0.008 C 
ATOM     24  C   UNL     1      -8.644  -2.062   1.450  0.00  0.00    +0.008 C 
ATOM     25  C   UNL     1      -9.975  -0.249   0.361  0.00  0.00    +0.008 C 
ENDBRANCH  22  23
ENDBRANCH   6  22
TORSDOF 5
