REMARK  Name = ZINC64450238
REMARK  5 active torsions:
REMARK  status: ('A' for Active; 'I' for Inactive)
REMARK    1  A    between atoms: C_1  and  C_2
REMARK    2  A    between atoms: C_5  and  C_9
REMARK    3  A    between atoms: C_7  and  C_8
REMARK    4  A    between atoms: C_9  and  C_11
REMARK    5  A    between atoms: C_20  and  C_23
REMARK                            x       y       z     vdW  Elec       q    Type
REMARK                         _______ _______ _______ _____ _____    ______ ____
ROOT
ATOM      1  C   UNL     1       0.063  -4.992  -1.331  0.00  0.00    +0.085 C 
ATOM      2  C   UNL     1      -1.374  -5.170  -1.827  0.00  0.00    +0.108 C 
ATOM      3  C   UNL     1      -2.145  -6.170  -1.022  0.00  0.00    +0.219 C 
ATOM      4  O   UNL     1      -3.356  -6.134  -1.075  0.00  0.00    -0.275 OA
ATOM      5  N   UNL     1      -1.573  -7.110  -0.242  0.00  0.00    -0.272 N 
ATOM      6  C   UNL     1      -0.209  -7.074  -0.101  0.00  0.00    +0.134 C 
ATOM      7  N   UNL     1       0.585  -7.511   0.814  0.00  0.00    -0.138 NA
ATOM      8  N   UNL     1       1.884  -7.027   0.652  0.00  0.00    -0.151 NA
ATOM      9  C   UNL     1       2.016  -6.323  -0.442  0.00  0.00    +0.082 C 
ATOM     10  C   UNL     1       0.678  -6.380  -1.132  0.00  0.00    +0.116 C 
ATOM     11  H   UNL     1      -2.106  -7.787   0.203  0.00  0.00    +0.156 HD
ENDROOT
BRANCH   9  12
ATOM     12  C   UNL     1       3.223  -5.620  -0.905  0.00  0.00    -0.001 A 
ATOM     13  C   UNL     1       3.201  -4.900  -2.103  0.00  0.00    +0.010 A 
ATOM     14  C   UNL     1       4.337  -4.243  -2.530  0.00  0.00    +0.001 A 
ATOM     15  C   UNL     1       5.495  -4.296  -1.775  0.00  0.00    +0.000 A 
ATOM     16  C   UNL     1       5.525  -5.007  -0.588  0.00  0.00    +0.001 A 
ATOM     17  C   UNL     1       4.396  -5.664  -0.145  0.00  0.00    +0.010 A 
ENDBRANCH   9  12
BRANCH   1  18
ATOM     18  C   UNL     1       0.059  -4.245  -0.021  0.00  0.00    +0.168 C 
ATOM     19  O   UNL     1       0.072  -4.857   1.025  0.00  0.00    -0.292 OA
BRANCH  18  24
ATOM     20  C   UNL     1      -0.018   1.503   0.010  0.00  0.00    +0.044 C 
ATOM     21  C   UNL     1       0.002  -0.004   0.002  0.00  0.00    -0.047 A 
ATOM     22  C   UNL     1       0.006  -0.686  -1.203  0.00  0.00    +0.004 A 
ATOM     23  C   UNL     1       0.024  -2.064  -1.219  0.00  0.00    +0.011 A 
ATOM     24  C   UNL     1       0.040  -2.774  -0.013  0.00  0.00    +0.018 A 
ATOM     25  C   UNL     1       0.036  -2.078   1.200  0.00  0.00    +0.015 A 
ATOM     26  C   UNL     1       0.023  -0.699   1.199  0.00  0.00    -0.047 A 
ATOM     27  C   UNL     1       0.025   0.054   2.504  0.00  0.00    +0.044 C 
ENDBRANCH  18  24
ENDBRANCH   1  18
TORSDOF 3
