REMARK  Name = ZINC21041170
REMARK  6 active torsions:
REMARK  status: ('A' for Active; 'I' for Inactive)
REMARK    1  A    between atoms: C_1  and  C_2
REMARK    2  A    between atoms: C_3  and  N_20
REMARK    3  A    between atoms: C_5  and  S_9
REMARK    4  A    between atoms: S_9  and  N_12
REMARK    5  A    between atoms: N_12  and  C_13
REMARK    6  A    between atoms: C_16  and  O_19
REMARK                            x       y       z     vdW  Elec       q    Type
REMARK                         _______ _______ _______ _____ _____    ______ ____
ROOT
ATOM      1  S   UNL     1      -1.810   0.590   1.967  0.00  0.00    +0.059 S 
ATOM      2  O   UNL     1      -2.271   1.308   3.103  0.00  0.00    -0.153 OA
ATOM      3  O   UNL     1      -2.689   0.117   0.956  0.00  0.00    -0.153 OA
ENDROOT
BRANCH   1   8
ATOM      4  C   UNL     1       1.154  -4.241   4.053  0.00  0.00    +0.047 C 
ATOM      5  C   UNL     1       0.415  -3.035   3.534  0.00  0.00    -0.011 A 
ATOM      6  C   UNL     1       0.277  -1.907   4.332  0.00  0.00    +0.031 A 
ATOM      7  C   UNL     1      -0.405  -0.797   3.850  0.00  0.00    +0.051 A 
ATOM      8  C   UNL     1      -0.945  -0.818   2.579  0.00  0.00    +0.108 A 
ATOM      9  C   UNL     1      -0.812  -1.944   1.788  0.00  0.00    +0.049 A 
ATOM     10  C   UNL     1      -0.128  -3.050   2.263  0.00  0.00    +0.047 A 
ATOM     11 CL   UNL     1       0.043  -4.459   1.264  0.00  0.00    -0.083 Cl
BRANCH   6  12
ATOM     12  N   UNL     1       0.824  -1.888   5.618  0.00  0.00    -0.358 N 
ATOM     13  H   UNL     1       0.714  -0.994   6.249  0.00  0.00    +0.142 HD
ATOM     14  H   UNL     1       1.363  -2.768   5.999  0.00  0.00    +0.142 HD
ENDBRANCH   6  12
ENDBRANCH   1   8
BRANCH   1  15
ATOM     15  N   UNL     1      -0.698   1.558   1.213  0.00  0.00    -0.187 NA
ATOM     16  H   UNL     1      -0.362   2.479   1.712  0.00  0.00    +0.148 HD
BRANCH  15  17
ATOM     17  C   UNL     1      -0.013   1.086   0.008  0.00  0.00    +0.077 C 
ATOM     18  C   UNL     1      -0.753   1.593  -1.232  0.00  0.00    +0.023 C 
ATOM     19  C   UNL     1      -0.037   1.099  -2.490  0.00  0.00    +0.033 C 
ATOM     20  C   UNL     1       1.399   1.629  -2.501  0.00  0.00    +0.115 C 
ATOM     21  C   UNL     1       2.139   1.122  -1.262  0.00  0.00    +0.033 C 
ATOM     22  C   UNL     1       1.423   1.615  -0.003  0.00  0.00    +0.023 C 
BRANCH  20  23
ATOM     23  O   UNL     1       1.379   3.058  -2.493  0.00  0.00    -0.392 OA
ATOM     24  H   UNL     1       2.324   3.621  -2.499  0.00  0.00    +0.210 HD
ENDBRANCH  20  23
ENDBRANCH  15  17
ENDBRANCH   1  15
TORSDOF 5
