REMARK  Name = ZINC14257298
REMARK  10 active torsions:
REMARK  status: ('A' for Active; 'I' for Inactive)
REMARK    1  A    between atoms: C_1  and  C_2
REMARK    2  A    between atoms: C_3  and  C_11
REMARK    3  A    between atoms: C_7  and  N_8
REMARK    4  A    between atoms: C_11  and  O_13
REMARK    5  A    between atoms: O_13  and  C_14
REMARK    6  A    between atoms: C_17  and  C_22
REMARK    7  A    between atoms: C_19  and  O_20
REMARK    8  A    between atoms: O_20  and  C_21
REMARK    9  A    between atoms: N_23  and  N_24
REMARK   10  A    between atoms: C_25  and  C_26
REMARK                            x       y       z     vdW  Elec       q    Type
REMARK                         _______ _______ _______ _____ _____    ______ ____
ROOT
ATOM      1  C   UNL     1      -2.275   1.363  -2.950  0.00  0.00    +0.173 A 
ATOM      2  C   UNL     1      -1.715   2.564  -2.539  0.00  0.00    +0.051 A 
ATOM      3  C   UNL     1      -1.944   3.717  -3.257  0.00  0.00    +0.013 A 
ATOM      4  C   UNL     1      -2.743   3.679  -4.406  0.00  0.00    -0.002 A 
ATOM      5  C   UNL     1      -3.307   2.467  -4.820  0.00  0.00    +0.059 A 
ATOM      6  C   UNL     1      -3.068   1.314  -4.096  0.00  0.00    +0.163 A 
ENDROOT
BRANCH   6   7
ATOM      7  O   UNL     1      -3.609   0.134  -4.499  0.00  0.00    -0.491 OA
ATOM      8  C   UNL     1      -4.411   0.158  -5.682  0.00  0.00    +0.277 C 
ENDBRANCH   6   7
BRANCH   4   9
ATOM      9  C   UNL     1      -2.990   4.907  -5.174  0.00  0.00    +0.140 C 
ATOM     10  N   UNL     1      -2.462   6.038  -4.785  0.00  0.00    -0.180 NA
BRANCH  10  11
ATOM     11  N   UNL     1      -2.679   7.117  -5.459  0.00  0.00    -0.263 N 
ATOM     12  C   UNL     1      -2.148   8.255  -5.068  0.00  0.00    +0.143 C 
ATOM     13  N   UNL     1      -1.361   8.295  -3.936  0.00  0.00    -0.342 N 
ATOM     14  H   UNL     1      -1.107   7.471  -3.492  0.00  0.00    +0.144 HD
ATOM     15  H   UNL     1      -1.061   9.148  -3.584  0.00  0.00    +0.144 HD
ATOM     16  H   UNL     1      -3.233   7.088  -6.255  0.00  0.00    +0.190 HD
BRANCH  12  17
ATOM     17  C   UNL     1      -2.396   9.489  -5.840  0.00  0.00    +0.187 A 
ATOM     18  C   UNL     1      -1.587  10.713  -5.789  0.00  0.00    +0.191 A 
ATOM     19  N   UNL     1      -2.111  11.585  -6.605  0.00  0.00    -0.033 NA
ATOM     20  O   UNL     1      -3.249  10.993  -7.206  0.00  0.00    -0.240 OA
ATOM     21  N   UNL     1      -3.372   9.679  -6.692  0.00  0.00    -0.044 NA
ATOM     22  N   UNL     1      -0.456  10.909  -5.007  0.00  0.00    -0.339 N 
ATOM     23  H   UNL     1      -0.080  10.169  -4.505  0.00  0.00    +0.144 HD
ATOM     24  H   UNL     1      -0.044  11.786  -4.962  0.00  0.00    +0.144 HD
ENDBRANCH  12  17
ENDBRANCH  10  11
ENDBRANCH   4   9
BRANCH   1  25
ATOM     25  O   UNL     1      -2.046   0.229  -2.237  0.00  0.00    -0.419 OA
BRANCH  25  26
ATOM     26  C   UNL     1      -1.137  -0.644  -2.713  0.00  0.00    +0.345 C 
ATOM     27  O   UNL     1      -0.614  -0.450  -3.792  0.00  0.00    -0.245 OA
BRANCH  26  30
ATOM     28  C   UNL     1       0.963  -2.401  -3.651  0.00  0.00    +0.047 C 
ATOM     29  C   UNL     1       0.235  -2.694  -2.364  0.00  0.00    -0.006 A 
ATOM     30  C   UNL     1      -0.776  -1.839  -1.922  0.00  0.00    +0.064 A 
ATOM     31  C   UNL     1      -1.446  -2.118  -0.729  0.00  0.00    +0.015 A 
ATOM     32  C   UNL     1      -1.103  -3.235   0.005  0.00  0.00    +0.003 A 
ATOM     33  C   UNL     1      -0.100  -4.078  -0.439  0.00  0.00    +0.033 A 
ATOM     34  C   UNL     1       0.564  -3.810  -1.624  0.00  0.00    +0.130 A 
BRANCH  34  35
ATOM     35  N   UNL     1       1.632  -4.720  -2.094  0.00  0.00    +0.057 N 
ATOM     36  O   UNL     1       2.016  -5.620  -1.383  0.00  0.00    -0.126 OA
ATOM     37  O   UNL     1       2.120  -4.564  -3.189  0.00  0.00    -0.126 OA
ENDBRANCH  34  35
ENDBRANCH  26  30
ENDBRANCH  25  26
ENDBRANCH   1  25
TORSDOF 8
