REMARK  Name = ZINC40396991
REMARK  5 active torsions:
REMARK  status: ('A' for Active; 'I' for Inactive)
REMARK    1  A    between atoms: C_1  and  C_2
REMARK    2  A    between atoms: C_3  and  C_24
REMARK    3  A    between atoms: N_13  and  C_16
REMARK    4  A    between atoms: C_16  and  C_17
REMARK    5  A    between atoms: C_17  and  C_18
REMARK                            x       y       z     vdW  Elec       q    Type
REMARK                         _______ _______ _______ _____ _____    ______ ____
ROOT
ATOM      1  C   UNL     1      -0.018   1.503   0.010  0.00  0.00    +0.068 C 
ATOM      2  C   UNL     1       0.002  -0.004   0.002  0.00  0.00    +0.070 A 
ATOM      3  C   UNL     1       0.008  -0.813  -1.142  0.00  0.00    +0.049 A 
ATOM      4  C   UNL     1       0.028  -2.143  -0.711  0.00  0.00    +0.164 A 
ATOM      5  N   UNL     1       0.040  -3.303  -1.383  0.00  0.00    -0.235 NA
ATOM      6  C   UNL     1       0.058  -4.462  -0.767  0.00  0.00    +0.128 A 
ATOM      7  C   UNL     1       0.065  -4.502   0.641  0.00  0.00    +0.083 A 
ATOM      8  C   UNL     1       0.053  -3.294   1.360  0.00  0.00    +0.083 A 
ATOM      9  N   UNL     1       0.034  -2.112   0.661  0.00  0.00    -0.213 N 
ATOM     10  N   UNL     1       0.023  -0.772   1.062  0.00  0.00    -0.169 NA
ATOM     11  C   UNL     1       0.061  -3.338   2.762  0.00  0.00    +0.046 A 
ATOM     12  C   UNL     1       0.081  -4.527   3.402  0.00  0.00    +0.091 A 
ATOM     13  N   UNL     1       0.094  -5.712   2.735  0.00  0.00    -0.314 N 
ATOM     14  C   UNL     1       0.086  -5.759   1.386  0.00  0.00    +0.262 A 
ATOM     15  O   UNL     1       0.097  -6.828   0.801  0.00  0.00    -0.267 OA
ENDROOT
BRANCH   3  16
ATOM     16  C   UNL     1      -0.005  -0.346  -2.548  0.00  0.00    -0.012 A 
ATOM     17  C   UNL     1      -1.101  -0.619  -3.366  0.00  0.00    +0.011 A 
ATOM     18  C   UNL     1      -1.108  -0.181  -4.674  0.00  0.00    +0.039 A 
ATOM     19  C   UNL     1      -0.029   0.528  -5.176  0.00  0.00    +0.123 A 
ATOM     20  C   UNL     1       1.062   0.801  -4.367  0.00  0.00    +0.039 A 
ATOM     21  C   UNL     1       1.077   0.373  -3.056  0.00  0.00    +0.011 A 
ATOM     22  F   UNL     1      -0.040   0.953  -6.458  0.00  0.00    -0.205 F 
ENDBRANCH   3  16
BRANCH  13  23
ATOM     23  C   UNL     1       0.117  -6.963   3.496  0.00  0.00    +0.131 C 
BRANCH  23  24
ATOM     24  C   UNL     1      -1.318  -7.419   3.770  0.00  0.00    +0.076 C 
BRANCH  24  25
ATOM     25  C   UNL     1      -1.295  -8.707   4.553  0.00  0.00    +0.035 A 
ATOM     26  C   UNL     1      -1.180  -9.950   4.050  0.00  0.00    +0.105 A 
ATOM     27  N   UNL     1      -1.201 -10.816   5.075  0.00  0.00    -0.352 N 
ATOM     28  C   UNL     1      -1.325 -10.156   6.194  0.00  0.00    +0.171 A 
ATOM     29  N   UNL     1      -1.381  -8.836   5.913  0.00  0.00    -0.350 N 
ATOM     30  H   UNL     1      -1.467  -8.114   6.556  0.00  0.00    +0.166 HD
ATOM     31  H   UNL     1      -1.135 -11.781   4.996  0.00  0.00    +0.166 HD
ENDBRANCH  24  25
ENDBRANCH  23  24
ENDBRANCH  13  23
TORSDOF 4
