REMARK  Name = ZINC43385318
REMARK  3 active torsions:
REMARK  status: ('A' for Active; 'I' for Inactive)
REMARK    1  A    between atoms: C_1  and  C_2
REMARK    2  A    between atoms: N_7  and  C_8
REMARK    3  A    between atoms: N_10  and  C_11
REMARK                            x       y       z     vdW  Elec       q    Type
REMARK                         _______ _______ _______ _____ _____    ______ ____
ROOT
ATOM      1  C   UNL     1       0.256  -4.858  -0.027  0.00  0.00    +0.326 C 
ATOM      2  O   UNL     1      -0.952  -4.691  -0.021  0.00  0.00    -0.251 OA
ATOM      3  N   UNL     1       0.763  -6.107  -0.036  0.00  0.00    -0.291 N 
ATOM      4  H   UNL     1       1.724  -6.240  -0.041  0.00  0.00    +0.151 HD
ENDROOT
BRANCH   3   5
ATOM      5  C   UNL     1      -0.137  -7.263  -0.040  0.00  0.00    +0.105 C 
ATOM      6  C   UNL     1       0.583  -8.504   0.530  0.00  0.00    +0.032 C 
ATOM      7  C   UNL     1       1.152  -9.169  -0.741  0.00  0.00    +0.037 C 
ATOM      8  C   UNL     1       0.234  -8.732  -1.862  0.00  0.00    -0.042 A 
ATOM      9  C   UNL     1      -0.509  -7.635  -1.459  0.00  0.00    -0.024 A 
ATOM     10  C   UNL     1      -1.422  -7.061  -2.327  0.00  0.00    +0.006 A 
ATOM     11  C   UNL     1      -1.596  -7.580  -3.596  0.00  0.00    +0.000 A 
ATOM     12  C   UNL     1      -0.856  -8.675  -4.001  0.00  0.00    +0.000 A 
ATOM     13  C   UNL     1       0.060  -9.252  -3.134  0.00  0.00    +0.004 A 
ENDBRANCH   3   5
BRANCH   1  20
ATOM     14  C   UNL     1      -0.018   1.503   0.010  0.00  0.00    +0.053 C 
ATOM     15  C   UNL     1       0.002  -0.004   0.002  0.00  0.00    +0.006 A 
ATOM     16  C   UNL     1      -1.025  -0.859   0.002  0.00  0.00    +0.095 A 
ATOM     17  N   UNL     1      -0.732  -2.188  -0.007  0.00  0.00    -0.342 N 
ATOM     18  H   UNL     1      -1.440  -2.851  -0.008  0.00  0.00    +0.167 HD
ATOM     19  C   UNL     1       0.575  -2.571  -0.014  0.00  0.00    +0.165 A 
ATOM     20  N   UNL     1       1.076  -3.804  -0.024  0.00  0.00    -0.139 NA
ATOM     21  S   UNL     1       1.403  -1.107  -0.018  0.00  0.00    -0.058 S 
ENDBRANCH   1  20
TORSDOF 2
