REMARK  Name = ZINC50867163
REMARK  2 active torsions:
REMARK  status: ('A' for Active; 'I' for Inactive)
REMARK    1  A    between atoms: C_3  and  C_6
REMARK    2  A    between atoms: C_10  and  N_12
REMARK                            x       y       z     vdW  Elec       q    Type
REMARK                         _______ _______ _______ _____ _____    ______ ____
ROOT
ATOM      1  C   UNL     1       3.571   0.619  -0.029  0.00  0.00    +0.198 A 
ATOM      2  N   UNL     1       4.191  -0.553  -0.047  0.00  0.00    -0.229 NA
ATOM      3  C   UNL     1       5.518  -0.630  -0.064  0.00  0.00    +0.050 A 
ATOM      4  C   UNL     1       6.254   0.531  -0.065  0.00  0.00    +0.013 A 
ATOM      5  C   UNL     1       5.574   1.756  -0.042  0.00  0.00    +0.124 A 
ATOM      6  N   UNL     1       4.248   1.762  -0.030  0.00  0.00    -0.210 NA
ATOM      7  C   UNL     1       7.757   0.542  -0.098  0.00  0.00    +0.040 C 
ATOM      8  C   UNL     1       8.312  -0.823   0.308  0.00  0.00    +0.005 C 
ATOM      9  C   UNL     1       7.611  -1.899  -0.529  0.00  0.00    +0.006 C 
ATOM     10  C   UNL     1       6.155  -1.994  -0.075  0.00  0.00    +0.056 C 
ENDROOT
BRANCH   1  13
ATOM     11  C   UNL     1      -0.016   1.344   0.009  0.00  0.00    +0.042 A 
ATOM     12  C   UNL     1       1.324   1.776  -0.001  0.00  0.00    +0.053 A 
ATOM     13  C   UNL     1       2.096   0.655  -0.014  0.00  0.00    +0.172 A 
ATOM     14  O   UNL     1       1.278  -0.417  -0.012  0.00  0.00    -0.460 OA
ATOM     15  C   UNL     1       0.002  -0.004   0.002  0.00  0.00    +0.196 A 
ENDBRANCH   1  13
BRANCH   5  16
ATOM     16  N   UNL     1       6.280   2.949  -0.037  0.00  0.00    -0.343 N 
ATOM     17  H   UNL     1       7.250   2.938  -0.050  0.00  0.00    +0.144 HD
ATOM     18  H   UNL     1       5.804   3.794  -0.022  0.00  0.00    +0.144 HD
ENDBRANCH   5  16
TORSDOF 2
