REMARK  Name = ZINC20596961
REMARK  9 active torsions:
REMARK  status: ('A' for Active; 'I' for Inactive)
REMARK    1  A    between atoms: C_4  and  C_7
REMARK    2  A    between atoms: C_7  and  C_9
REMARK    3  A    between atoms: C_7  and  N_18
REMARK    4  A    between atoms: C_12  and  O_17
REMARK    5  A    between atoms: C_13  and  O_16
REMARK    6  A    between atoms: C_14  and  O_15
REMARK    7  A    between atoms: N_18  and  C_19
REMARK    8  A    between atoms: C_19  and  C_20
REMARK    9  A    between atoms: C_20  and  O_21
REMARK                            x       y       z     vdW  Elec       q    Type
REMARK                         _______ _______ _______ _____ _____    ______ ____
ROOT
ATOM      1  C   UNL     1      -0.795   1.527  -1.120  0.00  0.00    -0.006 C 
ENDROOT
BRANCH   1   5
ATOM      2  C   UNL     1      -2.492   5.298  -0.050  0.00  0.00    +0.000 A 
ATOM      3  C   UNL     1      -1.981   5.106  -1.320  0.00  0.00    +0.000 A 
ATOM      4  C   UNL     1      -1.433   3.885  -1.666  0.00  0.00    +0.002 A 
ATOM      5  C   UNL     1      -1.394   2.857  -0.742  0.00  0.00    -0.057 A 
ATOM      6  C   UNL     1      -1.909   3.049   0.526  0.00  0.00    +0.002 A 
ATOM      7  C   UNL     1      -2.453   4.271   0.874  0.00  0.00    +0.000 A 
ENDBRANCH   1   5
BRANCH   1   8
ATOM      8  C   UNL     1      -1.899   0.557  -1.456  0.00  0.00    -0.012 A 
ATOM      9  C   UNL     1      -2.379  -0.305  -0.488  0.00  0.00    +0.009 A 
ATOM     10  C   UNL     1      -3.391  -1.196  -0.791  0.00  0.00    +0.049 A 
ATOM     11  C   UNL     1      -3.929  -1.228  -2.069  0.00  0.00    +0.162 A 
ATOM     12  C   UNL     1      -3.450  -0.363  -3.045  0.00  0.00    +0.201 A 
ATOM     13  C   UNL     1      -2.436   0.535  -2.734  0.00  0.00    +0.164 A 
BRANCH  13  14
ATOM     14  O   UNL     1      -1.966   1.388  -3.684  0.00  0.00    -0.503 OA
ATOM     15  H   UNL     1      -2.393   1.370  -4.698  0.00  0.00    +0.292 HD
ENDBRANCH  13  14
BRANCH  12  16
ATOM     16  O   UNL     1      -3.976  -0.391  -4.300  0.00  0.00    -0.501 OA
ATOM     17  H   UNL     1      -3.596   0.295  -5.071  0.00  0.00    +0.292 HD
ENDBRANCH  12  16
BRANCH  11  18
ATOM     18  O   UNL     1      -4.925  -2.106  -2.367  0.00  0.00    -0.503 OA
ATOM     19  H   UNL     1      -5.351  -2.131  -3.380  0.00  0.00    +0.292 HD
ENDBRANCH  11  18
ENDBRANCH   1   8
BRANCH   1  20
ATOM     20  N   UNL     1      -0.012   1.005   0.008  0.00  0.00    +0.388 N 
ATOM     21  H   UNL     1      -0.497   1.287   0.954  0.00  0.00    -0.084 HD
ATOM     22  H   UNL     1       0.046  -0.091  -0.062  0.00  0.00    -0.084 HD
BRANCH  20  23
ATOM     23  C   UNL     1       1.353   1.550  -0.003  0.00  0.00    -0.053 C 
BRANCH  23  24
ATOM     24  C   UNL     1       2.136   0.985   1.184  0.00  0.00    +0.137 C 
BRANCH  24  25
ATOM     25  O   UNL     1       2.292  -0.427   1.022  0.00  0.00    -0.397 OA
ATOM     26  H   UNL     1       2.833  -1.011   1.782  0.00  0.00    +0.209 HD
ENDBRANCH  24  25
ENDBRANCH  23  24
ENDBRANCH  20  23
ENDBRANCH   1  20
TORSDOF 9
