REMARK  Name = ZINC06137713
REMARK  12 active torsions:
REMARK  status: ('A' for Active; 'I' for Inactive)
REMARK    1  A    between atoms: C_1  and  C_2
REMARK    2  A    between atoms: C_5  and  O_31
REMARK    3  A    between atoms: C_7  and  C_28
REMARK    4  A    between atoms: C_7  and  C_29
REMARK    5  A    between atoms: C_12  and  O_27
REMARK    6  A    between atoms: C_14  and  C_16
REMARK    7  A    between atoms: C_16  and  C_17
REMARK    8  A    between atoms: C_23  and  C_25
REMARK    9  A    between atoms: C_25  and  O_26
REMARK   10  A    between atoms: C_29  and  O_30
REMARK   11  A    between atoms: O_31  and  C_32
REMARK   12  A    between atoms: N_34  and  C_35
REMARK                            x       y       z     vdW  Elec       q    Type
REMARK                         _______ _______ _______ _____ _____    ______ ____
ROOT
ATOM      1  C   UNL     1      -0.281   2.973   4.133  0.00  0.00    +0.012 C 
ATOM      2  C   UNL     1      -0.395   1.452   4.008  0.00  0.00    -0.023 C 
ATOM      3  C   UNL     1      -1.871   1.056   3.935  0.00  0.00    +0.011 C 
ATOM      4  C   UNL     1      -2.516   1.717   2.715  0.00  0.00    +0.046 C 
ATOM      5  C   UNL     1      -1.800   1.254   1.445  0.00  0.00    +0.186 C 
ATOM      6  C   UNL     1      -0.324   1.651   1.519  0.00  0.00    +0.031 C 
ATOM      7  C   UNL     1       0.321   0.989   2.738  0.00  0.00    +0.007 C 
ATOM      8  C   UNL     1       1.797   1.386   2.812  0.00  0.00    +0.007 C 
ATOM      9  C   UNL     1       2.443   0.724   4.031  0.00  0.00    +0.032 C 
ATOM     10  C   UNL     1       1.726   1.187   5.302  0.00  0.00    +0.119 C 
ATOM     11  C   UNL     1       0.250   0.790   5.228  0.00  0.00    +0.032 C 
ATOM     12  C   UNL     1       0.393   1.188   0.249  0.00  0.00    +0.017 C 
ENDROOT
BRANCH  10  13
ATOM     13  O   UNL     1       1.833   2.607   5.418  0.00  0.00    -0.391 OA
ATOM     14  H   UNL     1       1.375   3.124   6.274  0.00  0.00    +0.210 HD
ENDBRANCH  10  13
BRANCH  11  15
ATOM     15  C   UNL     1      -0.466   1.253   6.498  0.00  0.00    +0.102 C 
BRANCH  15  16
ATOM     16  C   UNL     1       0.087   0.509   7.686  0.00  0.00    +0.216 C 
ATOM     17  O   UNL     1       0.968  -0.310   7.532  0.00  0.00    -0.276 OA
ATOM     18  N   UNL     1      -0.397   0.755   8.920  0.00  0.00    -0.296 N 
ATOM     19  C   UNL     1      -1.462   1.720   9.249  0.00  0.00    +0.108 C 
ATOM     20  C   UNL     1      -1.224   2.081  10.736  0.00  0.00    +0.021 C 
ATOM     21  C   UNL     1      -0.765   0.718  11.319  0.00  0.00    +0.026 C 
ATOM     22  C   UNL     1       0.046   0.100  10.160  0.00  0.00    +0.101 C 
BRANCH  22  23
ATOM     23  C   UNL     1      -0.221  -1.404  10.078  0.00  0.00    +0.178 C 
BRANCH  23  24
ATOM     24  O   UNL     1      -1.630  -1.635  10.017  0.00  0.00    -0.393 OA
ATOM     25  H   UNL     1      -2.017  -2.663   9.953  0.00  0.00    +0.209 HD
ENDBRANCH  23  24
ENDBRANCH  22  23
ENDBRANCH  15  16
ENDBRANCH  11  15
BRANCH   6  26
ATOM     26  C   UNL     1      -0.210   3.171   1.644  0.00  0.00    +0.166 C 
BRANCH  26  27
ATOM     27  O   UNL     1      -0.632   3.783   0.423  0.00  0.00    -0.394 OA
ATOM     28  H   UNL     1      -0.620   4.878   0.323  0.00  0.00    +0.209 HD
ENDBRANCH  26  27
ENDBRANCH   6  26
BRANCH   5  29
ATOM     29  O   UNL     1      -2.412   1.882   0.288  0.00  0.00    -0.446 OA
BRANCH  29  30
ATOM     30  C   UNL     1      -3.434   1.226  -0.295  0.00  0.00    +0.405 C 
ATOM     31  O   UNL     1      -3.803   0.158   0.152  0.00  0.00    -0.226 OA
ATOM     32  N   UNL     1      -4.046   1.754  -1.373  0.00  0.00    -0.251 N 
ATOM     33  H   UNL     1      -3.664   2.681  -1.824  0.00  0.00    +0.158 HD
BRANCH  32  34
ATOM     34  C   UNL     1      -5.169   1.122  -1.919  0.00  0.00    +0.036 A 
ATOM     35  C   UNL     1      -5.255  -0.264  -1.922  0.00  0.00    +0.023 A 
ATOM     36  C   UNL     1      -6.367  -0.884  -2.456  0.00  0.00    +0.002 A 
ATOM     37  C   UNL     1      -7.390  -0.127  -2.998  0.00  0.00    +0.000 A 
ATOM     38  C   UNL     1      -7.305   1.253  -3.001  0.00  0.00    +0.002 A 
ATOM     39  C   UNL     1      -6.198   1.879  -2.463  0.00  0.00    +0.023 A 
ENDBRANCH  32  34
ENDBRANCH  29  30
ENDBRANCH   5  29
TORSDOF 10
