REMARK  Name = ZINC36612897
REMARK  8 active torsions:
REMARK  status: ('A' for Active; 'I' for Inactive)
REMARK    1  A    between atoms: C_1  and  N_2
REMARK    2  A    between atoms: C_3  and  C_5
REMARK    3  A    between atoms: C_6  and  C_24
REMARK    4  A    between atoms: C_11  and  C_13
REMARK    5  A    between atoms: C_15  and  O_22
REMARK    6  A    between atoms: C_16  and  O_20
REMARK    7  A    between atoms: O_20  and  C_21
REMARK    8  A    between atoms: O_22  and  C_23
REMARK                            x       y       z     vdW  Elec       q    Type
REMARK                         _______ _______ _______ _____ _____    ______ ____
ROOT
ATOM      1  C   UNL     1       0.631  -2.237  -0.929  0.00  0.00    +0.061 C 
ATOM      2  C   UNL     1       1.262  -3.128  -1.748  0.00  0.00    +0.052 C 
ATOM      3  N   UNL     1       1.093  -4.482  -1.576  0.00  0.00    -0.268 N 
ATOM      4  C   UNL     1       0.319  -5.016  -0.622  0.00  0.00    +0.305 C 
ATOM      5  O   UNL     1       0.231  -6.226  -0.547  0.00  0.00    -0.252 OA
ATOM      6  N   UNL     1      -0.364  -4.259   0.259  0.00  0.00    -0.288 N 
ATOM      7  C   UNL     1      -0.250  -2.794   0.170  0.00  0.00    +0.143 C 
ATOM      8  H   UNL     1       1.558  -5.083  -2.178  0.00  0.00    +0.156 HD
ATOM      9  H   UNL     1      -0.917  -4.672   0.940  0.00  0.00    +0.151 HD
ENDROOT
BRANCH   7  10
ATOM     10  C   UNL     1       0.274  -2.284   1.488  0.00  0.00    -0.005 A 
ATOM     11  C   UNL     1       1.214  -3.018   2.188  0.00  0.00    +0.056 A 
ATOM     12  C   UNL     1       1.696  -2.550   3.399  0.00  0.00    +0.162 A 
ATOM     13  C   UNL     1       1.234  -1.341   3.909  0.00  0.00    +0.163 A 
ATOM     14  C   UNL     1       0.292  -0.610   3.204  0.00  0.00    +0.065 A 
ATOM     15  C   UNL     1      -0.183  -1.080   1.992  0.00  0.00    +0.027 A 
ATOM     16 BR   UNL     1      -1.463  -0.077   1.027  0.00  0.00    -0.050 Br
BRANCH  13  17
ATOM     17  O   UNL     1       1.704  -0.878   5.098  0.00  0.00    -0.491 OA
ATOM     18  C   UNL     1       1.185   0.370   5.561  0.00  0.00    +0.277 C 
ENDBRANCH  13  17
BRANCH  12  19
ATOM     19  O   UNL     1       2.621  -3.272   4.088  0.00  0.00    -0.491 OA
ATOM     20  C   UNL     1       3.050  -4.503   3.504  0.00  0.00    +0.277 C 
ENDBRANCH  12  19
ENDBRANCH   7  10
BRANCH   2  21
ATOM     21  C   UNL     1       2.135  -2.633  -2.830  0.00  0.00    -0.003 A 
ATOM     22  C   UNL     1       3.110  -1.669  -2.560  0.00  0.00    +0.010 A 
ATOM     23  C   UNL     1       3.923  -1.212  -3.576  0.00  0.00    +0.001 A 
ATOM     24  C   UNL     1       3.774  -1.704  -4.861  0.00  0.00    +0.000 A 
ATOM     25  C   UNL     1       2.810  -2.659  -5.136  0.00  0.00    +0.001 A 
ATOM     26  C   UNL     1       1.995  -3.130  -4.128  0.00  0.00    +0.010 A 
ENDBRANCH   2  21
BRANCH   1  29
ATOM     27  C   UNL     1       0.167   1.271  -2.127  0.00  0.00    +0.128 C 
ATOM     28  N   UNL     1       0.078  -0.188  -2.028  0.00  0.00    -0.315 N 
ATOM     29  C   UNL     1       0.798  -0.845  -1.097  0.00  0.00    +0.244 C 
ATOM     30  O   UNL     1       1.592  -0.239  -0.401  0.00  0.00    -0.270 OA
ATOM     31  H   UNL     1      -0.498  -0.681  -2.633  0.00  0.00    +0.149 HD
ENDBRANCH   1  29
TORSDOF 5
