REMARK  Name = ZINC39671436
REMARK  5 active torsions:
REMARK  status: ('A' for Active; 'I' for Inactive)
REMARK    1  A    between atoms: C_6  and  C_11
REMARK    2  A    between atoms: C_11  and  N_12
REMARK    3  A    between atoms: C_13  and  C_15
REMARK    4  A    between atoms: C_26  and  C_28
REMARK    5  A    between atoms: C_32  and  C_34
REMARK                            x       y       z     vdW  Elec       q    Type
REMARK                         _______ _______ _______ _____ _____    ______ ____
ROOT
ATOM      1  C   UNL     1      -8.312  -0.394   2.690  0.00  0.00    +0.100 C 
ATOM      2  C   UNL     1      -7.858  -1.591   3.554  0.00  0.00    +0.121 C 
ATOM      3  N   UNL     1      -9.033  -1.911   4.398  0.00  0.00    -0.296 N 
ATOM      4  C   UNL     1     -10.195  -1.737   3.494  0.00  0.00    +0.115 C 
ATOM      5  C   UNL     1      -9.846  -0.493   2.653  0.00  0.00    -0.004 C 
ATOM      6  C   UNL     1     -10.471   0.754   3.270  0.00  0.00    -0.010 C 
ATOM      7  C   UNL     1     -11.996   0.657   3.170  0.00  0.00    -0.082 C 
ATOM      8  N   UNL     1     -12.389   0.535   1.761  0.00  0.00    +0.379 N 
ATOM      9  C   UNL     1     -11.860  -0.714   1.200  0.00  0.00    -0.082 C 
ATOM     10  C   UNL     1     -10.330  -0.676   1.217  0.00  0.00    -0.010 C 
ATOM     11  C   UNL     1      -9.043  -2.278   5.695  0.00  0.00    +0.247 C 
ATOM     12  O   UNL     1      -8.014  -2.253   6.342  0.00  0.00    -0.270 OA
ATOM     13  H   UNL     1     -13.396   0.533   1.693  0.00  0.00    -0.086 HD
ATOM     14  H   UNL     1     -12.022   1.318   1.242  0.00  0.00    -0.086 HD
ENDROOT
BRANCH  11  15
ATOM     15  C   UNL     1     -10.305  -2.709   6.331  0.00  0.00    +0.038 A 
ATOM     16  C   UNL     1     -11.369  -3.155   5.544  0.00  0.00    +0.016 A 
ATOM     17  C   UNL     1     -12.544  -3.556   6.143  0.00  0.00    +0.039 A 
ATOM     18  C   UNL     1     -12.670  -3.518   7.523  0.00  0.00    +0.135 A 
ATOM     19  C   UNL     1     -11.617  -3.076   8.309  0.00  0.00    +0.091 A 
ATOM     20  C   UNL     1     -10.435  -2.678   7.721  0.00  0.00    +0.028 A 
ATOM     21  F   UNL     1     -13.824  -3.912   8.104  0.00  0.00    -0.205 F 
BRANCH  19  22
ATOM     22  C   UNL     1     -11.761  -3.038   9.808  0.00  0.00    +0.420 C 
ATOM     23  F   UNL     1     -10.576  -2.561  10.379  0.00  0.00    -0.166 F 
ATOM     24  F   UNL     1     -12.819  -2.189  10.153  0.00  0.00    -0.166 F 
ATOM     25  F   UNL     1     -12.023  -4.327  10.285  0.00  0.00    -0.166 F 
ENDBRANCH  19  22
ENDBRANCH  11  15
BRANCH   1  27
ATOM     26  N   UNL     1      -7.478   0.608   0.587  0.00  0.00    -0.309 N 
ATOM     27  C   UNL     1      -7.745  -0.506   1.298  0.00  0.00    +0.219 C 
ATOM     28  O   UNL     1      -7.529  -1.598   0.817  0.00  0.00    -0.275 OA
ATOM     29  H   UNL     1      -7.651   1.482   0.972  0.00  0.00    +0.149 HD
BRANCH  26  30
ATOM     30  C   UNL     1      -6.927   0.499  -0.766  0.00  0.00    +0.157 C 
BRANCH  30  36
ATOM     31  C   UNL     1      -6.609   6.014  -3.319  0.00  0.00    +0.001 A 
ATOM     32  C   UNL     1      -5.377   6.048  -2.680  0.00  0.00    +0.002 A 
ATOM     33  C   UNL     1      -4.948   4.979  -1.924  0.00  0.00    +0.026 A 
ATOM     34  C   UNL     1      -5.755   3.854  -1.798  0.00  0.00    +0.047 A 
ATOM     35  N   UNL     1      -5.615   2.656  -1.133  0.00  0.00    -0.357 N 
ATOM     36  C   UNL     1      -6.722   1.878  -1.337  0.00  0.00    +0.034 A 
ATOM     37  H   UNL     1      -4.846   2.402  -0.599  0.00  0.00    +0.166 HD
ATOM     38  C   UNL     1      -7.598   2.525  -2.122  0.00  0.00    +0.032 A 
ATOM     39  C   UNL     1      -7.003   3.824  -2.447  0.00  0.00    -0.000 A 
ATOM     40  C   UNL     1      -7.421   4.920  -3.203  0.00  0.00    +0.010 A 
ENDBRANCH  30  36
ENDBRANCH  26  30
ENDBRANCH   1  27
TORSDOF 5
