REMARK  Name = ZINC00896864
REMARK  9 active torsions:
REMARK  status: ('A' for Active; 'I' for Inactive)
REMARK    1  A    between atoms: C_1  and  O_2
REMARK    2  A    between atoms: O_2  and  C_3
REMARK    3  A    between atoms: C_5  and  C_12
REMARK    4  A    between atoms: C_7  and  O_10
REMARK    5  A    between atoms: C_8  and  O_9
REMARK    6  A    between atoms: O_10  and  C_11
REMARK    7  A    between atoms: C_12  and  N_57
REMARK    8  A    between atoms: N_15  and  S_18
REMARK    9  A    between atoms: S_18  and  C_21
REMARK                            x       y       z     vdW  Elec       q    Type
REMARK                         _______ _______ _______ _____ _____    ______ ____
ROOT
ATOM      1  C   UNL     1       0.930  -0.484   1.123  0.00  0.00    -0.061 C 
ATOM      2  C   UNL     1       0.002  -0.004   0.002  0.00  0.00    +0.091 C 
ATOM      3  N   UNL     1      -0.018   1.467   0.010  0.00  0.00    -0.180 NA
ATOM      4  C   UNL     1       1.268   2.180   0.002  0.00  0.00    +0.091 C 
ATOM      5  C   UNL     1       2.147   1.614   1.123  0.00  0.00    -0.061 C 
ATOM      6  N   UNL     1       2.255   0.149   0.947  0.00  0.00    +0.384 N 
ATOM      7  H   UNL     1       2.594  -0.048  -0.002  0.00  0.00    -0.081 HD
ENDROOT
BRANCH   3   8
ATOM      8  S   UNL     1      -1.450   2.297   0.021  0.00  0.00    +0.061 S 
ATOM      9  O   UNL     1      -1.180   3.581  -0.524  0.00  0.00    -0.153 OA
ATOM     10  O   UNL     1      -2.429   1.426  -0.529  0.00  0.00    -0.153 OA
BRANCH   8  11
ATOM     11  C   UNL     1      -1.893   2.549   1.708  0.00  0.00    +0.106 A 
ATOM     12  C   UNL     1      -2.679   1.601   2.361  0.00  0.00    +0.029 A 
ATOM     13  C   UNL     1      -3.034   1.762   3.665  0.00  0.00    +0.010 A 
ATOM     14  C   UNL     1      -2.613   2.907   4.363  0.00  0.00    -0.018 A 
ATOM     15  C   UNL     1      -2.966   3.112   5.708  0.00  0.00    +0.008 A 
ATOM     16  C   UNL     1      -2.540   4.233   6.353  0.00  0.00    +0.001 A 
ATOM     17  C   UNL     1      -1.759   5.184   5.698  0.00  0.00    +0.001 A 
ATOM     18  C   UNL     1      -1.399   5.019   4.396  0.00  0.00    +0.008 A 
ATOM     19  C   UNL     1      -1.819   3.874   3.698  0.00  0.00    -0.016 A 
ATOM     20  C   UNL     1      -1.467   3.670   2.353  0.00  0.00    +0.037 A 
ENDBRANCH   8  11
ENDBRANCH   3   8
BRANCH   6  21
ATOM     21  C   UNL     1       3.214  -0.407   1.924  0.00  0.00    -0.043 C 
BRANCH  21  24
ATOM     22  C   UNL     1       5.739   2.272   2.779  0.00  0.00    +0.165 A 
ATOM     23  C   UNL     1       4.587   1.500   2.783  0.00  0.00    +0.051 A 
ATOM     24  C   UNL     1       4.467   0.430   1.916  0.00  0.00    -0.057 A 
ATOM     25  C   UNL     1       5.496   0.122   1.047  0.00  0.00    +0.051 A 
ATOM     26  C   UNL     1       6.649   0.892   1.032  0.00  0.00    +0.165 A 
ATOM     27  C   UNL     1       6.774   1.969   1.902  0.00  0.00    +0.201 A 
BRANCH  22  29
ATOM     28  C   UNL     1       4.753   3.577   4.506  0.00  0.00    +0.277 C 
ATOM     29  O   UNL     1       5.856   3.325   3.633  0.00  0.00    -0.491 OA
ENDBRANCH  22  29
BRANCH  27  30
ATOM     30  O   UNL     1       7.905   2.724   1.895  0.00  0.00    -0.501 OA
ATOM     31  H   UNL     1       8.591   2.411   2.501  0.00  0.00    +0.292 HD
ENDBRANCH  27  30
BRANCH  26  32
ATOM     32  O   UNL     1       7.659   0.592   0.172  0.00  0.00    -0.491 OA
ATOM     33  C   UNL     1       7.462  -0.528  -0.693  0.00  0.00    +0.277 C 
ENDBRANCH  26  32
ENDBRANCH  21  24
ENDBRANCH   6  21
TORSDOF 7
