REMARK  Name = ZINC23078616
REMARK  5 active torsions:
REMARK  status: ('A' for Active; 'I' for Inactive)
REMARK    1  A    between atoms: C_1  and  C_2
REMARK    2  A    between atoms: C_2  and  C_3
REMARK    3  A    between atoms: C_3  and  N_4
REMARK    4  A    between atoms: C_14  and  C_16
REMARK    5  A    between atoms: C_16  and  N_17
REMARK                            x       y       z     vdW  Elec       q    Type
REMARK                         _______ _______ _______ _____ _____    ______ ____
ROOT
ATOM      1  N   UNL     1       0.738  -1.962  -1.265  0.00  0.00    -0.312 N 
ATOM      2  C   UNL     1       1.717  -2.773  -0.716  0.00  0.00    +0.070 A 
ATOM      3  C   UNL     1       2.901  -2.527  -0.037  0.00  0.00    +0.028 A 
ATOM      4  C   UNL     1       3.678  -3.582   0.393  0.00  0.00    +0.002 A 
ATOM      5  C   UNL     1       3.284  -4.890   0.150  0.00  0.00    +0.002 A 
ATOM      6  C   UNL     1       2.112  -5.153  -0.523  0.00  0.00    +0.030 A 
ATOM      7  C   UNL     1       1.313  -4.095  -0.965  0.00  0.00    +0.091 A 
ATOM      8  N   UNL     1       0.134  -4.033  -1.637  0.00  0.00    -0.214 NA
ATOM      9  C   UNL     1      -0.208  -2.782  -1.809  0.00  0.00    +0.203 A 
ATOM     10  N   UNL     1      -1.357  -2.353  -2.452  0.00  0.00    -0.255 N 
ATOM     11  C   UNL     1      -2.225  -3.253  -2.953  0.00  0.00    +0.237 C 
ATOM     12  O   UNL     1      -2.000  -4.440  -2.842  0.00  0.00    -0.274 OA
ATOM     13  H   UNL     1      -1.537  -1.404  -2.541  0.00  0.00    +0.158 HD
ENDROOT
BRANCH   1  14
ATOM     14  C   UNL     1       0.718  -0.497  -1.257  0.00  0.00    +0.125 C 
BRANCH  14  16
ATOM     15  C   UNL     1      -0.019   1.526   0.010  0.00  0.00    +0.005 C 
ATOM     16  C   UNL     1       0.002  -0.004   0.002  0.00  0.00    +0.018 C 
ENDBRANCH  14  16
ENDBRANCH   1  14
BRANCH  11  17
ATOM     17  C   UNL     1      -3.476  -2.787  -3.653  0.00  0.00    +0.214 C 
BRANCH  17  18
ATOM     18  N   UNL     1      -4.246  -3.948  -4.103  0.00  0.00    -0.215 N 
ATOM     19  C   UNL     1      -4.093  -4.540  -5.305  0.00  0.00    +0.247 C 
ATOM     20  O   UNL     1      -3.322  -4.224  -6.186  0.00  0.00    -0.273 OA
ATOM     21  C   UNL     1      -5.086  -5.680  -5.324  0.00  0.00    +0.113 C 
ATOM     22  C   UNL     1      -4.362  -7.013  -5.474  0.00  0.00    +0.035 C 
ATOM     23  C   UNL     1      -5.381  -8.155  -5.460  0.00  0.00    +0.003 C 
ATOM     24  C   UNL     1      -6.376  -7.963  -6.607  0.00  0.00    +0.000 C 
ATOM     25  C   UNL     1      -7.111  -6.633  -6.429  0.00  0.00    +0.003 C 
ATOM     26  C   UNL     1      -6.098  -5.485  -6.447  0.00  0.00    +0.035 C 
ATOM     27  N   UNL     1      -5.747  -5.598  -4.015  0.00  0.00    -0.285 N 
ATOM     28  C   UNL     1      -5.186  -4.558  -3.369  0.00  0.00    +0.310 C 
ATOM     29  O   UNL     1      -5.500  -4.210  -2.248  0.00  0.00    -0.252 OA
ATOM     30  H   UNL     1      -6.447  -6.181  -3.680  0.00  0.00    +0.151 HD
ENDBRANCH  17  18
ENDBRANCH  11  17
TORSDOF 4
