REMARK  Name = ZINC59104680
REMARK  11 active torsions:
REMARK  status: ('A' for Active; 'I' for Inactive)
REMARK    1  A    between atoms: C_1  and  C_2
REMARK    2  A    between atoms: C_2  and  C_3
REMARK    3  A    between atoms: C_7  and  C_35
REMARK    4  A    between atoms: C_8  and  N_9
REMARK    5  A    between atoms: C_10  and  C_34
REMARK    6  A    between atoms: C_12  and  C_15
REMARK    7  A    between atoms: C_13  and  C_14
REMARK    8  A    between atoms: N_22  and  C_25
REMARK    9  A    between atoms: C_29  and  O_31
REMARK   10  A    between atoms: O_31  and  C_32
REMARK   11  A    between atoms: C_32  and  C_33
REMARK                            x       y       z     vdW  Elec       q    Type
REMARK                         _______ _______ _______ _____ _____    ______ ____
ROOT
ATOM      1  C   UNL     1       4.126  -0.451   3.018  0.00  0.00    +0.028 C 
ATOM      2  C   UNL     1       4.184   0.520   4.009  0.00  0.00    +0.102 C 
ATOM      3  C   UNL     1       3.518   1.820   3.851  0.00  0.00    +0.274 C 
ATOM      4  O   UNL     1       2.825   2.109   2.728  0.00  0.00    -0.268 OA
ATOM      5  N   UNL     1       3.612   2.701   4.832  0.00  0.00    -0.153 NA
ATOM      6  C   UNL     1       4.287   2.444   5.949  0.00  0.00    +0.171 C 
ATOM      7  S   UNL     1       4.345   3.656   7.157  0.00  0.00    -0.016 S 
ATOM      8  N   UNL     1       4.925   1.287   6.181  0.00  0.00    -0.216 N 
ATOM      9  C   UNL     1       4.912   0.290   5.271  0.00  0.00    +0.262 C 
ATOM     10  O   UNL     1       5.487  -0.762   5.483  0.00  0.00    -0.269 OA
ENDROOT
BRANCH   1  14
ATOM     11  N   UNL     1       2.441  -0.227  -0.140  0.00  0.00    -0.317 N 
ATOM     12  C   UNL     1       3.152   0.941  -0.184  0.00  0.00    +0.022 A 
ATOM     13  C   UNL     1       3.877   1.061   0.939  0.00  0.00    +0.031 A 
ATOM     14  C   UNL     1       3.592  -0.133   1.748  0.00  0.00    -0.003 A 
ATOM     15  C   UNL     1       2.685  -0.882   1.010  0.00  0.00    +0.028 A 
ATOM     16  C   UNL     1       2.082  -2.200   1.423  0.00  0.00    +0.064 C 
ATOM     17  C   UNL     1       3.126   1.936  -1.316  0.00  0.00    +0.064 C 
BRANCH  11  23
ATOM     18  C   UNL     1       2.080  -1.364  -2.242  0.00  0.00    -0.024 A 
ATOM     19  C   UNL     1       1.224  -1.809  -3.230  0.00  0.00    +0.005 A 
ATOM     20  C   UNL     1      -0.133  -1.563  -3.133  0.00  0.00    +0.001 A 
ATOM     21  C   UNL     1      -0.638  -0.872  -2.047  0.00  0.00    +0.005 A 
ATOM     22  C   UNL     1       0.213  -0.424  -1.056  0.00  0.00    -0.026 A 
ATOM     23  C   UNL     1       1.576  -0.675  -1.147  0.00  0.00    +0.053 A 
ATOM     24  C   UNL     1      -0.338   0.330   0.127  0.00  0.00    +0.046 C 
BRANCH  18  26
ATOM     25  C   UNL     1       3.900  -2.919  -1.595  0.00  0.00    +0.009 C 
ATOM     26  C   UNL     1       3.559  -1.631  -2.348  0.00  0.00    +0.034 C 
ENDBRANCH  18  26
ENDBRANCH  11  23
ENDBRANCH   1  14
BRANCH   8  27
ATOM     27  C   UNL     1       5.610   1.109   7.390  0.00  0.00    +0.047 A 
ATOM     28  C   UNL     1       6.999   1.085   7.404  0.00  0.00    +0.024 A 
ATOM     29  C   UNL     1       7.675   0.909   8.596  0.00  0.00    +0.005 A 
ATOM     30  C   UNL     1       6.972   0.755   9.776  0.00  0.00    +0.046 A 
ATOM     31  C   UNL     1       5.585   0.778   9.767  0.00  0.00    +0.122 A 
ATOM     32  C   UNL     1       4.903   0.961   8.574  0.00  0.00    +0.069 A 
BRANCH  31  33
ATOM     33  O   UNL     1       4.895   0.627  10.928  0.00  0.00    -0.492 OA
BRANCH  33  34
ATOM     34  C   UNL     1       5.663   0.449  12.120  0.00  0.00    +0.225 C 
ATOM     35  C   UNL     1       4.720   0.297  13.316  0.00  0.00    +0.048 C 
ENDBRANCH  33  34
ENDBRANCH  31  33
ENDBRANCH   8  27
TORSDOF 6
