REMARK  Name = ZINC38632331
REMARK  6 active torsions:
REMARK  status: ('A' for Active; 'I' for Inactive)
REMARK    1  A    between atoms: N_9  and  C_11
REMARK    2  A    between atoms: C_11  and  C_13
REMARK    3  A    between atoms: C_11  and  C_29
REMARK    4  A    between atoms: C_13  and  N_14
REMARK    5  A    between atoms: C_15  and  C_17
REMARK    6  A    between atoms: C_17  and  N_18
REMARK                            x       y       z     vdW  Elec       q    Type
REMARK                         _______ _______ _______ _____ _____    ______ ____
ROOT
ATOM      1  C   UNL     1       5.862  -2.113   1.183  0.00  0.00    +0.131 C 
ENDROOT
BRANCH   1   2
ATOM      2  N   UNL     1       5.320  -2.087   2.544  0.00  0.00    -0.312 N 
ATOM      3  C   UNL     1       6.032  -1.526   3.542  0.00  0.00    +0.231 C 
ATOM      4  O   UNL     1       7.120  -1.043   3.313  0.00  0.00    -0.274 OA
ATOM      5  H   UNL     1       4.449  -2.474   2.727  0.00  0.00    +0.149 HD
BRANCH   3   6
ATOM      6  C   UNL     1       5.475  -1.499   4.942  0.00  0.00    +0.212 C 
BRANCH   6   7
ATOM      7  N   UNL     1       6.431  -0.841   5.835  0.00  0.00    -0.225 N 
ATOM      8  C   UNL     1       7.410  -1.477   6.504  0.00  0.00    +0.254 C 
ATOM      9  O   UNL     1       7.637  -2.669   6.464  0.00  0.00    -0.270 OA
ATOM     10  C   UNL     1       8.163  -0.481   7.296  0.00  0.00    +0.049 A 
ATOM     11  C   UNL     1       9.247  -0.548   8.156  0.00  0.00    +0.014 A 
ATOM     12  C   UNL     1       9.722   0.608   8.755  0.00  0.00    +0.001 A 
ATOM     13  C   UNL     1       9.122   1.827   8.499  0.00  0.00    +0.001 A 
ATOM     14  C   UNL     1       8.037   1.909   7.641  0.00  0.00    +0.014 A 
ATOM     15  C   UNL     1       7.551   0.761   7.036  0.00  0.00    +0.049 A 
ATOM     16  C   UNL     1       6.449   0.480   6.091  0.00  0.00    +0.254 C 
ATOM     17  O   UNL     1       5.688   1.303   5.624  0.00  0.00    -0.270 OA
ENDBRANCH   6   7
ENDBRANCH   3   6
ENDBRANCH   1   2
BRANCH   1  18
ATOM     18  C   UNL     1       4.863  -2.801   0.250  0.00  0.00    +0.140 C 
BRANCH  18  27
ATOM     19  C   UNL     1      -0.112   1.267   0.134  0.00  0.00    +0.000 A 
ATOM     20  C   UNL     1       1.054   1.994   0.291  0.00  0.00    +0.000 A 
ATOM     21  C   UNL     1       2.273   1.347   0.283  0.00  0.00    +0.005 A 
ATOM     22  C   UNL     1       2.336  -0.030   0.120  0.00  0.00    -0.030 A 
ATOM     23  C   UNL     1       1.173  -0.754  -0.033  0.00  0.00    -0.042 A 
ATOM     24  C   UNL     1      -0.051  -0.102  -0.028  0.00  0.00    +0.004 A 
ATOM     25  C   UNL     1       1.190  -2.251  -0.202  0.00  0.00    +0.051 C 
ATOM     26  C   UNL     1       2.593  -2.716  -0.594  0.00  0.00    +0.090 C 
ATOM     27  N   UNL     1       3.559  -2.131   0.349  0.00  0.00    -0.287 NA
ATOM     28  C   UNL     1       3.689  -0.690   0.113  0.00  0.00    +0.120 C 
ENDBRANCH  18  27
BRANCH  18  29
ATOM     29  C   UNL     1       5.363  -2.719  -1.169  0.00  0.00    +0.123 A 
ATOM     30  C   UNL     1       5.862  -3.741  -1.887  0.00  0.00    +0.046 A 
ATOM     31  C   UNL     1       6.206  -3.220  -3.156  0.00  0.00    +0.041 A 
ATOM     32  C   UNL     1       5.896  -1.911  -3.138  0.00  0.00    +0.195 A 
ATOM     33  O   UNL     1       5.381  -1.615  -1.933  0.00  0.00    -0.466 OA
ENDBRANCH  18  29
ENDBRANCH   1  18
TORSDOF 6
