REMARK  Name = ZINC06499293
REMARK  9 active torsions:
REMARK  status: ('A' for Active; 'I' for Inactive)
REMARK    1  A    between atoms: C_1  and  C_2
REMARK    2  A    between atoms: C_2  and  C_3
REMARK    3  A    between atoms: C_3  and  C_4
REMARK    4  A    between atoms: C_7  and  C_18
REMARK    5  A    between atoms: C_13  and  N_17
REMARK    6  A    between atoms: C_14  and  C_15
REMARK    7  A    between atoms: C_18  and  C_19
REMARK    8  A    between atoms: C_18  and  C_20
REMARK    9  A    between atoms: C_18  and  C_21
REMARK                            x       y       z     vdW  Elec       q    Type
REMARK                         _______ _______ _______ _____ _____    ______ ____
ROOT
ATOM      1  C   UNL     1       1.081  -0.582   1.591  0.00  0.00    +0.071 C 
ATOM      2  C   UNL     1       1.577  -1.849   2.240  0.00  0.00    +0.045 A 
ATOM      3  C   UNL     1       2.776  -2.443   2.152  0.00  0.00    +0.049 A 
ATOM      4  N   UNL     1       2.739  -3.558   2.918  0.00  0.00    -0.277 N 
ATOM      5  H   UNL     1       3.467  -4.186   3.045  0.00  0.00    +0.189 HD
ATOM      6  N   UNL     1       1.463  -3.647   3.496  0.00  0.00    -0.135 NA
ATOM      7  C   UNL     1       0.763  -2.627   3.092  0.00  0.00    +0.244 A 
ATOM      8  O   UNL     1      -0.521  -2.281   3.377  0.00  0.00    -0.422 OA
ATOM      9  C   UNL     1      -1.089  -1.325   2.616  0.00  0.00    +0.200 C 
ATOM     10  C   UNL     1      -0.414  -0.513   1.775  0.00  0.00    +0.094 C 
ENDROOT
BRANCH   3  11
ATOM     11  C   UNL     1       3.953  -1.956   1.346  0.00  0.00    +0.004 C 
ATOM     12  C   UNL     1       4.835  -3.146   0.961  0.00  0.00    +0.017 C 
ATOM     13  C   UNL     1       3.451  -1.263   0.078  0.00  0.00    +0.017 C 
ATOM     14  C   UNL     1       4.768  -0.966   2.180  0.00  0.00    +0.017 C 
ENDBRANCH   3  11
BRANCH   9  15
ATOM     15  N   UNL     1      -2.450  -1.165   2.703  0.00  0.00    -0.328 N 
ATOM     16  H   UNL     1      -2.968  -1.730   3.297  0.00  0.00    +0.145 HD
ATOM     17  H   UNL     1      -2.893  -0.486   2.170  0.00  0.00    +0.145 HD
ENDBRANCH   9  15
BRANCH  10  18
ATOM     18  C   UNL     1      -1.150   0.458   1.023  0.00  0.00    +0.100 C 
ATOM     19  N   UNL     1      -1.734   1.228   0.426  0.00  0.00    -0.191 NA
ENDBRANCH  10  18
BRANCH   1  20
ATOM     20  C   UNL     1       1.740   0.629   2.254  0.00  0.00    +0.014 C 
BRANCH  20  22
ATOM     21  C   UNL     1       1.928   3.121   2.222  0.00  0.00    +0.004 C 
ATOM     22  C   UNL     1       1.269   1.909   1.559  0.00  0.00    -0.002 C 
ENDBRANCH  20  22
ENDBRANCH   1  20
TORSDOF 5
