REMARK  Name = ZINC41607392
REMARK  10 active torsions:
REMARK  status: ('A' for Active; 'I' for Inactive)
REMARK    1  A    between atoms: C_1  and  C_2
REMARK    2  A    between atoms: C_2  and  C_3
REMARK    3  A    between atoms: N_5  and  C_6
REMARK    4  A    between atoms: C_9  and  N_13
REMARK    5  A    between atoms: C_11  and  C_12
REMARK    6  A    between atoms: C_14  and  C_16
REMARK    7  A    between atoms: N_18  and  C_19
REMARK    8  A    between atoms: C_19  and  C_20
REMARK    9  A    between atoms: N_26  and  C_27
REMARK   10  A    between atoms: N_26  and  C_28
REMARK                            x       y       z     vdW  Elec       q    Type
REMARK                         _______ _______ _______ _____ _____    ______ ____
ROOT
ATOM      1  N   UNL     1       3.932  -3.657   5.703  0.00  0.00    -0.278 N 
ATOM      2  C   UNL     1       4.353  -2.797   6.651  0.00  0.00    +0.303 C 
ATOM      3  O   UNL     1       4.151  -1.607   6.525  0.00  0.00    -0.265 OA
ATOM      4  H   UNL     1       4.154  -4.599   5.769  0.00  0.00    +0.155 HD
ENDROOT
BRANCH   1   8
ATOM      5  C   UNL     1       1.676  -2.269   2.485  0.00  0.00    +0.036 A 
ATOM      6  C   UNL     1       2.680  -1.474   3.024  0.00  0.00    +0.025 A 
ATOM      7  C   UNL     1       3.427  -1.933   4.089  0.00  0.00    +0.025 A 
ATOM      8  C   UNL     1       3.175  -3.191   4.623  0.00  0.00    +0.034 A 
ATOM      9  C   UNL     1       2.171  -3.986   4.084  0.00  0.00    +0.028 A 
ATOM     10  C   UNL     1       1.421  -3.524   3.022  0.00  0.00    -0.027 A 
ATOM     11  C   UNL     1       0.328  -4.383   2.441  0.00  0.00    +0.046 C 
BRANCH   5  14
ATOM     12  C   UNL     1       0.783  -0.477   1.197  0.00  0.00    +0.217 C 
ATOM     13  O   UNL     1       1.231   0.311   2.002  0.00  0.00    -0.275 OA
ATOM     14  N   UNL     1       0.919  -1.802   1.403  0.00  0.00    -0.285 N 
ATOM     15  H   UNL     1       0.491  -2.433   0.803  0.00  0.00    +0.155 HD
BRANCH  12  17
ATOM     16  C   UNL     1       0.060   1.555  -0.026  0.00  0.00    +0.013 C 
ATOM     17  C   UNL     1       0.075   0.025  -0.035  0.00  0.00    +0.093 C 
ENDBRANCH  12  17
ENDBRANCH   5  14
ENDBRANCH   1   8
BRANCH   2  18
ATOM     18  C   UNL     1       5.070  -3.309   7.857  0.00  0.00    +0.300 C 
ATOM     19  O   UNL     1       5.273  -4.499   7.983  0.00  0.00    -0.265 OA
ATOM     20  N   UNL     1       5.492  -2.449   8.806  0.00  0.00    -0.303 N 
ATOM     21  H   UNL     1       5.330  -1.498   8.705  0.00  0.00    +0.149 HD
BRANCH  20  22
ATOM     22  C   UNL     1       6.195  -2.951   9.989  0.00  0.00    +0.140 C 
BRANCH  22  23
ATOM     23  C   UNL     1       6.555  -1.796  10.887  0.00  0.00    -0.026 A 
ATOM     24  C   UNL     1       7.765  -1.130  10.736  0.00  0.00    +0.023 A 
ATOM     25  C   UNL     1       8.065  -0.075  11.575  0.00  0.00    +0.084 A 
ATOM     26  N   UNL     1       7.219   0.306  12.513  0.00  0.00    -0.350 N 
ATOM     27  C   UNL     1       6.056  -0.303  12.688  0.00  0.00    +0.098 A 
ATOM     28  C   UNL     1       5.686  -1.370  11.875  0.00  0.00    +0.047 A 
ATOM     29  N   UNL     1       5.195   0.131  13.689  0.00  0.00    -0.323 N 
ATOM     30  C   UNL     1       5.524   1.326  14.470  0.00  0.00    +0.130 C 
ATOM     31  C   UNL     1       3.959  -0.606  13.963  0.00  0.00    +0.130 C 
ATOM     32  H   UNL     1       7.455   1.050  13.088  0.00  0.00    +0.166 HD
ENDBRANCH  22  23
ENDBRANCH  20  22
ENDBRANCH   2  18
TORSDOF 6
