REMARK  Name = ZINC02651365
REMARK  9 active torsions:
REMARK  status: ('A' for Active; 'I' for Inactive)
REMARK    1  A    between atoms: C_1  and  O_2
REMARK    2  A    between atoms: O_2  and  C_3
REMARK    3  A    between atoms: C_8  and  C_9
REMARK    4  A    between atoms: C_12  and  S_23
REMARK    5  A    between atoms: N_13  and  C_14
REMARK    6  A    between atoms: C_17  and  O_21
REMARK    7  A    between atoms: O_21  and  C_22
REMARK    8  A    between atoms: S_23  and  C_24
REMARK    9  A    between atoms: C_24  and  N_25
REMARK                            x       y       z     vdW  Elec       q    Type
REMARK                         _______ _______ _______ _____ _____    ______ ____
ROOT
ATOM      1  C   UNL     1       0.044  -2.900  -0.305  0.00  0.00    +0.173 A 
ATOM      2  N   UNL     1       1.280  -2.461  -0.352  0.00  0.00    -0.128 NA
ATOM      3  N   UNL     1       2.097  -3.415  -0.081  0.00  0.00    -0.122 NA
ATOM      4  C   UNL     1       1.434  -4.524   0.157  0.00  0.00    +0.198 A 
ATOM      5  N   UNL     1       0.102  -4.235   0.028  0.00  0.00    -0.270 N 
ENDROOT
BRANCH   1  11
ATOM      6  C   UNL     1      -1.339  -0.853   0.042  0.00  0.00    +0.131 A 
ATOM      7  C   UNL     1      -2.486  -0.116  -0.203  0.00  0.00    +0.048 A 
ATOM      8  C   UNL     1      -3.472  -0.623  -1.029  0.00  0.00    +0.023 A 
ATOM      9  C   UNL     1      -3.321  -1.869  -1.616  0.00  0.00    +0.042 A 
ATOM     10  C   UNL     1      -2.184  -2.614  -1.382  0.00  0.00    +0.035 A 
ATOM     11  C   UNL     1      -1.179  -2.110  -0.554  0.00  0.00    +0.063 A 
ATOM     12 CL   UNL     1      -4.567  -2.494  -2.651  0.00  0.00    -0.084 Cl
BRANCH   6  14
ATOM     13  C   UNL     1      -0.602   0.933   1.426  0.00  0.00    +0.277 C 
ATOM     14  O   UNL     1      -0.370  -0.355   0.853  0.00  0.00    -0.494 OA
ENDBRANCH   6  14
ENDBRANCH   1  11
BRANCH   5  15
ATOM     15  C   UNL     1      -0.977  -5.116   0.197  0.00  0.00    +0.052 A 
ATOM     16  C   UNL     1      -1.861  -4.936   1.253  0.00  0.00    +0.030 A 
ATOM     17  C   UNL     1      -2.923  -5.803   1.420  0.00  0.00    +0.049 A 
ATOM     18  C   UNL     1      -3.108  -6.853   0.532  0.00  0.00    +0.138 A 
ATOM     19  C   UNL     1      -2.225  -7.033  -0.524  0.00  0.00    +0.084 A 
ATOM     20  C   UNL     1      -1.165  -6.163  -0.694  0.00  0.00    +0.050 A 
ATOM     21 CL   UNL     1      -2.457  -8.347  -1.635  0.00  0.00    -0.080 Cl
BRANCH  18  22
ATOM     22  O   UNL     1      -4.154  -7.706   0.697  0.00  0.00    -0.494 OA
ATOM     23  C   UNL     1      -5.022  -7.462   1.806  0.00  0.00    +0.277 C 
ENDBRANCH  18  22
ENDBRANCH   5  15
BRANCH   4  24
ATOM     24  S   UNL     1       2.128  -6.090   0.571  0.00  0.00    -0.062 S 
BRANCH  24  25
ATOM     25  C   UNL     1       3.906  -5.756   0.716  0.00  0.00    +0.226 C 
BRANCH  25  26
ATOM     26  N   UNL     1       4.487  -5.614  -0.622  0.00  0.00    -0.200 N 
ATOM     27  C   UNL     1       4.867  -6.714  -1.314  0.00  0.00    +0.279 A 
ATOM     28  O   UNL     1       4.736  -7.832  -0.848  0.00  0.00    -0.265 OA
ATOM     29  C   UNL     1       5.443  -6.506  -2.651  0.00  0.00    +0.068 A 
ATOM     30  C   UNL     1       5.864  -7.574  -3.441  0.00  0.00    +0.015 A 
ATOM     31  C   UNL     1       6.397  -7.329  -4.688  0.00  0.00    +0.001 A 
ATOM     32  C   UNL     1       6.518  -6.028  -5.160  0.00  0.00    +0.002 A 
ATOM     33  C   UNL     1       6.109  -4.960  -4.395  0.00  0.00    +0.030 A 
ATOM     34  C   UNL     1       5.564  -5.183  -3.128  0.00  0.00    +0.100 A 
ATOM     35  N   UNL     1       5.150  -4.154  -2.347  0.00  0.00    -0.131 NA
ATOM     36  N   UNL     1       4.643  -4.345  -1.184  0.00  0.00    -0.061 NA
ENDBRANCH  25  26
ENDBRANCH  24  25
ENDBRANCH   4  24
TORSDOF 7
