REMARK  Name = ZINC58054815
REMARK  8 active torsions:
REMARK  status: ('A' for Active; 'I' for Inactive)
REMARK    1  A    between atoms: C_1  and  C_2
REMARK    2  A    between atoms: C_2  and  C_4
REMARK    3  A    between atoms: C_2  and  N_23
REMARK    4  A    between atoms: N_6  and  N_7
REMARK    5  A    between atoms: C_10  and  C_14
REMARK    6  A    between atoms: C_10  and  C_15
REMARK    7  A    between atoms: C_15  and  C_16
REMARK    8  A    between atoms: C_16  and  C_17
REMARK                            x       y       z     vdW  Elec       q    Type
REMARK                         _______ _______ _______ _____ _____    ______ ____
ROOT
ATOM      1  N   UNL     1       0.887  -0.616  -3.608  0.00  0.00    -0.137 N 
ATOM      2  C   UNL     1       1.659   0.161  -4.393  0.00  0.00    +0.263 C 
ATOM      3  O   UNL     1       1.909   1.337  -4.241  0.00  0.00    -0.271 OA
ATOM      4  C   UNL     1       2.153  -0.744  -5.506  0.00  0.00    +0.112 C 
ATOM      5  N   UNL     1       1.544  -2.047  -5.189  0.00  0.00    -0.284 N 
ATOM      6  C   UNL     1       0.828  -1.873  -4.063  0.00  0.00    +0.326 C 
ATOM      7  O   UNL     1       0.196  -2.759  -3.521  0.00  0.00    -0.251 OA
ATOM      8  C   UNL     1       1.666  -0.238  -6.865  0.00  0.00    +0.041 C 
ATOM      9  H   UNL     1       1.642  -2.870  -5.692  0.00  0.00    +0.151 HD
ENDROOT
BRANCH   1  12
ATOM     10  C   UNL     1       0.707  -0.490  -1.238  0.00  0.00    +0.252 C 
ATOM     11  O   UNL     1       1.704  -1.174  -1.140  0.00  0.00    -0.272 OA
ATOM     12  N   UNL     1       0.231  -0.164  -2.456  0.00  0.00    -0.222 N 
ATOM     13  H   UNL     1      -0.566   0.383  -2.534  0.00  0.00    +0.174 HD
BRANCH  10  15
ATOM     14  C   UNL     1      -0.019   1.526   0.010  0.00  0.00    +0.041 C 
ATOM     15  C   UNL     1       0.002  -0.004   0.002  0.00  0.00    +0.173 C 
BRANCH  15  16
ATOM     16  N   UNL     1       0.711  -0.489   1.189  0.00  0.00    -0.318 N 
ATOM     17  C   UNL     1       2.002  -0.221   1.523  0.00  0.00    +0.201 A 
ATOM     18  N   UNL     1       2.306  -0.812   2.641  0.00  0.00    -0.236 NA
ATOM     19  C   UNL     1       1.230  -1.501   3.102  0.00  0.00    +0.089 A 
ATOM     20  C   UNL     1       0.190  -1.299   2.179  0.00  0.00    +0.069 A 
ATOM     21  C   UNL     1      -1.048  -1.887   2.395  0.00  0.00    +0.028 A 
ATOM     22  C   UNL     1      -1.250  -2.663   3.516  0.00  0.00    +0.002 A 
ATOM     23  C   UNL     1      -0.223  -2.859   4.429  0.00  0.00    +0.002 A 
ATOM     24  C   UNL     1       1.005  -2.294   4.229  0.00  0.00    +0.030 A 
ENDBRANCH  15  16
ENDBRANCH  10  15
ENDBRANCH   1  12
BRANCH   4  25
ATOM     25  C   UNL     1       3.679  -0.843  -5.482  0.00  0.00    +0.040 C 
BRANCH  25  26
ATOM     26  C   UNL     1       4.149  -1.760  -6.613  0.00  0.00    +0.038 C 
BRANCH  26  27
ATOM     27  C   UNL     1       5.652  -1.857  -6.589  0.00  0.00    -0.047 A 
ATOM     28  C   UNL     1       6.415  -0.956  -7.308  0.00  0.00    +0.003 A 
ATOM     29  C   UNL     1       7.794  -1.045  -7.286  0.00  0.00    +0.000 A 
ATOM     30  C   UNL     1       8.411  -2.036  -6.545  0.00  0.00    +0.000 A 
ATOM     31  C   UNL     1       7.648  -2.937  -5.826  0.00  0.00    +0.000 A 
ATOM     32  C   UNL     1       6.269  -2.845  -5.845  0.00  0.00    +0.003 A 
ENDBRANCH  26  27
ENDBRANCH  25  26
ENDBRANCH   4  25
TORSDOF 6
