REMARK  Name = ZINC01435836
REMARK  10 active torsions:
REMARK  status: ('A' for Active; 'I' for Inactive)
REMARK    1  A    between atoms: C_1  and  C_2
REMARK    2  A    between atoms: C_2  and  C_3
REMARK    3  A    between atoms: C_2  and  C_4
REMARK    4  A    between atoms: C_2  and  C_5
REMARK    5  A    between atoms: C_5  and  C_7
REMARK    6  A    between atoms: C_5  and  N_58
REMARK    7  A    between atoms: C_7  and  O_8
REMARK    8  A    between atoms: O_8  and  C_9
REMARK    9  A    between atoms: N_22  and  C_26
REMARK   10  A    between atoms: C_26  and  C_27
REMARK                            x       y       z     vdW  Elec       q    Type
REMARK                         _______ _______ _______ _____ _____    ______ ____
ROOT
ATOM      1  C   UNL     1      -1.278   1.535  -0.493  0.00  0.00    +0.098 C 
ATOM      2  C   UNL     1      -0.853   2.897  -0.995  0.00  0.00    +0.091 C 
ATOM      3  C   UNL     1      -1.191   3.041  -2.475  0.00  0.00    +0.033 C 
ATOM      4  C   UNL     1      -0.722   4.410  -2.976  0.00  0.00    +0.003 C 
ATOM      5  C   UNL     1      -1.412   5.510  -2.168  0.00  0.00    +0.000 C 
ATOM      6  C   UNL     1      -1.048   5.366  -0.689  0.00  0.00    +0.003 C 
ATOM      7  C   UNL     1      -1.518   4.000  -0.180  0.00  0.00    +0.033 C 
ATOM      8  N   UNL     1       0.601   2.916  -0.796  0.00  0.00    -0.287 N 
ATOM      9  C   UNL     1       0.940   1.732  -0.253  0.00  0.00    +0.140 C 
ATOM     10  S   UNL     1       2.545   1.300   0.157  0.00  0.00    -0.018 S 
ATOM     11  N   UNL     1      -0.116   0.929  -0.067  0.00  0.00    -0.285 N 
ATOM     12  H   UNL     1      -0.068   0.038   0.312  0.00  0.00    +0.155 HD
ATOM     13  N   UNL     1      -2.482   0.980  -0.443  0.00  0.00    -0.368 N 
ATOM     14  H   UNL     1      -2.590   0.019  -0.099  0.00  0.00    +0.161 HD
ENDROOT
BRANCH  13  15
ATOM     15  C   UNL     1      -3.688   1.759  -0.889  0.00  0.00    +0.123 C 
BRANCH  15  17
ATOM     16  C   UNL     1      -4.710  -0.483  -1.300  0.00  0.00    +0.013 C 
ATOM     17  C   UNL     1      -4.459   0.903  -1.896  0.00  0.00    -0.014 C 
ATOM     18  C   UNL     1      -5.798   1.572  -2.214  0.00  0.00    +0.013 C 
ATOM     19  C   UNL     1      -3.640   0.765  -3.181  0.00  0.00    +0.013 C 
ENDBRANCH  15  17
BRANCH  15  20
ATOM     20  C   UNL     1      -4.571   2.033   0.330  0.00  0.00    +0.254 C 
BRANCH  20  21
ATOM     21  O   UNL     1      -4.975   0.792   0.913  0.00  0.00    -0.490 OA
BRANCH  21  22
ATOM     22  C   UNL     1      -5.769   0.858   2.014  0.00  0.00    +0.121 A 
ATOM     23  C   UNL     1      -6.148   2.091   2.525  0.00  0.00    +0.045 A 
ATOM     24  C   UNL     1      -6.960   2.155   3.641  0.00  0.00    +0.004 A 
ATOM     25  C   UNL     1      -7.387   0.991   4.254  0.00  0.00    +0.000 A 
ATOM     26  C   UNL     1      -7.006  -0.238   3.750  0.00  0.00    +0.004 A 
ATOM     27  C   UNL     1      -6.199  -0.308   2.631  0.00  0.00    +0.045 A 
ENDBRANCH  21  22
ENDBRANCH  20  21
ENDBRANCH  15  20
ENDBRANCH  13  15
BRANCH   8  28
ATOM     28  C   UNL     1       1.511   4.016  -1.126  0.00  0.00    +0.226 C 
BRANCH  28  29
ATOM     29  C   UNL     1       2.425   3.591  -2.199  0.00  0.00    +0.082 C 
ATOM     30  N   UNL     1       3.131   3.264  -3.027  0.00  0.00    -0.195 NA
ENDBRANCH  28  29
ENDBRANCH   8  28
TORSDOF 7
