REMARK  Name = ZINC36413016
REMARK  6 active torsions:
REMARK  status: ('A' for Active; 'I' for Inactive)
REMARK    1  A    between atoms: C_1  and  C_2
REMARK    2  A    between atoms: C_5  and  S_8
REMARK    3  A    between atoms: S_8  and  N_11
REMARK    4  A    between atoms: N_11  and  N_12
REMARK    5  A    between atoms: C_13  and  C_15
REMARK    6  A    between atoms: C_19  and  C_20
REMARK                            x       y       z     vdW  Elec       q    Type
REMARK                         _______ _______ _______ _____ _____    ______ ____
ROOT
ATOM      1  N   UNL     1       2.500  -4.622   1.014  0.00  0.00    -0.232 N 
ATOM      2  C   UNL     1       3.184  -5.560   1.699  0.00  0.00    +0.232 C 
ATOM      3  O   UNL     1       3.064  -6.731   1.407  0.00  0.00    -0.274 OA
ATOM      4  H   UNL     1       2.596  -3.685   1.247  0.00  0.00    +0.171 HD
ENDROOT
BRANCH   2   5
ATOM      5  C   UNL     1       4.098  -5.154   2.826  0.00  0.00    +0.097 C 
ATOM      6  C   UNL     1       4.857  -6.396   3.392  0.00  0.00    +0.025 C 
ATOM      7  C   UNL     1       6.032  -6.508   2.352  0.00  0.00    +0.016 C 
ATOM      8  C   UNL     1       6.532  -5.042   2.621  0.00  0.00    +0.027 C 
ATOM      9  C   UNL     1       5.232  -4.237   2.304  0.00  0.00    +0.121 C 
ATOM     10  C   UNL     1       6.593  -5.064   4.154  0.00  0.00    -0.027 C 
ATOM     11  C   UNL     1       5.628  -5.844   4.598  0.00  0.00    -0.027 C 
BRANCH   9  12
ATOM     12  C   UNL     1       5.230  -2.922   3.040  0.00  0.00    +0.360 C 
ATOM     13  O   UNL     1       6.274  -2.313   3.201  0.00  0.00    -0.246 OA
ATOM     14  O   UNL     1       4.185  -2.467   3.473  0.00  0.00    -0.246 OA
ENDBRANCH   9  12
ENDBRANCH   2   5
BRANCH   1  15
ATOM     15  N   UNL     1       1.651  -4.999  -0.034  0.00  0.00    -0.108 NA
ATOM     16  H   UNL     1       1.993  -5.536  -0.767  0.00  0.00    +0.172 HD
BRANCH  15  17
ATOM     17  S   UNL     1       0.063  -4.530  -0.023  0.00  0.00    +0.074 S 
ATOM     18  O   UNL     1      -0.476  -4.950   1.223  0.00  0.00    -0.152 OA
ATOM     19  O   UNL     1      -0.490  -4.937  -1.267  0.00  0.00    -0.152 OA
BRANCH  17  24
ATOM     20  C   UNL     1      -0.018   1.503   0.010  0.00  0.00    +0.044 C 
ATOM     21  C   UNL     1       0.002  -0.004   0.002  0.00  0.00    -0.050 A 
ATOM     22  C   UNL     1       0.006  -0.689  -1.199  0.00  0.00    +0.005 A 
ATOM     23  C   UNL     1       0.025  -2.071  -1.206  0.00  0.00    +0.029 A 
ATOM     24  C   UNL     1       0.040  -2.768  -0.013  0.00  0.00    +0.107 A 
ATOM     25  C   UNL     1       0.037  -2.084   1.188  0.00  0.00    +0.029 A 
ATOM     26  C   UNL     1       0.023  -0.702   1.195  0.00  0.00    +0.005 A 
ENDBRANCH  17  24
ENDBRANCH  15  17
ENDBRANCH   1  15
TORSDOF 5
