REMARK  Name = ZINC52290250
REMARK  6 active torsions:
REMARK  status: ('A' for Active; 'I' for Inactive)
REMARK    1  A    between atoms: C_1  and  C_2
REMARK    2  A    between atoms: C_2  and  N_3
REMARK    3  A    between atoms: C_4  and  N_19
REMARK    4  A    between atoms: C_5  and  N_12
REMARK    5  A    between atoms: N_12  and  C_13
REMARK    6  A    between atoms: C_16  and  C_18
REMARK                            x       y       z     vdW  Elec       q    Type
REMARK                         _______ _______ _______ _____ _____    ______ ____
ROOT
ATOM      1  N   UNL     1       0.471  -0.665  -1.118  0.00  0.00    -0.281 N 
ATOM      2  C   UNL     1      -0.179  -0.859  -2.316  0.00  0.00    +0.127 A 
ATOM      3  C   UNL     1       0.548  -1.179  -3.430  0.00  0.00    +0.131 A 
ATOM      4  C   UNL     1       1.944  -1.302  -3.320  0.00  0.00    +0.277 A 
ATOM      5  O   UNL     1       2.614  -1.587  -4.299  0.00  0.00    -0.266 OA
ATOM      6  N   UNL     1       2.539  -1.104  -2.127  0.00  0.00    -0.273 N 
ATOM      7  H   UNL     1       3.502  -1.188  -2.050  0.00  0.00    +0.173 HD
ATOM      8  C   UNL     1       1.809  -0.784  -1.043  0.00  0.00    +0.331 A 
ATOM      9  O   UNL     1       2.367  -0.605   0.022  0.00  0.00    -0.246 OA
ENDROOT
BRANCH   2  10
ATOM     10  N   UNL     1      -1.548  -0.731  -2.392  0.00  0.00    -0.343 N 
ATOM     11  H   UNL     1      -2.059  -0.504  -1.599  0.00  0.00    +0.144 HD
ATOM     12  H   UNL     1      -2.001  -0.869  -3.238  0.00  0.00    +0.144 HD
ENDBRANCH   2  10
BRANCH   1  14
ATOM     13  C   UNL     1      -0.423   1.200   0.187  0.00  0.00    +0.027 C 
ATOM     14  C   UNL     1      -0.298  -0.321   0.081  0.00  0.00    +0.125 C 
ENDBRANCH   1  14
BRANCH   3  15
ATOM     15  N   UNL     1      -0.096  -1.384  -4.672  0.00  0.00    -0.334 N 
ATOM     16  H   UNL     1      -0.651  -0.685  -5.052  0.00  0.00    +0.147 HD
BRANCH  15  17
ATOM     17  C   UNL     1       0.076  -2.652  -5.386  0.00  0.00    +0.074 C 
ATOM     18  C   UNL     1       0.341  -2.585  -6.891  0.00  0.00    +0.027 C 
ATOM     19  C   UNL     1      -1.019  -3.061  -6.373  0.00  0.00    +0.008 C 
ATOM     20  C   UNL     1      -1.339  -4.552  -6.496  0.00  0.00    +0.009 C 
ENDBRANCH  15  17
ENDBRANCH   3  15
TORSDOF 4
