REMARK  Name = ZINC63972390
REMARK  2 active torsions:
REMARK  status: ('A' for Active; 'I' for Inactive)
REMARK    1  A    between atoms: C_6  and  C_7
REMARK    2  A    between atoms: C_11  and  C_13
REMARK                            x       y       z     vdW  Elec       q    Type
REMARK                         _______ _______ _______ _____ _____    ______ ____
ROOT
ATOM      1  C   UNL     1      -0.698  -2.692  -1.212  0.00  0.00    +0.009 C 
ATOM      2  C   UNL     1       0.227  -3.654  -1.125  0.00  0.00    +0.075 C 
ATOM      3  C   UNL     1       0.899  -4.206   0.076  0.00  0.00    +0.264 C 
ATOM      4  O   UNL     1       0.646  -3.796   1.192  0.00  0.00    -0.269 OA
ATOM      5  N   UNL     1       1.787  -5.165  -0.125  0.00  0.00    -0.193 N 
ATOM      6  C   UNL     1       2.058  -5.616  -1.405  0.00  0.00    +0.166 C 
ATOM      7  N   UNL     1       2.895  -6.544  -1.776  0.00  0.00    -0.279 NA
ATOM      8  S   UNL     1       0.979  -4.624  -2.424  0.00  0.00    -0.049 S 
ATOM      9  C   UNL     1       2.457  -5.728   0.964  0.00  0.00    +0.219 A 
ATOM     10  C   UNL     1       2.019  -6.901   1.727  0.00  0.00    +0.203 A 
ATOM     11  N   UNL     1       2.896  -7.130   2.666  0.00  0.00    -0.032 NA
ATOM     12  O   UNL     1       3.912  -6.148   2.559  0.00  0.00    -0.239 OA
ATOM     13  N   UNL     1       3.580  -5.304   1.471  0.00  0.00    -0.031 NA
ATOM     14  N   UNL     1       0.866  -7.642   1.492  0.00  0.00    -0.338 N 
ATOM     15  H   UNL     1       2.989  -6.764  -2.716  0.00  0.00    +0.189 HD
ATOM     16  H   UNL     1       0.312  -7.446   0.720  0.00  0.00    +0.144 HD
ATOM     17  H   UNL     1       0.616  -8.355   2.100  0.00  0.00    +0.144 HD
ENDROOT
BRANCH   1  22
ATOM     18  C   UNL     1      -0.910  -0.515  -0.030  0.00  0.00    +0.083 C 
ATOM     19  N   UNL     1      -2.077   0.067   0.012  0.00  0.00    -0.153 NA
ATOM     20  N   UNL     1      -3.119  -0.850   0.104  0.00  0.00    -0.161 NA
ATOM     21  C   UNL     1      -2.701  -2.073   0.128  0.00  0.00    +0.121 C 
ATOM     22  C   UNL     1      -1.190  -2.004   0.036  0.00  0.00    +0.107 C 
BRANCH  18  28
ATOM     23  C   UNL     1       0.494   1.533  -0.178  0.00  0.00    +0.012 A 
ATOM     24  C   UNL     1       1.729   2.138  -0.268  0.00  0.00    +0.039 A 
ATOM     25  C   UNL     1       2.881   1.367  -0.308  0.00  0.00    +0.123 A 
ATOM     26  C   UNL     1       2.799  -0.017  -0.258  0.00  0.00    +0.039 A 
ATOM     27  C   UNL     1       1.571  -0.634  -0.167  0.00  0.00    +0.012 A 
ATOM     28  C   UNL     1       0.405   0.138  -0.126  0.00  0.00    -0.001 A 
ATOM     29  F   UNL     1       4.088   1.966  -0.397  0.00  0.00    -0.205 F 
ENDBRANCH  18  28
ENDBRANCH   1  22
TORSDOF 2
