REMARK  Name = ZINC42009535
REMARK  5 active torsions:
REMARK  status: ('A' for Active; 'I' for Inactive)
REMARK    1  A    between atoms: C_1  and  C_2
REMARK    2  A    between atoms: C_5  and  C_7
REMARK    3  A    between atoms: N_9  and  C_10
REMARK    4  A    between atoms: C_10  and  C_16
REMARK    5  A    between atoms: C_18  and  C_21
REMARK                            x       y       z     vdW  Elec       q    Type
REMARK                         _______ _______ _______ _____ _____    ______ ____
ROOT
ATOM      1  C   UNL     1       3.902  -4.161  -0.041  0.00  0.00    +0.098 C 
ATOM      2  C   UNL     1       3.662  -5.016   1.205  0.00  0.00    +0.034 C 
ATOM      3  C   UNL     1       3.914  -4.175   2.458  0.00  0.00    +0.003 C 
ATOM      4  C   UNL     1       5.360  -3.674   2.453  0.00  0.00    +0.000 C 
ATOM      5  C   UNL     1       5.600  -2.819   1.207  0.00  0.00    +0.003 C 
ATOM      6  C   UNL     1       5.348  -3.661  -0.045  0.00  0.00    +0.034 C 
ENDROOT
BRANCH   1   7
ATOM      7  C   UNL     1       3.653  -4.990  -1.274  0.00  0.00    +0.195 A 
ATOM      8  N   UNL     1       2.473  -5.501  -1.644  0.00  0.00    -0.194 NA
ATOM      9  C   UNL     1       2.602  -6.166  -2.758  0.00  0.00    +0.224 A 
ATOM     10  O   UNL     1       3.884  -6.100  -3.140  0.00  0.00    -0.338 OA
ATOM     11  N   UNL     1       4.551  -5.321  -2.158  0.00  0.00    -0.059 NA
ATOM     12  C   UNL     1       1.499  -6.885  -3.490  0.00  0.00    +0.112 C 
ENDBRANCH   1   7
BRANCH   1  15
ATOM     13  C   UNL     1       1.656  -3.216  -0.025  0.00  0.00    +0.280 C 
ATOM     14  O   UNL     1       1.211  -4.349  -0.028  0.00  0.00    -0.267 OA
ATOM     15  N   UNL     1       2.989  -3.016  -0.030  0.00  0.00    -0.296 N 
ATOM     16  H   UNL     1       3.343  -2.113  -0.027  0.00  0.00    +0.150 HD
BRANCH  13  21
ATOM     17  C   UNL     1      -0.018   1.503   0.010  0.00  0.00    +0.086 C 
ATOM     18  C   UNL     1       0.002  -0.004   0.002  0.00  0.00    +0.103 A 
ATOM     19  C   UNL     1      -1.086  -0.806   0.003  0.00  0.00    +0.045 A 
ATOM     20  C   UNL     1      -0.622  -2.131  -0.007  0.00  0.00    +0.055 A 
ATOM     21  C   UNL     1       0.742  -2.070  -0.014  0.00  0.00    +0.189 A 
ATOM     22  O   UNL     1       1.101  -0.769  -0.013  0.00  0.00    -0.455 OA
ENDBRANCH  13  21
ENDBRANCH   1  15
TORSDOF 3
