REMARK  Name = ZINC21705541
REMARK  4 active torsions:
REMARK  status: ('A' for Active; 'I' for Inactive)
REMARK    1  A    between atoms: C_3  and  C_12
REMARK    2  A    between atoms: C_6  and  C_7
REMARK    3  A    between atoms: C_7  and  N_8
REMARK    4  A    between atoms: C_18  and  C_20
REMARK                            x       y       z     vdW  Elec       q    Type
REMARK                         _______ _______ _______ _____ _____    ______ ____
ROOT
ATOM      1  C   UNL     1      -1.058  -1.740  -2.291  0.00  0.00    +0.247 C 
ATOM      2  O   UNL     1      -1.472  -2.642  -2.994  0.00  0.00    -0.270 OA
ATOM      3  N   UNL     1      -0.824  -1.959  -0.982  0.00  0.00    -0.290 N 
ATOM      4  C   UNL     1      -0.891  -3.266  -0.304  0.00  0.00    +0.109 C 
ATOM      5  C   UNL     1      -1.165  -2.929   1.183  0.00  0.00    +0.021 C 
ATOM      6  C   UNL     1      -0.321  -1.641   1.371  0.00  0.00    +0.029 C 
ATOM      7  C   UNL     1      -0.461  -0.933   0.006  0.00  0.00    +0.107 C 
ENDROOT
BRANCH   7   8
ATOM      8  C   UNL     1       0.849  -0.294  -0.376  0.00  0.00    -0.023 A 
ATOM      9  C   UNL     1       1.821  -1.041  -1.015  0.00  0.00    +0.009 A 
ATOM     10  C   UNL     1       3.024  -0.459  -1.366  0.00  0.00    +0.050 A 
ATOM     11  C   UNL     1       3.260   0.877  -1.078  0.00  0.00    +0.162 A 
ATOM     12  C   UNL     1       2.282   1.629  -0.438  0.00  0.00    +0.162 A 
ATOM     13  C   UNL     1       1.077   1.038  -0.087  0.00  0.00    +0.055 A 
ATOM     14  O   UNL     1       2.489   2.944  -0.154  0.00  0.00    -0.485 OA
ATOM     15  C   UNL     1       3.845   3.402  -0.182  0.00  0.00    +0.270 C 
ATOM     16  C   UNL     1       4.506   2.866  -1.459  0.00  0.00    +0.270 C 
ATOM     17  O   UNL     1       4.451   1.436  -1.426  0.00  0.00    -0.485 OA
ENDBRANCH   7   8
BRANCH   1  20
ATOM     18  C   UNL     1      -0.510   1.006  -4.794  0.00  0.00    +0.006 A 
ATOM     19  C   UNL     1      -0.740  -0.244  -4.258  0.00  0.00    +0.013 A 
ATOM     20  C   UNL     1      -0.811  -0.404  -2.873  0.00  0.00    +0.037 A 
ATOM     21  C   UNL     1      -0.655   0.705  -2.040  0.00  0.00    +0.013 A 
ATOM     22  C   UNL     1      -0.420   1.949  -2.589  0.00  0.00    +0.006 A 
ATOM     23  C   UNL     1      -0.351   2.100  -3.963  0.00  0.00    -0.030 A 
BRANCH  23  24
ATOM     24  C   UNL     1      -0.101   3.463  -4.556  0.00  0.00    +0.141 C 
BRANCH  24  25
ATOM     25  N   UNL     1      -1.381   4.135  -4.791  0.00  0.00    -0.295 N 
ATOM     26  C   UNL     1      -1.404   5.375  -5.320  0.00  0.00    +0.297 C 
ATOM     27  O   UNL     1      -0.362   5.934  -5.603  0.00  0.00    -0.253 OA
ATOM     28  N   UNL     1      -2.581   5.993  -5.537  0.00  0.00    -0.313 N 
ATOM     29  H   UNL     1      -2.323   3.629  -4.536  0.00  0.00    +0.151 HD
ATOM     30  H   UNL     1      -2.600   7.005  -5.969  0.00  0.00    +0.146 HD
ATOM     31  H   UNL     1      -3.524   5.487  -5.282  0.00  0.00    +0.146 HD
ENDBRANCH  24  25
ENDBRANCH  23  24
ENDBRANCH   1  20
TORSDOF 4
