REMARK  Name = ZINC58038616
REMARK  12 active torsions:
REMARK  status: ('A' for Active; 'I' for Inactive)
REMARK    1  A    between atoms: C_1  and  C_2
REMARK    2  A    between atoms: C_2  and  C_3
REMARK    3  A    between atoms: C_3  and  C_4
REMARK    4  A    between atoms: C_4  and  N_5
REMARK    5  A    between atoms: C_6  and  N_30
REMARK    6  A    between atoms: C_7  and  N_14
REMARK    7  A    between atoms: N_14  and  C_15
REMARK    8  A    between atoms: C_15  and  C_16
REMARK    9  A    between atoms: C_16  and  C_17
REMARK   10  A    between atoms: C_16  and  C_18
REMARK   11  A    between atoms: C_19  and  C_21
REMARK   12  A    between atoms: C_24  and  C_29
REMARK                            x       y       z     vdW  Elec       q    Type
REMARK                         _______ _______ _______ _____ _____    ______ ____
ROOT
ATOM      1  N   UNL     1       5.558   0.804   5.136  0.00  0.00    -0.280 N 
ATOM      2  C   UNL     1       4.308   0.414   5.557  0.00  0.00    +0.127 A 
ATOM      3  C   UNL     1       4.091  -0.908   5.886  0.00  0.00    +0.140 A 
ATOM      4  C   UNL     1       5.159  -1.819   5.781  0.00  0.00    +0.277 A 
ATOM      5  O   UNL     1       4.994  -2.994   6.065  0.00  0.00    -0.266 OA
ATOM      6  N   UNL     1       6.364  -1.385   5.363  0.00  0.00    -0.273 N 
ATOM      7  H   UNL     1       7.101  -2.012   5.290  0.00  0.00    +0.173 HD
ATOM      8  C   UNL     1       6.556  -0.093   5.042  0.00  0.00    +0.331 A 
ATOM      9  O   UNL     1       7.652   0.271   4.662  0.00  0.00    -0.246 OA
ENDROOT
BRANCH   3  10
ATOM     10  N   UNL     1       2.820  -1.340   6.321  0.00  0.00    -0.260 N 
ATOM     11  C   UNL     1       2.303  -0.862   7.471  0.00  0.00    +0.256 C 
ATOM     12  O   UNL     1       3.006  -0.230   8.237  0.00  0.00    -0.269 OA
BRANCH  11  13
ATOM     13  C   UNL     1       0.890  -1.104   7.798  0.00  0.00    +0.101 A 
ATOM     14  C   UNL     1      -0.029  -0.057   7.788  0.00  0.00    +0.020 A 
ATOM     15  C   UNL     1      -1.361  -0.325   8.104  0.00  0.00    +0.022 A 
ATOM     16  C   UNL     1      -1.747  -1.589   8.415  0.00  0.00    +0.016 A 
ATOM     17  N   UNL     1      -0.859  -2.611   8.427  0.00  0.00    -0.326 N 
ATOM     18  H   UNL     1      -1.162  -3.505   8.653  0.00  0.00    +0.169 HD
ATOM     19  C   UNL     1       0.437  -2.409   8.124  0.00  0.00    +0.261 A 
ATOM     20  O   UNL     1       1.221  -3.343   8.134  0.00  0.00    -0.267 OA
ATOM     21  C   UNL     1      -3.190  -1.859   8.755  0.00  0.00    +0.063 C 
ENDBRANCH  11  13
BRANCH  10  22
ATOM     22  C   UNL     1       2.062  -2.308   5.524  0.00  0.00    +0.117 C 
BRANCH  22  23
ATOM     23  C   UNL     1       3.009  -3.029   4.562  0.00  0.00    +0.001 C 
ATOM     24  C   UNL     1       2.209  -3.997   3.689  0.00  0.00    +0.009 C 
ATOM     25  C   UNL     1       3.712  -2.002   3.672  0.00  0.00    +0.009 C 
ENDBRANCH  22  23
ENDBRANCH  10  22
ENDBRANCH   3  10
BRANCH   2  26
ATOM     26  N   UNL     1       3.288   1.330   5.649  0.00  0.00    -0.343 N 
ATOM     27  H   UNL     1       2.409   1.049   5.949  0.00  0.00    +0.144 HD
ATOM     28  H   UNL     1       3.446   2.258   5.413  0.00  0.00    +0.144 HD
ENDBRANCH   2  26
BRANCH   1  29
ATOM     29  C   UNL     1       5.803   2.205   4.783  0.00  0.00    +0.128 C 
BRANCH  29  30
ATOM     30  C   UNL     1       5.510   2.415   3.297  0.00  0.00    +0.021 C 
BRANCH  30  32
ATOM     31  C   UNL     1       5.472   4.088   1.441  0.00  0.00    +0.004 C 
ATOM     32  C   UNL     1       5.766   3.878   2.928  0.00  0.00    -0.002 C 
ENDBRANCH  30  32
ENDBRANCH  29  30
ENDBRANCH   1  29
TORSDOF 8
