REMARK  Name = ZINC52470727
REMARK  6 active torsions:
REMARK  status: ('A' for Active; 'I' for Inactive)
REMARK    1  A    between atoms: C_1  and  C_2
REMARK    2  A    between atoms: C_2  and  C_4
REMARK    3  A    between atoms: C_2  and  N_11
REMARK    4  A    between atoms: N_11  and  C_12
REMARK    5  A    between atoms: N_15  and  C_16
REMARK    6  A    between atoms: C_20  and  C_22
REMARK                            x       y       z     vdW  Elec       q    Type
REMARK                         _______ _______ _______ _____ _____    ______ ____
ROOT
ATOM      1  N   UNL     1      -1.311  -0.549   0.155  0.00  0.00    -0.282 N 
ATOM      2  C   UNL     1      -2.286  -0.376  -0.924  0.00  0.00    +0.134 C 
ATOM      3  C   UNL     1      -1.658  -1.206   1.280  0.00  0.00    +0.307 C 
ATOM      4  O   UNL     1      -0.849  -1.349   2.175  0.00  0.00    -0.252 OA
ATOM      5  N   UNL     1      -2.904  -1.704   1.411  0.00  0.00    -0.269 N 
ATOM      6  H   UNL     1      -3.569  -1.533   0.727  0.00  0.00    +0.156 HD
ENDROOT
BRANCH   5   7
ATOM      7  C   UNL     1      -3.237  -2.468   2.536  0.00  0.00    +0.035 A 
ATOM      8  C   UNL     1      -4.114  -3.539   2.413  0.00  0.00    +0.023 A 
ATOM      9  C   UNL     1      -4.446  -4.297   3.520  0.00  0.00    +0.002 A 
ATOM     10  C   UNL     1      -3.908  -3.995   4.755  0.00  0.00    +0.012 A 
ATOM     11  C   UNL     1      -3.026  -2.921   4.889  0.00  0.00    +0.021 A 
ATOM     12  C   UNL     1      -2.687  -2.160   3.770  0.00  0.00    +0.035 A 
BRANCH  11  13
ATOM     13  C   UNL     1      -2.449  -2.595   6.210  0.00  0.00    +0.153 A 
ATOM     14  C   UNL     1      -2.679  -3.251   7.377  0.00  0.00    +0.132 A 
ATOM     15  N   UNL     1      -1.965  -2.636   8.332  0.00  0.00    -0.335 N 
ATOM     16  C   UNL     1      -1.314  -1.641   7.798  0.00  0.00    +0.284 A 
ATOM     17  O   UNL     1      -1.588  -1.592   6.487  0.00  0.00    -0.444 OA
ATOM     18  H   UNL     1      -1.937  -2.891   9.267  0.00  0.00    +0.168 HD
ENDBRANCH  11  13
ENDBRANCH   5   7
BRANCH   1  20
ATOM     19  C   UNL     1      -0.021   1.520  -0.039  0.00  0.00    +0.033 C 
ATOM     20  C   UNL     1       0.043  -0.007   0.012  0.00  0.00    +0.106 C 
BRANCH  20  21
ATOM     21  C   UNL     1       0.660  -0.527  -1.261  0.00  0.00    -0.009 A 
ATOM     22  C   UNL     1       0.752   0.293  -2.370  0.00  0.00    +0.007 A 
ATOM     23  C   UNL     1       1.317  -0.183  -3.537  0.00  0.00    +0.000 A 
ATOM     24  C   UNL     1       1.792  -1.480  -3.597  0.00  0.00    +0.001 A 
ATOM     25  C   UNL     1       1.701  -2.301  -2.489  0.00  0.00    +0.020 A 
ATOM     26  C   UNL     1       1.140  -1.823  -1.318  0.00  0.00    +0.046 A 
ATOM     27 CL   UNL     1       1.031  -2.852   0.076  0.00  0.00    -0.083 Cl
ENDBRANCH  20  21
ENDBRANCH   1  20
TORSDOF 4
