REMARK  Name = ZINC13639574
REMARK  8 active torsions:
REMARK  status: ('A' for Active; 'I' for Inactive)
REMARK    1  A    between atoms: C_4  and  C_7
REMARK    2  A    between atoms: C_7  and  C_8
REMARK    3  A    between atoms: C_8  and  N_9
REMARK    4  A    between atoms: N_9  and  S_10
REMARK    5  A    between atoms: S_10  and  C_13
REMARK    6  A    between atoms: C_26  and  C_29
REMARK    7  A    between atoms: C_32  and  O_36
REMARK    8  A    between atoms: C_34  and  O_35
REMARK                            x       y       z     vdW  Elec       q    Type
REMARK                         _______ _______ _______ _____ _____    ______ ____
ROOT
ATOM      1  C   UNL     1      -1.245   3.129   0.029  0.00  0.00    +0.106 A 
ATOM      2  C   UNL     1      -1.218   1.746   0.017  0.00  0.00    +0.030 A 
ATOM      3  C   UNL     1      -0.013   1.076   0.008  0.00  0.00    +0.025 A 
ATOM      4  C   UNL     1       1.183   1.784   0.000  0.00  0.00    +0.031 A 
ATOM      5  C   UNL     1       1.149   3.182   0.022  0.00  0.00    -0.018 A 
ATOM      6  C   UNL     1      -0.061   3.842   0.028  0.00  0.00    +0.034 A 
ATOM      7  C   UNL     1       2.443   3.896   0.059  0.00  0.00    +0.049 C 
ATOM      8  C   UNL     1       2.594   5.281  -0.455  0.00  0.00    -0.023 C 
ATOM      9  C   UNL     1       3.828   5.429  -0.921  0.00  0.00    -0.030 C 
ATOM     10  C   UNL     1       4.600   4.116  -0.782  0.00  0.00    +0.033 C 
ATOM     11  C   UNL     1       3.463   3.085  -0.796  0.00  0.00    +0.029 C 
ATOM     12  C   UNL     1       3.692   1.792  -0.035  0.00  0.00    +0.108 C 
ATOM     13  N   UNL     1       2.394   1.083  -0.051  0.00  0.00    -0.336 N 
ATOM     14  H   UNL     1       2.382   0.114  -0.097  0.00  0.00    +0.147 HD
ENDROOT
BRANCH  12  15
ATOM     15  C   UNL     1       4.746   0.963  -0.723  0.00  0.00    +0.015 A 
ATOM     16  C   UNL     1       4.375  -0.027  -1.612  0.00  0.00    +0.012 A 
ATOM     17  C   UNL     1       5.339  -0.785  -2.248  0.00  0.00    +0.046 A 
ATOM     18  C   UNL     1       6.683  -0.561  -1.987  0.00  0.00    +0.120 A 
ATOM     19  C   UNL     1       7.059   0.428  -1.091  0.00  0.00    +0.091 A 
ATOM     20  C   UNL     1       6.089   1.192  -0.459  0.00  0.00    +0.125 A 
BRANCH  20  21
ATOM     21  O   UNL     1       6.454   2.163   0.420  0.00  0.00    -0.506 OA
ATOM     22  H   UNL     1       6.529   1.858   1.334  0.00  0.00    +0.292 HD
ENDBRANCH  20  21
BRANCH  18  23
ATOM     23  O   UNL     1       7.631  -1.310  -2.609  0.00  0.00    -0.507 OA
ATOM     24  H   UNL     1       7.875  -2.113  -2.129  0.00  0.00    +0.292 HD
ENDBRANCH  18  23
ENDBRANCH  12  15
BRANCH   1  25
ATOM     25  S   UNL     1      -2.787   3.980   0.037  0.00  0.00    +0.058 S 
ATOM     26  O   UNL     1      -3.743   3.084   0.587  0.00  0.00    -0.153 OA
ATOM     27  O   UNL     1      -2.539   5.265   0.592  0.00  0.00    -0.153 OA
BRANCH  25  28
ATOM     28  N   UNL     1      -3.220   4.224  -1.543  0.00  0.00    -0.190 NA
ATOM     29  H   UNL     1      -3.276   5.125  -1.898  0.00  0.00    +0.148 HD
BRANCH  28  30
ATOM     30  C   UNL     1      -3.520   3.078  -2.405  0.00  0.00    +0.110 C 
BRANCH  30  31
ATOM     31  C   UNL     1      -4.239   3.562  -3.666  0.00  0.00    +0.052 C 
BRANCH  31  35
ATOM     32  C   UNL     1      -5.113   0.221  -6.180  0.00  0.00    +0.000 A 
ATOM     33  C   UNL     1      -6.026   0.624  -5.223  0.00  0.00    +0.000 A 
ATOM     34  C   UNL     1      -5.744   1.705  -4.410  0.00  0.00    +0.003 A 
ATOM     35  C   UNL     1      -4.548   2.383  -4.553  0.00  0.00    -0.046 A 
ATOM     36  C   UNL     1      -3.636   1.984  -5.512  0.00  0.00    +0.003 A 
ATOM     37  C   UNL     1      -3.917   0.899  -6.323  0.00  0.00    +0.000 A 
ENDBRANCH  31  35
ENDBRANCH  30  31
ENDBRANCH  28  30
ENDBRANCH  25  28
ENDBRANCH   1  25
TORSDOF 8
