REMARK  Name = ZINC35664730
REMARK  12 active torsions:
REMARK  status: ('A' for Active; 'I' for Inactive)
REMARK    1  A    between atoms: C_1  and  C_2
REMARK    2  A    between atoms: C_2  and  O_3
REMARK    3  A    between atoms: O_3  and  C_4
REMARK    4  A    between atoms: C_4  and  C_6
REMARK    5  A    between atoms: C_7  and  C_24
REMARK    6  A    between atoms: N_8  and  C_21
REMARK    7  A    between atoms: C_12  and  C_14
REMARK    8  A    between atoms: C_21  and  C_22
REMARK    9  A    between atoms: C_24  and  N_25
REMARK   10  A    between atoms: C_32  and  C_34
REMARK   11  A    between atoms: C_34  and  O_35
REMARK   12  A    between atoms: O_35  and  C_36
REMARK                            x       y       z     vdW  Elec       q    Type
REMARK                         _______ _______ _______ _____ _____    ______ ____
ROOT
ATOM      1  C   UNL     1      -2.544  -2.686   0.279  0.00  0.00    +0.076 C 
ATOM      2  C   UNL     1      -2.922  -3.916  -0.129  0.00  0.00    +0.011 C 
ATOM      3  N   UNL     1      -4.242  -4.241  -0.257  0.00  0.00    -0.257 N 
ATOM      4  C   UNL     1      -5.245  -3.393   0.003  0.00  0.00    +0.307 C 
ATOM      5  O   UNL     1      -6.390  -3.774  -0.141  0.00  0.00    -0.252 OA
ATOM      6  N   UNL     1      -5.026  -2.129   0.418  0.00  0.00    -0.288 N 
ATOM      7  C   UNL     1      -3.634  -1.681   0.595  0.00  0.00    +0.143 C 
ATOM      8  H   UNL     1      -5.767  -1.531   0.601  0.00  0.00    +0.151 HD
ENDROOT
BRANCH   7   9
ATOM      9  C   UNL     1      -3.424  -0.476  -0.285  0.00  0.00    -0.022 A 
ATOM     10  C   UNL     1      -3.853  -0.497  -1.599  0.00  0.00    +0.008 A 
ATOM     11  C   UNL     1      -3.661   0.608  -2.407  0.00  0.00    +0.038 A 
ATOM     12  C   UNL     1      -3.040   1.736  -1.899  0.00  0.00    +0.123 A 
ATOM     13  C   UNL     1      -2.611   1.756  -0.583  0.00  0.00    +0.038 A 
ATOM     14  C   UNL     1      -2.808   0.652   0.224  0.00  0.00    +0.008 A 
ATOM     15  F   UNL     1      -2.852   2.817  -2.688  0.00  0.00    -0.205 F 
ENDBRANCH   7   9
BRANCH   1  16
ATOM     16  C   UNL     1      -1.177  -2.347   0.413  0.00  0.00    +0.339 C 
ATOM     17  O   UNL     1      -0.320  -3.181   0.188  0.00  0.00    -0.245 OA
BRANCH  16  18
ATOM     18  O   UNL     1      -0.824  -1.101   0.790  0.00  0.00    -0.462 OA
BRANCH  18  20
ATOM     19  C   UNL     1       0.777   0.624   1.340  0.00  0.00    +0.048 C 
ATOM     20  C   UNL     1       0.574  -0.829   0.905  0.00  0.00    +0.229 C 
ENDBRANCH  18  20
ENDBRANCH  16  18
ENDBRANCH   1  16
BRANCH   3  21
ATOM     21  C   UNL     1      -4.581  -5.595  -0.705  0.00  0.00    +0.141 C 
BRANCH  21  22
ATOM     22  C   UNL     1      -4.810  -6.478   0.495  0.00  0.00    -0.015 C 
ATOM     23  C   UNL     1      -5.927  -7.153   0.607  0.00  0.00    +0.005 C 
ENDBRANCH  21  22
ENDBRANCH   3  21
BRANCH   2  24
ATOM     24  C   UNL     1      -1.871  -4.947  -0.448  0.00  0.00    -0.026 C 
BRANCH  24  25
ATOM     25  N   UNL     1      -1.608  -4.947  -1.893  0.00  0.00    +0.384 N 
ATOM     26  C   UNL     1      -0.806  -6.125  -2.216  0.00  0.00    -0.077 C 
ATOM     27  C   UNL     1      -1.109  -6.563  -3.632  0.00  0.00    +0.000 C 
ATOM     28  C   UNL     1      -0.095  -5.921  -4.595  0.00  0.00    +0.106 C 
ATOM     29  N   UNL     1       0.192  -4.524  -4.211  0.00  0.00    -0.301 N 
ATOM     30  C   UNL     1      -0.845  -3.613  -3.773  0.00  0.00    +0.089 C 
ATOM     31  C   UNL     1      -1.018  -3.712  -2.240  0.00  0.00    -0.059 C 
ATOM     32  C   UNL     1       1.464  -4.082  -4.270  0.00  0.00    +0.241 C 
ATOM     33  O   UNL     1       1.723  -2.938  -3.959  0.00  0.00    -0.273 OA
ATOM     34  H   UNL     1      -2.491  -5.024  -2.376  0.00  0.00    -0.081 HD
BRANCH  32  35
ATOM     35  C   UNL     1       2.563  -5.008  -4.721  0.00  0.00    +0.255 C 
BRANCH  35  36
ATOM     36  O   UNL     1       3.811  -4.312  -4.699  0.00  0.00    -0.374 OA
ATOM     37  C   UNL     1       4.926  -5.104  -5.112  0.00  0.00    +0.194 C 
ENDBRANCH  35  36
ENDBRANCH  32  35
ENDBRANCH  24  25
ENDBRANCH   2  24
TORSDOF 10
