REMARK  Name = ZINC21861283
REMARK  7 active torsions:
REMARK  status: ('A' for Active; 'I' for Inactive)
REMARK    1  A    between atoms: C_1  and  C_2
REMARK    2  A    between atoms: C_7  and  C_8
REMARK    3  A    between atoms: C_8  and  N_9
REMARK    4  A    between atoms: C_22  and  C_23
REMARK    5  A    between atoms: C_22  and  C_24
REMARK    6  A    between atoms: N_26  and  C_27
REMARK    7  A    between atoms: C_33  and  C_35
REMARK                            x       y       z     vdW  Elec       q    Type
REMARK                         _______ _______ _______ _____ _____    ______ ____
ROOT
ATOM      1  N   UNL     1      -1.368  -2.306  -0.002  0.00  0.00    -0.275 N 
ATOM      2  C   UNL     1      -1.745  -1.088  -0.457  0.00  0.00    +0.283 C 
ATOM      3  O   UNL     1      -2.873  -0.876  -0.856  0.00  0.00    -0.267 OA
ATOM      4  C   UNL     1      -0.709  -0.025  -0.443  0.00  0.00    +0.198 A 
ATOM      5  N   UNL     1      -0.825   1.256  -0.636  0.00  0.00    -0.223 NA
ATOM      6  C   UNL     1       0.375   1.832  -0.533  0.00  0.00    +0.090 A 
ATOM      7  C   UNL     1       0.783   3.170  -0.651  0.00  0.00    +0.030 A 
ATOM      8  C   UNL     1       2.117   3.433  -0.478  0.00  0.00    +0.002 A 
ATOM      9  C   UNL     1       3.038   2.435  -0.199  0.00  0.00    +0.002 A 
ATOM     10  C   UNL     1       2.670   1.107  -0.079  0.00  0.00    +0.028 A 
ATOM     11  C   UNL     1       1.320   0.806  -0.251  0.00  0.00    +0.069 A 
ATOM     12  N   UNL     1       0.618  -0.349  -0.211  0.00  0.00    -0.317 N 
ATOM     13  C   UNL     1       1.047  -1.731   0.012  0.00  0.00    +0.159 C 
ATOM     14  C   UNL     1      -0.090  -2.513   0.669  0.00  0.00    +0.129 C 
ATOM     15  C   UNL     1      -0.218  -2.070   2.127  0.00  0.00    +0.043 C 
ENDROOT
BRANCH  14  16
ATOM     16  C   UNL     1       0.246  -3.982   0.635  0.00  0.00    +0.238 C 
ATOM     17  O   UNL     1       0.593  -4.548   1.651  0.00  0.00    -0.273 OA
ATOM     18  N   UNL     1       0.161  -4.667  -0.522  0.00  0.00    -0.310 N 
ATOM     19  H   UNL     1      -0.082  -4.139  -1.457  0.00  0.00    +0.149 HD
BRANCH  18  20
ATOM     20  C   UNL     1       0.393  -6.113  -0.537  0.00  0.00    +0.076 C 
ATOM     21  C   UNL     1       1.897  -6.389  -0.495  0.00  0.00    +0.022 C 
ATOM     22  C   UNL     1       2.566  -5.753  -1.715  0.00  0.00    +0.002 C 
ATOM     23  C   UNL     1       1.973  -6.352  -2.992  0.00  0.00    +0.000 C 
ATOM     24  C   UNL     1       0.469  -6.076  -3.034  0.00  0.00    +0.005 C 
ATOM     25  C   UNL     1      -0.200  -6.712  -1.814  0.00  0.00    +0.006 C 
ATOM     26  C   UNL     1      -1.705  -6.436  -1.856  0.00  0.00    +0.009 C 
ENDBRANCH  18  20
ENDBRANCH  14  16
BRANCH   1  27
ATOM     27  C   UNL     1      -2.268  -3.446  -0.189  0.00  0.00    +0.144 C 
BRANCH  27  34
ATOM     28  C   UNL     1      -4.404  -2.086   1.202  0.00  0.00    +0.044 C 
ATOM     29  C   UNL     1      -3.753  -3.296   1.820  0.00  0.00    -0.046 A 
ATOM     30  C   UNL     1      -4.177  -3.755   3.054  0.00  0.00    +0.003 A 
ATOM     31  C   UNL     1      -3.579  -4.865   3.621  0.00  0.00    +0.000 A 
ATOM     32  C   UNL     1      -2.558  -5.516   2.954  0.00  0.00    +0.000 A 
ATOM     33  C   UNL     1      -2.137  -5.060   1.720  0.00  0.00    +0.005 A 
ATOM     34  C   UNL     1      -2.731  -3.947   1.155  0.00  0.00    -0.027 A 
ENDBRANCH  27  34
ENDBRANCH   1  27
TORSDOF 4
