REMARK  Name = ZINC11017820
REMARK  11 active torsions:
REMARK  status: ('A' for Active; 'I' for Inactive)
REMARK    1  A    between atoms: C_1  and  C_2
REMARK    2  A    between atoms: C_7  and  N_8
REMARK    3  A    between atoms: C_12  and  S_13
REMARK    4  A    between atoms: S_13  and  C_14
REMARK    5  A    between atoms: C_14  and  C_15
REMARK    6  A    between atoms: C_15  and  C_17
REMARK    7  A    between atoms: C_18  and  N_30
REMARK    8  A    between atoms: N_19  and  C_26
REMARK    9  A    between atoms: C_26  and  C_27
REMARK   10  A    between atoms: C_27  and  C_28
REMARK   11  A    between atoms: C_27  and  C_29
REMARK                            x       y       z     vdW  Elec       q    Type
REMARK                         _______ _______ _______ _____ _____    ______ ____
ROOT
ATOM      1  S   UNL     1      -2.692   0.749   0.037  0.00  0.00    -0.078 S 
ENDROOT
BRANCH   1   6
ATOM      2  N   UNL     1      -5.433   1.300   0.081  0.00  0.00    -0.258 N 
ATOM      3  C   UNL     1      -6.260   2.390   0.110  0.00  0.00    +0.225 A 
ATOM      4  N   UNL     1      -5.512   3.465   0.118  0.00  0.00    -0.112 NA
ATOM      5  N   UNL     1      -4.171   3.062   0.100  0.00  0.00    -0.120 NA
ATOM      6  C   UNL     1      -4.141   1.752   0.072  0.00  0.00    +0.198 A 
ATOM      7  N   UNL     1      -7.649   2.361   0.126  0.00  0.00    -0.295 N 
ATOM      8  C   UNL     1      -8.173   1.609  -1.024  0.00  0.00    +0.136 C 
ATOM      9  C   UNL     1      -9.701   1.551  -0.934  0.00  0.00    +0.179 C 
ATOM     10  O   UNL     1     -10.221   2.882  -0.875  0.00  0.00    -0.377 OA
ATOM     11  C   UNL     1      -9.731   3.643   0.233  0.00  0.00    +0.179 C 
ATOM     12  C   UNL     1      -8.204   3.722   0.156  0.00  0.00    +0.136 C 
BRANCH   2  19
ATOM     13  C   UNL     1      -5.864   0.056  -2.443  0.00  0.00    +0.046 C 
ATOM     14  C   UNL     1      -6.059  -0.687  -1.146  0.00  0.00    -0.026 A 
ATOM     15  C   UNL     1      -6.453  -2.010  -1.161  0.00  0.00    +0.005 A 
ATOM     16  C   UNL     1      -6.637  -2.691   0.029  0.00  0.00    +0.000 A 
ATOM     17  C   UNL     1      -6.422  -2.051   1.235  0.00  0.00    +0.002 A 
ATOM     18  C   UNL     1      -6.024  -0.729   1.256  0.00  0.00    +0.026 A 
ATOM     19  C   UNL     1      -5.838  -0.043   0.063  0.00  0.00    +0.055 A 
ENDBRANCH   2  19
ENDBRANCH   1   6
BRANCH   1  20
ATOM     20  C   UNL     1      -1.329   1.946   0.040  0.00  0.00    +0.157 C 
BRANCH  20  21
ATOM     21  C   UNL     1      -0.015   1.211   0.011  0.00  0.00    +0.182 C 
ATOM     22  O   UNL     1       0.002  -0.004  -0.009  0.00  0.00    -0.291 OA
BRANCH  21  23
ATOM     23  C   UNL     1       1.198   1.933   0.002  0.00  0.00    +0.120 A 
ATOM     24  C   UNL     1       2.436   1.273   0.091  0.00  0.00    +0.116 A 
ATOM     25  N   UNL     1       3.583   2.014   0.074  0.00  0.00    -0.281 N 
ATOM     26  C   UNL     1       3.546   3.353  -0.015  0.00  0.00    +0.331 A 
ATOM     27  O   UNL     1       4.595   3.968  -0.022  0.00  0.00    -0.246 OA
ATOM     28  N   UNL     1       2.394   4.038  -0.097  0.00  0.00    -0.274 N 
ATOM     29  H   UNL     1       2.417   5.036  -0.162  0.00  0.00    +0.173 HD
ATOM     30  C   UNL     1       1.207   3.398  -0.093  0.00  0.00    +0.266 A 
ATOM     31  O   UNL     1       0.164   4.022  -0.168  0.00  0.00    -0.267 OA
BRANCH  24  32
ATOM     32  N   UNL     1       2.491  -0.083   0.187  0.00  0.00    -0.344 N 
ATOM     33  H   UNL     1       1.678  -0.608   0.122  0.00  0.00    +0.144 HD
ATOM     34  H   UNL     1       3.344  -0.526   0.321  0.00  0.00    +0.144 HD
ENDBRANCH  24  32
BRANCH  25  35
ATOM     35  C   UNL     1       4.878   1.336   0.160  0.00  0.00    +0.131 C 
BRANCH  35  36
ATOM     36  C   UNL     1       5.282   1.194   1.629  0.00  0.00    +0.003 C 
ATOM     37  C   UNL     1       4.293   0.271   2.343  0.00  0.00    +0.009 C 
ATOM     38  C   UNL     1       6.689   0.599   1.716  0.00  0.00    +0.009 C 
ENDBRANCH  35  36
ENDBRANCH  25  35
ENDBRANCH  21  23
ENDBRANCH  20  21
ENDBRANCH   1  20
TORSDOF 8
