REMARK  Name = ZINC36528101
REMARK  11 active torsions:
REMARK  status: ('A' for Active; 'I' for Inactive)
REMARK    1  A    between atoms: C_1  and  N_2
REMARK    2  A    between atoms: N_2  and  C_3
REMARK    3  A    between atoms: C_3  and  C_5
REMARK    4  A    between atoms: C_3  and  C_14
REMARK    5  A    between atoms: C_6  and  O_13
REMARK    6  A    between atoms: C_8  and  O_12
REMARK    7  A    between atoms: C_10  and  O_11
REMARK    8  A    between atoms: N_16  and  C_17
REMARK    9  A    between atoms: C_23  and  C_25
REMARK   10  A    between atoms: C_27  and  N_34
REMARK   11  A    between atoms: C_29  and  N_31
REMARK                            x       y       z     vdW  Elec       q    Type
REMARK                         _______ _______ _______ _____ _____    ______ ____
ROOT
ATOM      1  C   UNL     1       0.709  -0.550   1.386  0.00  0.00    +0.199 C 
ENDROOT
BRANCH   1   2
ATOM      2  C   UNL     1      -0.329   0.409   1.909  0.00  0.00    +0.065 A 
ATOM      3  C   UNL     1      -0.215   0.921   3.193  0.00  0.00    +0.129 A 
ATOM      4  C   UNL     1      -1.170   1.804   3.675  0.00  0.00    +0.091 A 
ATOM      5  C   UNL     1      -2.238   2.175   2.872  0.00  0.00    +0.124 A 
ATOM      6  C   UNL     1      -2.351   1.664   1.588  0.00  0.00    +0.091 A 
ATOM      7  C   UNL     1      -1.394   0.785   1.105  0.00  0.00    +0.129 A 
BRANCH   7   8
ATOM      8  O   UNL     1      -1.502   0.288  -0.155  0.00  0.00    -0.506 OA
ATOM      9  H   UNL     1      -2.006  -0.535  -0.212  0.00  0.00    +0.292 HD
ENDBRANCH   7   8
BRANCH   5  10
ATOM     10  O   UNL     1      -3.175   3.039   3.345  0.00  0.00    -0.507 OA
ATOM     11  H   UNL     1      -2.975   3.969   3.170  0.00  0.00    +0.292 HD
ENDBRANCH   5  10
BRANCH   3  12
ATOM     12  O   UNL     1       0.832   0.557   3.980  0.00  0.00    -0.506 OA
ATOM     13  H   UNL     1       1.572   1.178   3.961  0.00  0.00    +0.292 HD
ENDBRANCH   3  12
ENDBRANCH   1   2
BRANCH   1  15
ATOM     14  C   UNL     1       1.488   1.179  -0.301  0.00  0.00    +0.133 C 
ATOM     15  N   UNL     1       1.060  -0.187   0.010  0.00  0.00    -0.285 N 
ATOM     16  C   UNL     1       0.988  -1.111  -0.969  0.00  0.00    +0.247 C 
ATOM     17  O   UNL     1       0.561  -2.223  -0.726  0.00  0.00    -0.270 OA
BRANCH  16  18
ATOM     18  C   UNL     1       1.429  -0.772  -2.339  0.00  0.00    +0.041 A 
ATOM     19  C   UNL     1       2.132  -1.706  -3.100  0.00  0.00    +0.046 A 
ATOM     20  C   UNL     1       2.540  -1.383  -4.378  0.00  0.00    +0.129 A 
ATOM     21  C   UNL     1       2.254  -0.136  -4.905  0.00  0.00    +0.065 A 
ATOM     22  C   UNL     1       1.557   0.794  -4.155  0.00  0.00    +0.129 A 
ATOM     23  C   UNL     1       1.138   0.482  -2.878  0.00  0.00    +0.046 A 
BRANCH  22  24
ATOM     24  N   UNL     1       1.254   2.126  -4.727  0.00  0.00    +0.057 N 
ATOM     25  O   UNL     1       1.617   2.399  -5.847  0.00  0.00    -0.126 OA
ATOM     26  O   UNL     1       0.645   2.940  -4.073  0.00  0.00    -0.126 OA
ENDBRANCH  22  24
BRANCH  20  27
ATOM     27  N   UNL     1       3.287  -2.373  -5.187  0.00  0.00    +0.057 N 
ATOM     28  O   UNL     1       3.538  -3.463  -4.728  0.00  0.00    -0.126 OA
ATOM     29  O   UNL     1       3.645  -2.091  -6.307  0.00  0.00    -0.126 OA
ENDBRANCH  20  27
ENDBRANCH  16  18
ENDBRANCH   1  15
BRANCH   1  30
ATOM     30  C   UNL     1       1.940  -0.480   2.252  0.00  0.00    +0.239 C 
ATOM     31  O   UNL     1       2.821   0.312   1.992  0.00  0.00    -0.273 OA
ATOM     32  N   UNL     1       2.062  -1.298   3.317  0.00  0.00    -0.311 N 
ATOM     33  H   UNL     1       1.387  -1.972   3.491  0.00  0.00    +0.149 HD
BRANCH  32  34
ATOM     34  C   UNL     1       3.215  -1.168   4.212  0.00  0.00    +0.073 C 
ATOM     35  C   UNL     1       4.391  -1.969   3.647  0.00  0.00    +0.022 C 
ATOM     36  C   UNL     1       5.595  -1.834   4.581  0.00  0.00    +0.002 C 
ATOM     37  C   UNL     1       5.229  -2.373   5.966  0.00  0.00    +0.000 C 
ATOM     38  C   UNL     1       4.053  -1.572   6.530  0.00  0.00    +0.002 C 
ATOM     39  C   UNL     1       2.849  -1.707   5.596  0.00  0.00    +0.022 C 
ENDBRANCH  32  34
ENDBRANCH   1  30
TORSDOF 10
