REMARK  Name = ZINC62364036
REMARK  3 active torsions:
REMARK  status: ('A' for Active; 'I' for Inactive)
REMARK    1  A    between atoms: C_1  and  C_2
REMARK    2  A    between atoms: C_2  and  N_9
REMARK    3  A    between atoms: C_11  and  N_17
REMARK                            x       y       z     vdW  Elec       q    Type
REMARK                         _______ _______ _______ _____ _____    ______ ____
ROOT
ATOM      1  N   UNL     1      -1.378  -0.491   0.059  0.00  0.00    -0.321 N 
ATOM      2  C   UNL     1      -2.280  -0.138  -0.936  0.00  0.00    +0.145 A 
ATOM      3  C   UNL     1      -3.605  -0.592  -0.890  0.00  0.00    +0.102 A 
ATOM      4  C   UNL     1      -4.466  -0.210  -1.910  0.00  0.00    +0.155 A 
ATOM      5  N   UNL     1      -4.007   0.567  -2.884  0.00  0.00    -0.222 NA
ATOM      6  C   UNL     1      -2.755   0.975  -2.894  0.00  0.00    +0.225 A 
ATOM      7  N   UNL     1      -1.904   0.641  -1.944  0.00  0.00    -0.219 NA
ATOM      8 CL   UNL     1      -6.119  -0.740  -1.912  0.00  0.00    -0.060 Cl
ATOM      9  H   UNL     1      -1.662  -1.060   0.791  0.00  0.00    +0.148 HD
ENDROOT
BRANCH   1  11
ATOM     10  C   UNL     1      -0.019   1.526   0.010  0.00  0.00    +0.033 C 
ATOM     11  C   UNL     1       0.002  -0.004   0.002  0.00  0.00    +0.051 C 
ATOM     12  C   UNL     1       0.632  -0.478  -1.307  0.00  0.00    +0.049 C 
ATOM     13  C   UNL     1       2.169  -0.637  -1.140  0.00  0.00    +0.168 C 
ATOM     14  S   UNL     1       2.220  -1.358   0.560  0.00  0.00    -0.029 S 
ATOM     15  O   UNL     1       1.951  -2.751   0.484  0.00  0.00    -0.174 OA
ATOM     16  O   UNL     1       3.390  -0.903   1.225  0.00  0.00    -0.174 OA
ATOM     17  C   UNL     1       0.751  -0.495   1.257  0.00  0.00    +0.191 C 
ENDBRANCH   1  11
BRANCH   3  18
ATOM     18  N   UNL     1      -4.049  -1.412   0.156  0.00  0.00    -0.353 N 
ATOM     19  H   UNL     1      -3.437  -1.672   0.862  0.00  0.00    +0.143 HD
ATOM     20  H   UNL     1      -4.969  -1.719   0.175  0.00  0.00    +0.143 HD
ENDBRANCH   3  18
TORSDOF 2
