REMARK  Name = ZINC24578291
REMARK  6 active torsions:
REMARK  status: ('A' for Active; 'I' for Inactive)
REMARK    1  A    between atoms: C_6  and  S_11
REMARK    2  A    between atoms: S_11  and  N_14
REMARK    3  A    between atoms: N_14  and  C_15
REMARK    4  A    between atoms: C_20  and  N_21
REMARK    5  A    between atoms: C_22  and  N_28
REMARK    6  A    between atoms: C_23  and  C_26
REMARK                            x       y       z     vdW  Elec       q    Type
REMARK                         _______ _______ _______ _____ _____    ______ ____
ROOT
ATOM      1  C   UNL     1      -1.922  -0.695   0.673  0.00  0.00    +0.073 A 
ATOM      2  C   UNL     1      -2.733  -1.752   1.060  0.00  0.00    +0.026 A 
ATOM      3  C   UNL     1      -2.243  -3.043   1.038  0.00  0.00    +0.002 A 
ATOM      4  C   UNL     1      -0.943  -3.287   0.631  0.00  0.00    +0.002 A 
ATOM      5  C   UNL     1      -0.130  -2.241   0.238  0.00  0.00    +0.030 A 
ATOM      6  C   UNL     1      -0.613  -0.941   0.262  0.00  0.00    +0.090 A 
ENDROOT
BRANCH   6   7
ATOM      7  N   UNL     1       0.213   0.123  -0.132  0.00  0.00    -0.216 N 
ATOM      8  C   UNL     1       0.970   0.163  -1.251  0.00  0.00    +0.137 A 
ATOM      9  C   UNL     1       1.627   1.391  -1.256  0.00  0.00    +0.111 A 
ATOM     10  C   UNL     1       1.225   2.080  -0.088  0.00  0.00    +0.155 A 
ATOM     11  N   UNL     1       0.391   1.322   0.567  0.00  0.00    -0.172 NA
BRANCH   8  12
ATOM     12  N   UNL     1       1.074  -0.827  -2.209  0.00  0.00    -0.342 N 
ATOM     13  H   UNL     1       1.726  -0.682  -3.083  0.00  0.00    +0.144 HD
ATOM     14  H   UNL     1       0.504  -1.762  -2.098  0.00  0.00    +0.144 HD
ENDBRANCH   8  12
BRANCH   9  15
ATOM     15  C   UNL     1       2.537   1.866  -2.255  0.00  0.00    +0.104 C 
ATOM     16  N   UNL     1       3.258   2.243  -3.047  0.00  0.00    -0.191 NA
ENDBRANCH   9  15
ENDBRANCH   6   7
BRANCH   1  17
ATOM     17  N   UNL     1      -2.416   0.613   0.695  0.00  0.00    -0.214 N 
ATOM     18  H   UNL     1      -2.103   1.332  -0.076  0.00  0.00    +0.174 HD
BRANCH  17  19
ATOM     19  S   UNL     1      -3.473   1.079   1.881  0.00  0.00    +0.072 S 
ATOM     20  O   UNL     1      -3.683   2.474   1.713  0.00  0.00    -0.150 OA
ATOM     21  O   UNL     1      -4.540   0.141   1.866  0.00  0.00    -0.150 OA
BRANCH  19  27
ATOM     22  C   UNL     1       0.020   1.391   7.601  0.00  0.00    +0.001 A 
ATOM     23  C   UNL     1       0.116   2.606   6.925  0.00  0.00    +0.001 A 
ATOM     24  C   UNL     1      -0.509   2.795   5.731  0.00  0.00    +0.008 A 
ATOM     25  C   UNL     1      -1.264   1.751   5.169  0.00  0.00    -0.016 A 
ATOM     26  C   UNL     1      -1.924   1.909   3.938  0.00  0.00    +0.037 A 
ATOM     27  C   UNL     1      -2.646   0.877   3.424  0.00  0.00    +0.109 A 
ATOM     28  C   UNL     1      -2.747  -0.337   4.103  0.00  0.00    +0.029 A 
ATOM     29  C   UNL     1      -2.116  -0.528   5.293  0.00  0.00    +0.010 A 
ATOM     30  C   UNL     1      -1.361   0.516   5.856  0.00  0.00    -0.018 A 
ATOM     31  C   UNL     1      -0.702   0.358   7.087  0.00  0.00    +0.008 A 
ENDBRANCH  19  27
ENDBRANCH  17  19
ENDBRANCH   1  17
TORSDOF 6
