REMARK  Name = ZINC35031945
REMARK  6 active torsions:
REMARK  status: ('A' for Active; 'I' for Inactive)
REMARK    1  A    between atoms: C_1  and  C_2
REMARK    2  A    between atoms: C_7  and  C_8
REMARK    3  A    between atoms: N_10  and  C_11
REMARK    4  A    between atoms: C_13  and  C_29
REMARK    5  A    between atoms: C_32  and  O_35
REMARK    6  A    between atoms: O_35  and  C_36
REMARK                            x       y       z     vdW  Elec       q    Type
REMARK                         _______ _______ _______ _____ _____    ______ ____
ROOT
ATOM      1  C   UNL     1       1.119   0.154   4.676  0.00  0.00    +0.169 C 
ATOM      2  C   UNL     1       1.426  -0.756   5.867  0.00  0.00    +0.076 C 
ATOM      3  C   UNL     1       0.187  -1.601   6.170  0.00  0.00    +0.144 C 
ATOM      4  C   UNL     1      -0.900  -0.620   6.553  0.00  0.00    +0.123 C 
ATOM      5  N   UNL     1      -1.560  -0.796   7.650  0.00  0.00    -0.233 NA
ATOM      6  C   UNL     1      -1.292  -1.819   8.520  0.00  0.00    +0.086 A 
ATOM      7  C   UNL     1      -2.093  -1.962   9.657  0.00  0.00    +0.029 A 
ATOM      8  C   UNL     1      -1.840  -2.974  10.559  0.00  0.00    +0.002 A 
ATOM      9  C   UNL     1      -0.793  -3.853  10.349  0.00  0.00    +0.002 A 
ATOM     10  C   UNL     1       0.005  -3.728   9.227  0.00  0.00    +0.025 A 
ATOM     11  C   UNL     1      -0.243  -2.720   8.309  0.00  0.00    +0.053 A 
ATOM     12  N   UNL     1       0.559  -2.638   7.142  0.00  0.00    -0.332 N 
ATOM     13  N   UNL     1      -1.120   0.468   5.742  0.00  0.00    -0.271 N 
ATOM     14  C   UNL     1      -0.183   0.875   4.874  0.00  0.00    +0.239 C 
ATOM     15  O   UNL     1      -0.398   1.872   4.218  0.00  0.00    -0.273 OA
ATOM     16  H   UNL     1       1.317  -3.224   6.991  0.00  0.00    +0.147 HD
ATOM     17  H   UNL     1      -1.963   0.946   5.799  0.00  0.00    +0.156 HD
ENDROOT
BRANCH   2  18
ATOM     18  C   UNL     1       1.774   0.084   7.069  0.00  0.00    -0.040 A 
ATOM     19  C   UNL     1       2.628  -0.414   8.035  0.00  0.00    +0.007 A 
ATOM     20  C   UNL     1       2.949   0.354   9.138  0.00  0.00    +0.046 A 
ATOM     21  C   UNL     1       2.413   1.626   9.275  0.00  0.00    +0.120 A 
ATOM     22  C   UNL     1       1.557   2.124   8.304  0.00  0.00    +0.046 A 
ATOM     23  C   UNL     1       1.244   1.354   7.200  0.00  0.00    +0.007 A 
BRANCH  21  24
ATOM     24  O   UNL     1       2.727   2.384  10.359  0.00  0.00    -0.495 OA
ATOM     25  C   UNL     1       2.139   3.684  10.434  0.00  0.00    +0.277 C 
ENDBRANCH  21  24
ENDBRANCH   2  18
BRANCH   1  28
ATOM     26  C   UNL     1       1.296  -0.098   2.259  0.00  0.00    +0.245 C 
ATOM     27  O   UNL     1       1.592   1.079   2.187  0.00  0.00    -0.270 OA
ATOM     28  N   UNL     1       1.040  -0.656   3.458  0.00  0.00    -0.299 N 
ATOM     29  H   UNL     1       0.804  -1.595   3.515  0.00  0.00    +0.150 HD
BRANCH  26  36
ATOM     30  C   UNL     1       1.563   1.173  -0.327  0.00  0.00    +0.044 C 
ATOM     31  C   UNL     1       1.344  -0.314  -0.223  0.00  0.00    -0.038 A 
ATOM     32  C   UNL     1       1.274  -1.084  -1.365  0.00  0.00    +0.004 A 
ATOM     33  C   UNL     1       1.073  -2.450  -1.271  0.00  0.00    +0.000 A 
ATOM     34  C   UNL     1       0.940  -3.052  -0.033  0.00  0.00    +0.001 A 
ATOM     35  C   UNL     1       1.008  -2.294   1.117  0.00  0.00    +0.013 A 
ATOM     36  C   UNL     1       1.216  -0.916   1.030  0.00  0.00    +0.040 A 
ENDBRANCH  26  36
ENDBRANCH   1  28
TORSDOF 4
