REMARK  Name = ZINC59461857
REMARK  7 active torsions:
REMARK  status: ('A' for Active; 'I' for Inactive)
REMARK    1  A    between atoms: C_1  and  C_2
REMARK    2  A    between atoms: C_3  and  C_19
REMARK    3  A    between atoms: C_9  and  C_12
REMARK    4  A    between atoms: C_19  and  C_21
REMARK    5  A    between atoms: C_19  and  C_28
REMARK    6  A    between atoms: C_28  and  C_30
REMARK    7  A    between atoms: C_28  and  C_32
REMARK                            x       y       z     vdW  Elec       q    Type
REMARK                         _______ _______ _______ _____ _____    ______ ____
ROOT
ATOM      1  C   UNL     1       0.098   1.242   0.424  0.00  0.00    +0.065 C 
ATOM      2  C   UNL     1      -0.515   1.534  -0.921  0.00  0.00    +0.039 A 
ATOM      3  C   UNL     1      -0.769   2.760  -1.423  0.00  0.00    +0.048 A 
ATOM      4  C   UNL     1      -1.343   2.599  -2.705  0.00  0.00    +0.277 A 
ATOM      5  N   UNL     1      -1.426   1.276  -2.953  0.00  0.00    -0.194 N 
ATOM      6  N   UNL     1      -0.903   0.602  -1.841  0.00  0.00    -0.292 N 
ATOM      7  C   UNL     1      -1.933   0.688  -4.104  0.00  0.00    +0.196 A 
ATOM      8  N   UNL     1      -2.047  -0.592  -4.407  0.00  0.00    -0.221 NA
ATOM      9  C   UNL     1      -2.561  -0.981  -5.565  0.00  0.00    +0.080 A 
ATOM     10  C   UNL     1      -2.980  -0.039  -6.463  0.00  0.00    +0.077 A 
ATOM     11  S   UNL     1      -2.611   1.463  -5.565  0.00  0.00    -0.056 S 
ATOM     12  O   UNL     1      -1.700   3.494  -3.451  0.00  0.00    -0.265 OA
ATOM     13  H   UNL     1      -0.831  -0.360  -1.742  0.00  0.00    +0.187 HD
ENDROOT
BRANCH   9  14
ATOM     14  C   UNL     1      -2.679  -2.424  -5.884  0.00  0.00    +0.001 A 
ATOM     15  C   UNL     1      -3.214  -2.829  -7.106  0.00  0.00    +0.010 A 
ATOM     16  C   UNL     1      -3.322  -4.174  -7.397  0.00  0.00    +0.001 A 
ATOM     17  C   UNL     1      -2.900  -5.119  -6.479  0.00  0.00    +0.000 A 
ATOM     18  C   UNL     1      -2.369  -4.723  -5.265  0.00  0.00    +0.001 A 
ATOM     19  C   UNL     1      -2.250  -3.381  -4.966  0.00  0.00    +0.010 A 
ENDBRANCH   9  14
BRANCH   3  20
ATOM     20  C   UNL     1      -0.488   4.072  -0.737  0.00  0.00    +0.082 C 
BRANCH  20  21
ATOM     21  C   UNL     1       0.527   4.849  -1.535  0.00  0.00    -0.038 A 
ATOM     22  C   UNL     1       0.152   5.473  -2.710  0.00  0.00    +0.005 A 
ATOM     23  C   UNL     1       1.082   6.186  -3.442  0.00  0.00    +0.015 A 
ATOM     24  C   UNL     1       2.389   6.276  -2.999  0.00  0.00    +0.018 A 
ATOM     25  C   UNL     1       2.764   5.651  -1.823  0.00  0.00    +0.015 A 
ATOM     26  C   UNL     1       1.832   4.943  -1.089  0.00  0.00    +0.005 A 
ATOM     27 BR   UNL     1       3.663   7.251  -4.000  0.00  0.00    -0.050 Br
ENDBRANCH  20  21
BRANCH  20  28
ATOM     28  C   UNL     1      -1.783   4.881  -0.634  0.00  0.00    +0.189 C 
BRANCH  28  29
ATOM     29  C   UNL     1      -2.798   4.104   0.164  0.00  0.00    +0.228 C 
ATOM     30  O   UNL     1      -3.250   4.570   1.188  0.00  0.00    -0.275 OA
ATOM     31  N   UNL     1      -3.205   2.891  -0.262  0.00  0.00    -0.328 N 
ATOM     32  H   UNL     1      -2.844   2.518  -1.081  0.00  0.00    +0.145 HD
ATOM     33  H   UNL     1      -3.858   2.391   0.252  0.00  0.00    +0.145 HD
ENDBRANCH  28  29
BRANCH  28  34
ATOM     34  C   UNL     1      -1.509   6.162   0.036  0.00  0.00    +0.076 C 
ATOM     35  N   UNL     1      -1.298   7.152   0.553  0.00  0.00    -0.196 NA
ENDBRANCH  28  34
ENDBRANCH  20  28
ENDBRANCH   3  20
TORSDOF 6
