REMARK  Name = ZINC66595390
REMARK  7 active torsions:
REMARK  status: ('A' for Active; 'I' for Inactive)
REMARK    1  A    between atoms: C_1  and  C_2
REMARK    2  A    between atoms: C_5  and  C_9
REMARK    3  A    between atoms: C_6  and  C_8
REMARK    4  A    between atoms: C_9  and  C_10
REMARK    5  A    between atoms: C_10  and  C_12
REMARK    6  A    between atoms: C_10  and  N_13
REMARK    7  A    between atoms: N_16  and  C_17
REMARK                            x       y       z     vdW  Elec       q    Type
REMARK                         _______ _______ _______ _____ _____    ______ ____
ROOT
ATOM      1  C   UNL     1      -1.370  -4.804   0.109  0.00  0.00    +0.076 C 
ATOM      2  C   UNL     1      -1.341  -6.330   0.226  0.00  0.00    +0.028 C 
ENDROOT
BRANCH   1   3
ATOM      3  N   UNL     1      -2.143  -4.420  -1.074  0.00  0.00    -0.296 N 
ATOM      4  C   UNL     1      -3.484  -4.311  -0.997  0.00  0.00    +0.306 C 
ATOM      5  O   UNL     1      -4.053  -4.532   0.055  0.00  0.00    -0.252 OA
ATOM      6  N   UNL     1      -4.196  -3.958  -2.086  0.00  0.00    -0.240 N 
ATOM      7  H   UNL     1      -1.690  -4.245  -1.914  0.00  0.00    +0.151 HD
ATOM      8  H   UNL     1      -3.742  -3.782  -2.925  0.00  0.00    +0.159 HD
BRANCH   6   9
ATOM      9  C   UNL     1      -5.584  -3.845  -2.006  0.00  0.00    +0.193 A 
ATOM     10  C   UNL     1      -6.411  -3.505  -3.021  0.00  0.00    +0.066 A 
ATOM     11  C   UNL     1      -7.724  -3.514  -2.498  0.00  0.00    +0.043 A 
ATOM     12  C   UNL     1      -7.627  -3.856  -1.201  0.00  0.00    +0.197 A 
ATOM     13  O   UNL     1      -6.329  -4.061  -0.909  0.00  0.00    -0.449 OA
ENDBRANCH   6   9
ENDBRANCH   1   3
BRANCH   1  14
ATOM     14  C   UNL     1       0.059  -4.275  -0.021  0.00  0.00    +0.057 C 
BRANCH  14  19
ATOM     15  C   UNL     1      -0.018   1.503   0.010  0.00  0.00    +0.044 C 
ATOM     16  C   UNL     1       0.002  -0.004   0.002  0.00  0.00    -0.050 A 
ATOM     17  C   UNL     1       0.006  -0.689  -1.199  0.00  0.00    +0.003 A 
ATOM     18  C   UNL     1       0.025  -2.071  -1.207  0.00  0.00    +0.004 A 
ATOM     19  C   UNL     1       0.040  -2.768  -0.013  0.00  0.00    -0.043 A 
ATOM     20  C   UNL     1       0.037  -2.084   1.188  0.00  0.00    -0.047 A 
ATOM     21  C   UNL     1       0.023  -0.702   1.195  0.00  0.00    +0.007 A 
ATOM     22  C   UNL     1       0.054  -2.845   2.489  0.00  0.00    +0.044 C 
ENDBRANCH  14  19
ENDBRANCH   1  14
TORSDOF 4
