REMARK  Name = ZINC47521277
REMARK  5 active torsions:
REMARK  status: ('A' for Active; 'I' for Inactive)
REMARK    1  A    between atoms: C_1  and  O_2
REMARK    2  A    between atoms: O_2  and  C_3
REMARK    3  A    between atoms: C_4  and  N_9
REMARK    4  A    between atoms: N_9  and  S_10
REMARK    5  A    between atoms: S_10  and  C_13
REMARK                            x       y       z     vdW  Elec       q    Type
REMARK                         _______ _______ _______ _____ _____    ______ ____
ROOT
ATOM      1  S   UNL     1       0.144  -4.432  -0.204  0.00  0.00    +0.092 S 
ATOM      2  O   UNL     1      -0.653  -4.806  -1.320  0.00  0.00    -0.148 OA
ATOM      3  O   UNL     1       1.514  -4.794  -0.091  0.00  0.00    -0.148 OA
ENDROOT
BRANCH   1   4
ATOM      4  C   UNL     1      -0.664  -5.066   1.227  0.00  0.00    +0.111 A 
ATOM      5  C   UNL     1       0.075  -5.302   2.385  0.00  0.00    +0.029 A 
ATOM      6  C   UNL     1      -0.518  -5.792   3.508  0.00  0.00    +0.010 A 
ATOM      7  C   UNL     1      -1.897  -6.064   3.503  0.00  0.00    -0.018 A 
ATOM      8  C   UNL     1      -2.545  -6.570   4.643  0.00  0.00    +0.008 A 
ATOM      9  C   UNL     1      -3.881  -6.822   4.602  0.00  0.00    +0.001 A 
ATOM     10  C   UNL     1      -4.621  -6.586   3.444  0.00  0.00    +0.001 A 
ATOM     11  C   UNL     1      -4.027  -6.096   2.321  0.00  0.00    +0.008 A 
ATOM     12  C   UNL     1      -2.648  -5.824   2.326  0.00  0.00    -0.016 A 
ATOM     13  C   UNL     1      -2.002  -5.313   1.188  0.00  0.00    +0.037 A 
ENDBRANCH   1   4
BRANCH   1  14
ATOM     14  N   UNL     1       0.082  -2.780  -0.111  0.00  0.00    -0.092 NA
BRANCH  14  16
ATOM     15  C   UNL     1       0.605  -0.607  -1.055  0.00  0.00    +0.240 A 
ATOM     16  C   UNL     1       0.652  -2.000  -1.123  0.00  0.00    +0.136 A 
ATOM     17  C   UNL     1       1.273  -2.600  -2.211  0.00  0.00    +0.033 A 
ATOM     18  C   UNL     1       1.824  -1.784  -3.190  0.00  0.00    +0.022 A 
ATOM     19  C   UNL     1       1.739  -0.414  -3.055  0.00  0.00    +0.115 A 
ATOM     20  N   UNL     1       1.138   0.131  -2.012  0.00  0.00    -0.220 NA
BRANCH  15  22
ATOM     21  C   UNL     1      -0.017   1.425   0.010  0.00  0.00    +0.279 C 
ATOM     22  O   UNL     1       0.002  -0.004   0.002  0.00  0.00    -0.478 OA
ENDBRANCH  15  22
ENDBRANCH  14  16
ENDBRANCH   1  14
TORSDOF 4
