REMARK  Name = ZINC66088020
REMARK  12 active torsions:
REMARK  status: ('A' for Active; 'I' for Inactive)
REMARK    1  A    between atoms: C_1  and  C_2
REMARK    2  A    between atoms: C_2  and  C_3
REMARK    3  A    between atoms: C_2  and  C_4
REMARK    4  A    between atoms: C_2  and  C_5
REMARK    5  A    between atoms: N_7  and  C_8
REMARK    6  A    between atoms: C_12  and  N_14
REMARK    7  A    between atoms: N_14  and  C_15
REMARK    8  A    between atoms: C_15  and  C_16
REMARK    9  A    between atoms: N_18  and  C_19
REMARK   10  A    between atoms: C_22  and  C_25
REMARK   11  A    between atoms: N_27  and  C_28
REMARK   12  A    between atoms: C_28  and  C_29
REMARK                            x       y       z     vdW  Elec       q    Type
REMARK                         _______ _______ _______ _____ _____    ______ ____
ROOT
ATOM      1  C   UNL     1       3.593  -7.235  -5.429  0.00  0.00    +0.234 C 
ATOM      2  O   UNL     1       3.160  -7.912  -4.521  0.00  0.00    -0.274 OA
ATOM      3  N   UNL     1       4.105  -7.827  -6.526  0.00  0.00    -0.284 N 
ATOM      4  H   UNL     1       4.518  -7.289  -7.219  0.00  0.00    +0.155 HD
ENDROOT
BRANCH   3   5
ATOM      5  C   UNL     1       4.042  -9.213  -6.664  0.00  0.00    +0.033 A 
ATOM      6  C   UNL     1       2.951  -9.912  -6.157  0.00  0.00    +0.024 A 
ATOM      7  C   UNL     1       2.885 -11.281  -6.292  0.00  0.00    +0.015 A 
ATOM      8  C   UNL     1       3.915 -11.968  -6.939  0.00  0.00    +0.037 A 
ATOM      9  C   UNL     1       5.009 -11.263  -7.448  0.00  0.00    +0.015 A 
ATOM     10  C   UNL     1       5.067  -9.894  -7.314  0.00  0.00    +0.024 A 
BRANCH   8  11
ATOM     11  C   UNL     1       3.848 -13.435  -7.085  0.00  0.00    +0.244 C 
ATOM     12  O   UNL     1       2.896 -14.047  -6.642  0.00  0.00    -0.270 OA
ATOM     13  N   UNL     1       4.843 -14.096  -7.710  0.00  0.00    -0.304 N 
ATOM     14  H   UNL     1       5.602 -13.608  -8.064  0.00  0.00    +0.149 HD
BRANCH  13  15
ATOM     15  C   UNL     1       4.776 -15.553  -7.855  0.00  0.00    +0.179 C 
BRANCH  15  16
ATOM     16  C   UNL     1       6.001 -16.041  -8.584  0.00  0.00    +0.122 A 
ATOM     17  C   UNL     1       7.158 -16.420  -8.012  0.00  0.00    +0.046 A 
ATOM     18  C   UNL     1       8.027 -16.802  -9.060  0.00  0.00    +0.041 A 
ATOM     19  C   UNL     1       7.349 -16.634 -10.210  0.00  0.00    +0.195 A 
ATOM     20  O   UNL     1       6.120 -16.178  -9.915  0.00  0.00    -0.466 OA
ENDBRANCH  15  16
ENDBRANCH  13  15
ENDBRANCH   8  11
ENDBRANCH   3   5
BRANCH   1  21
ATOM     21  C   UNL     1       3.558  -5.732  -5.331  0.00  0.00    +0.198 C 
BRANCH  21  22
ATOM     22  N   UNL     1       2.958  -5.340  -4.053  0.00  0.00    -0.335 N 
ATOM     23  H   UNL     1       2.659  -6.019  -3.428  0.00  0.00    +0.147 HD
BRANCH  22  28
ATOM     24  C   UNL     1       2.112  -2.271  -2.209  0.00  0.00    +0.035 A 
ATOM     25  C   UNL     1       2.543  -1.302  -3.107  0.00  0.00    +0.023 A 
ATOM     26  C   UNL     1       3.107  -1.675  -4.311  0.00  0.00    +0.004 A 
ATOM     27  C   UNL     1       3.246  -3.013  -4.626  0.00  0.00    +0.023 A 
ATOM     28  C   UNL     1       2.818  -3.987  -3.733  0.00  0.00    +0.029 A 
ATOM     29  C   UNL     1       2.255  -3.615  -2.520  0.00  0.00    +0.046 A 
BRANCH  24  32
ATOM     30  C   UNL     1       1.765  -2.625   0.118  0.00  0.00    +0.223 C 
ATOM     31  O   UNL     1       2.395  -3.659   0.043  0.00  0.00    -0.275 OA
ATOM     32  N   UNL     1       1.540  -1.891  -0.990  0.00  0.00    -0.285 N 
ATOM     33  H   UNL     1       0.980  -1.100  -0.942  0.00  0.00    +0.155 HD
BRANCH  30  35
ATOM     34  C   UNL     1       1.628  -3.166   2.534  0.00  0.00    +0.020 C 
ATOM     35  C   UNL     1       1.236  -2.160   1.450  0.00  0.00    +0.039 C 
ATOM     36  C   UNL     1      -0.289  -2.051   1.383  0.00  0.00    +0.020 C 
ATOM     37  C   UNL     1       1.831  -0.791   1.786  0.00  0.00    +0.020 C 
ENDBRANCH  30  35
ENDBRANCH  24  32
ENDBRANCH  22  28
ENDBRANCH  21  22
ENDBRANCH   1  21
TORSDOF 9
