REMARK  Name = ZINC66396418
REMARK  11 active torsions:
REMARK  status: ('A' for Active; 'I' for Inactive)
REMARK    1  A    between atoms: C_1  and  C_2
REMARK    2  A    between atoms: C_2  and  C_3
REMARK    3  A    between atoms: C_2  and  C_4
REMARK    4  A    between atoms: C_2  and  C_5
REMARK    5  A    between atoms: C_8  and  C_11
REMARK    6  A    between atoms: C_11  and  C_13
REMARK    7  A    between atoms: C_11  and  N_15
REMARK    8  A    between atoms: C_16  and  C_18
REMARK    9  A    between atoms: C_18  and  C_19
REMARK   10  A    between atoms: C_19  and  C_21
REMARK   11  A    between atoms: C_19  and  N_26
REMARK                            x       y       z     vdW  Elec       q    Type
REMARK                         _______ _______ _______ _____ _____    ______ ____
ROOT
ATOM      1  N   UNL     1       4.082  -2.245  -4.415  0.00  0.00    -0.296 N 
ATOM      2  C   UNL     1       4.739  -3.145  -5.173  0.00  0.00    +0.216 C 
ATOM      3  O   UNL     1       4.192  -3.643  -6.135  0.00  0.00    -0.276 OA
ATOM      4  H   UNL     1       4.519  -1.848  -3.646  0.00  0.00    +0.150 HD
ENDROOT
BRANCH   1   5
ATOM      5  C   UNL     1       2.707  -1.868  -4.752  0.00  0.00    +0.207 C 
BRANCH   5   9
ATOM      6  C   UNL     1       0.707  -0.490  -1.238  0.00  0.00    -0.042 A 
ATOM      7  C   UNL     1       0.036  -1.284  -2.148  0.00  0.00    +0.004 A 
ATOM      8  C   UNL     1       0.683  -1.730  -3.286  0.00  0.00    +0.007 A 
ATOM      9  C   UNL     1       2.001  -1.381  -3.513  0.00  0.00    -0.013 A 
ATOM     10  C   UNL     1       2.672  -0.586  -2.603  0.00  0.00    +0.007 A 
ATOM     11  C   UNL     1       2.024  -0.137  -1.467  0.00  0.00    +0.004 A 
BRANCH   6  13
ATOM     12  C   UNL     1      -0.019   1.526   0.010  0.00  0.00    +0.015 C 
ATOM     13  C   UNL     1       0.002  -0.004   0.002  0.00  0.00    -0.013 C 
ATOM     14  C   UNL     1       0.742  -0.511   1.242  0.00  0.00    +0.015 C 
ATOM     15  C   UNL     1      -1.433  -0.534   0.013  0.00  0.00    +0.015 C 
ENDBRANCH   6  13
ENDBRANCH   5   9
BRANCH   5  16
ATOM     16  C   UNL     1       2.726  -0.795  -5.760  0.00  0.00    +0.090 C 
ATOM     17  N   UNL     1       2.740   0.033  -6.537  0.00  0.00    -0.194 NA
ENDBRANCH   5  16
ENDBRANCH   1   5
BRANCH   2  18
ATOM     18  C   UNL     1       6.153  -3.534  -4.826  0.00  0.00    +0.123 C 
BRANCH  18  19
ATOM     19  C   UNL     1       6.662  -4.562  -5.838  0.00  0.00    +0.120 C 
BRANCH  19  20
ATOM     20  N   UNL     1       5.881  -5.796  -5.715  0.00  0.00    -0.292 N 
ATOM     21  C   UNL     1       5.774  -6.633  -6.766  0.00  0.00    +0.298 C 
ATOM     22  O   UNL     1       6.325  -6.364  -7.816  0.00  0.00    -0.253 OA
ATOM     23  N   UNL     1       5.055  -7.767  -6.653  0.00  0.00    -0.313 N 
ATOM     24  H   UNL     1       5.440  -6.010  -4.878  0.00  0.00    +0.151 HD
ATOM     25  H   UNL     1       4.614  -7.981  -5.816  0.00  0.00    +0.146 HD
ATOM     26  H   UNL     1       4.978  -8.370  -7.410  0.00  0.00    +0.146 HD
ENDBRANCH  19  20
BRANCH  19  27
ATOM     27  C   UNL     1       8.114  -4.859  -5.565  0.00  0.00    +0.010 A 
ATOM     28  C   UNL     1       9.216  -4.374  -6.188  0.00  0.00    +0.013 A 
ATOM     29  C   UNL     1      10.464  -4.790  -5.763  0.00  0.00    +0.008 A 
ATOM     30  C   UNL     1      10.549  -5.671  -4.737  0.00  0.00    +0.045 A 
ATOM     31  S   UNL     1       8.830  -5.935  -4.333  0.00  0.00    -0.100 S 
ENDBRANCH  19  27
ENDBRANCH  18  19
ENDBRANCH   2  18
TORSDOF 8
