REMARK  Name = ZINC28563400
REMARK  7 active torsions:
REMARK  status: ('A' for Active; 'I' for Inactive)
REMARK    1  A    between atoms: C_1  and  C_2
REMARK    2  A    between atoms: C_5  and  C_31
REMARK    3  A    between atoms: N_8  and  C_10
REMARK    4  A    between atoms: C_11  and  C_29
REMARK    5  A    between atoms: C_12  and  C_25
REMARK    6  A    between atoms: C_18  and  S_21
REMARK    7  A    between atoms: S_21  and  N_24
REMARK                            x       y       z     vdW  Elec       q    Type
REMARK                         _______ _______ _______ _____ _____    ______ ____
ROOT
ATOM      1  C   UNL     1      -0.180   1.038  -2.334  0.00  0.00    +0.145 A 
ATOM      2  C   UNL     1       1.131   1.186  -2.778  0.00  0.00    +0.123 A 
ATOM      3  C   UNL     1       1.241   0.473  -3.995  0.00  0.00    +0.185 A 
ATOM      4  N   UNL     1       0.083  -0.062  -4.263  0.00  0.00    -0.158 NA
ATOM      5  N   UNL     1      -0.823   0.265  -3.248  0.00  0.00    -0.199 N 
ATOM      6  C   UNL     1      -2.161  -0.133  -3.186  0.00  0.00    +0.156 A 
ATOM      7  C   UNL     1      -2.840  -0.448  -4.356  0.00  0.00    +0.050 A 
ATOM      8  C   UNL     1      -4.163  -0.846  -4.280  0.00  0.00    +0.034 A 
ATOM      9  C   UNL     1      -4.767  -0.904  -3.031  0.00  0.00    +0.123 A 
ATOM     10  C   UNL     1      -4.032  -0.572  -1.910  0.00  0.00    +0.141 A 
ATOM     11  N   UNL     1      -2.771  -0.201  -2.014  0.00  0.00    -0.234 NA
ENDROOT
BRANCH   1  17
ATOM     12  C   UNL     1      -1.453   5.121  -0.054  0.00  0.00    +0.009 C 
ATOM     13  C   UNL     1      -1.466   3.591  -0.011  0.00  0.00    +0.004 C 
ATOM     14  C   UNL     1      -0.764   3.110   1.262  0.00  0.00    +0.009 C 
ATOM     15  C   UNL     1      -0.729   1.579   1.267  0.00  0.00    +0.004 C 
ATOM     16  C   UNL     1      -0.013   1.086   0.008  0.00  0.00    +0.109 C 
ATOM     17  N   UNL     1      -0.723   1.572  -1.182  0.00  0.00    -0.314 N 
ATOM     18  C   UNL     1      -0.729   3.040  -1.234  0.00  0.00    +0.109 C 
ATOM     19  C   UNL     1      -2.158   1.035   1.289  0.00  0.00    +0.009 C 
ENDBRANCH   1  17
BRANCH   3  20
ATOM     20  C   UNL     1       2.484   0.354  -4.838  0.00  0.00    +0.437 C 
ATOM     21  F   UNL     1       3.216  -0.767  -4.433  0.00  0.00    -0.164 F 
ATOM     22  F   UNL     1       2.123   0.215  -6.183  0.00  0.00    -0.164 F 
ATOM     23  F   UNL     1       3.266   1.504  -4.681  0.00  0.00    -0.164 F 
ENDBRANCH   3  20
BRANCH   9  24
ATOM     24  S   UNL     1      -6.451  -1.398  -2.878  0.00  0.00    +0.057 S 
ATOM     25  O   UNL     1      -6.751  -2.180  -4.026  0.00  0.00    -0.153 OA
ATOM     26  O   UNL     1      -6.611  -1.894  -1.556  0.00  0.00    -0.153 OA
BRANCH  24  27
ATOM     27  N   UNL     1      -7.375  -0.028  -2.985  0.00  0.00    -0.203 NA
ATOM     28  H   UNL     1      -8.438  -0.294  -2.893  0.00  0.00    +0.144 HD
ATOM     29  H   UNL     1      -7.200   0.457  -3.957  0.00  0.00    +0.144 HD
ENDBRANCH  24  27
ENDBRANCH   9  24
BRANCH   2  30
ATOM     30  C   UNL     1       2.173   1.921  -2.125  0.00  0.00    +0.105 C 
ATOM     31  N   UNL     1       2.999   2.503  -1.607  0.00  0.00    -0.191 NA
ENDBRANCH   2  30
TORSDOF 5
