REMARK  Name = ZINC05013885
REMARK  10 active torsions:
REMARK  status: ('A' for Active; 'I' for Inactive)
REMARK    1  A    between atoms: C_1  and  C_2
REMARK    2  A    between atoms: C_2  and  O_3
REMARK    3  A    between atoms: O_3  and  C_4
REMARK    4  A    between atoms: C_9  and  S_10
REMARK    5  A    between atoms: S_10  and  N_13
REMARK    6  A    between atoms: N_13  and  C_14
REMARK    7  A    between atoms: C_16  and  C_21
REMARK    8  A    between atoms: C_16  and  C_22
REMARK    9  A    between atoms: C_17  and  C_19
REMARK   10  A    between atoms: C_17  and  C_20
REMARK                            x       y       z     vdW  Elec       q    Type
REMARK                         _______ _______ _______ _____ _____    ______ ____
ROOT
ATOM      1  N   UNL     1       1.482   3.176  -3.597  0.00  0.00    -0.187 NA
ATOM      2  H   UNL     1       2.004   2.591  -4.169  0.00  0.00    +0.148 HD
ENDROOT
BRANCH   1   3
ATOM      3  C   UNL     1       1.023   2.702  -2.285  0.00  0.00    +0.074 C 
ATOM      4  C   UNL     1       2.093   1.797  -1.675  0.00  0.00    +0.007 C 
ATOM      5  C   UNL     1       1.632   1.272  -0.317  0.00  0.00    -0.072 C 
ATOM      6  C   UNL     1      -0.746   1.362  -1.117  0.00  0.00    -0.072 C 
ATOM      7  C   UNL     1      -0.258   1.888  -2.465  0.00  0.00    +0.007 C 
ATOM      8  C   UNL     1      -1.855   0.323  -1.398  0.00  0.00    -0.010 C 
ATOM      9  C   UNL     1      -1.387   2.506  -0.322  0.00  0.00    -0.010 C 
ATOM     10  C   UNL     1       1.739   2.389   0.728  0.00  0.00    -0.010 C 
ATOM     11  C   UNL     1       2.612   0.155   0.106  0.00  0.00    -0.010 C 
ATOM     12  N   UNL     1       0.281   0.649  -0.312  0.00  0.00    +0.386 N 
ATOM     13  H   UNL     1      -0.047   0.610   0.660  0.00  0.00    -0.084 HD
ATOM     14  H   UNL     1       0.370  -0.305  -0.682  0.00  0.00    -0.084 HD
ENDBRANCH   1   3
BRANCH   1  15
ATOM     15  S   UNL     1       1.110   4.709  -4.100  0.00  0.00    +0.062 S 
ATOM     16  O   UNL     1       1.723   4.880  -5.370  0.00  0.00    -0.153 OA
ATOM     17  O   UNL     1      -0.287   4.874  -3.901  0.00  0.00    -0.153 OA
BRANCH  15  23
ATOM     18  C   UNL     1       3.296   5.871  -2.941  0.00  0.00    +0.147 A 
ATOM     19  C   UNL     1       3.925   6.757  -2.078  0.00  0.00    +0.049 A 
ATOM     20  C   UNL     1       3.171   7.586  -1.270  0.00  0.00    +0.024 A 
ATOM     21  C   UNL     1       1.789   7.537  -1.326  0.00  0.00    +0.043 A 
ATOM     22  C   UNL     1       1.160   6.659  -2.191  0.00  0.00    +0.052 A 
ATOM     23  C   UNL     1       1.911   5.828  -2.999  0.00  0.00    +0.148 A 
ATOM     24 CL   UNL     1       0.843   8.580  -0.310  0.00  0.00    -0.083 Cl
BRANCH  18  25
ATOM     25  O   UNL     1       4.037   5.050  -3.732  0.00  0.00    -0.490 OA
BRANCH  25  27
ATOM     26  C   UNL     1       6.117   4.137  -4.555  0.00  0.00    +0.048 C 
ATOM     27  C   UNL     1       5.453   5.072  -3.543  0.00  0.00    +0.226 C 
ENDBRANCH  25  27
ENDBRANCH  18  25
ENDBRANCH  15  23
ENDBRANCH   1  15
TORSDOF 5
