REMARK  Name = ZINC46773323
REMARK  14 active torsions:
REMARK  status: ('A' for Active; 'I' for Inactive)
REMARK    1  A    between atoms: C_1  and  C_2
REMARK    2  A    between atoms: C_2  and  O_3
REMARK    3  A    between atoms: O_3  and  C_4
REMARK    4  A    between atoms: C_7  and  C_13
REMARK    5  A    between atoms: C_9  and  O_10
REMARK    6  A    between atoms: O_10  and  C_11
REMARK    7  A    between atoms: C_11  and  C_12
REMARK    8  A    between atoms: N_15  and  C_16
REMARK    9  A    between atoms: C_16  and  C_17
REMARK   10  A    between atoms: N_19  and  N_20
REMARK   11  A    between atoms: N_20  and  C_21
REMARK   12  A    between atoms: C_21  and  N_23
REMARK   13  A    between atoms: N_23  and  C_24
REMARK   14  A    between atoms: C_29  and  C_30
REMARK                            x       y       z     vdW  Elec       q    Type
REMARK                         _______ _______ _______ _____ _____    ______ ____
ROOT
ATOM      1  C   UNL     1       0.009  -8.988   0.193  0.00  0.00    +0.246 C 
ATOM      2  O   UNL     1      -0.786  -8.368   0.868  0.00  0.00    -0.273 OA
ATOM      3  N   UNL     1       0.005 -10.336   0.215  0.00  0.00    -0.234 N 
ATOM      4  H   UNL     1       0.640 -10.832  -0.324  0.00  0.00    +0.173 HD
ENDROOT
BRANCH   3   5
ATOM      5  N   UNL     1      -0.917 -11.020   1.018  0.00  0.00    -0.246 N 
ATOM      6  H   UNL     1      -1.553 -10.524   1.558  0.00  0.00    +0.172 HD
BRANCH   5   7
ATOM      7  C   UNL     1      -0.921 -12.368   1.040  0.00  0.00    +0.151 C 
ATOM      8  S   UNL     1      -2.048 -13.204   2.021  0.00  0.00    -0.017 S 
BRANCH   7   9
ATOM      9  N   UNL     1      -0.038 -13.057   0.291  0.00  0.00    -0.296 N 
ATOM     10  H   UNL     1       0.546 -12.587  -0.325  0.00  0.00    +0.154 HD
BRANCH   9  11
ATOM     11  C   UNL     1       0.035 -14.450   0.400  0.00  0.00    +0.037 A 
ATOM     12  C   UNL     1       0.025 -15.051   1.652  0.00  0.00    +0.023 A 
ATOM     13  C   UNL     1       0.097 -16.426   1.757  0.00  0.00    +0.003 A 
ATOM     14  C   UNL     1       0.180 -17.205   0.618  0.00  0.00    +0.020 A 
ATOM     15  C   UNL     1       0.191 -16.610  -0.632  0.00  0.00    +0.046 A 
ATOM     16  C   UNL     1       0.113 -15.234  -0.743  0.00  0.00    -0.011 A 
ATOM     17  C   UNL     1       0.117 -14.586  -2.104  0.00  0.00    +0.047 C 
ATOM     18 CL   UNL     1       0.296 -17.591  -2.060  0.00  0.00    -0.083 Cl
ENDBRANCH   9  11
ENDBRANCH   7   9
ENDBRANCH   5   7
ENDBRANCH   3   5
BRANCH   1  19
ATOM     19  C   UNL     1       1.000  -8.252  -0.671  0.00  0.00    +0.202 C 
BRANCH  19  22
ATOM     20  C   UNL     1       1.581  -5.946  -1.202  0.00  0.00    +0.245 C 
ATOM     21  O   UNL     1       2.449  -6.366  -1.943  0.00  0.00    -0.270 OA
ATOM     22  N   UNL     1       0.802  -6.808  -0.520  0.00  0.00    -0.303 N 
ATOM     23  H   UNL     1       0.109  -6.473   0.071  0.00  0.00    +0.150 HD
BRANCH  20  27
ATOM     24  C   UNL     1       1.001  -1.759  -0.761  0.00  0.00    +0.162 A 
ATOM     25  C   UNL     1       0.199  -2.649  -0.059  0.00  0.00    +0.050 A 
ATOM     26  C   UNL     1       0.384  -4.007  -0.200  0.00  0.00    +0.017 A 
ATOM     27  C   UNL     1       1.381  -4.492  -1.051  0.00  0.00    +0.040 A 
ATOM     28  C   UNL     1       2.188  -3.596  -1.757  0.00  0.00    +0.062 A 
ATOM     29  C   UNL     1       1.994  -2.236  -1.615  0.00  0.00    +0.163 A 
BRANCH  24  30
ATOM     30  O   UNL     1       0.814  -0.422  -0.619  0.00  0.00    -0.489 OA
BRANCH  30  32
ATOM     31  C   UNL     1      -0.280   1.526   0.302  0.00  0.00    +0.048 C 
ATOM     32  C   UNL     1      -0.220  -0.002   0.273  0.00  0.00    +0.226 C 
ENDBRANCH  30  32
ENDBRANCH  24  30
BRANCH  29  33
ATOM     33  O   UNL     1       2.775  -1.362  -2.305  0.00  0.00    -0.489 OA
BRANCH  33  34
ATOM     34  C   UNL     1       3.772  -1.920  -3.163  0.00  0.00    +0.226 C 
ATOM     35  C   UNL     1       4.545  -0.792  -3.849  0.00  0.00    +0.048 C 
ENDBRANCH  33  34
ENDBRANCH  29  33
ENDBRANCH  20  27
ENDBRANCH  19  22
ENDBRANCH   1  19
TORSDOF 11
