REMARK  Name = ZINC38984688
REMARK  9 active torsions:
REMARK  status: ('A' for Active; 'I' for Inactive)
REMARK    1  A    between atoms: C_1  and  C_2
REMARK    2  A    between atoms: C_5  and  C_8
REMARK    3  A    between atoms: C_8  and  S_9
REMARK    4  A    between atoms: S_9  and  C_10
REMARK    5  A    between atoms: C_14  and  C_18
REMARK    6  A    between atoms: N_16  and  N_17
REMARK    7  A    between atoms: C_21  and  C_24
REMARK    8  A    between atoms: C_27  and  O_30
REMARK    9  A    between atoms: O_30  and  C_31
REMARK                            x       y       z     vdW  Elec       q    Type
REMARK                         _______ _______ _______ _____ _____    ______ ____
ROOT
ATOM      1  C   UNL     1       1.699  -6.682  -0.135  0.00  0.00    +0.214 C 
ATOM      2  N   UNL     1       0.832  -7.283   0.913  0.00  0.00    -0.228 NA
ATOM      3  N   UNL     1       0.454  -8.579   0.329  0.00  0.00    -0.234 NA
ATOM      4  C   UNL     1       0.265  -8.294  -1.112  0.00  0.00    +0.185 C 
ATOM      5  N   UNL     1       1.063  -7.085  -1.411  0.00  0.00    -0.197 NA
ATOM      6  H   UNL     1       0.018  -6.711   1.081  0.00  0.00    +0.143 HD
ATOM      7  H   UNL     1      -0.397  -8.928   0.743  0.00  0.00    +0.143 HD
ENDROOT
BRANCH   4   8
ATOM      8  C   UNL     1       0.767  -9.472  -1.950  0.00  0.00    +0.187 C 
ATOM      9  C   UNL     1      -0.060 -10.716  -1.677  0.00  0.00    +0.034 C 
ATOM     10  C   UNL     1       0.831 -11.594  -1.179  0.00  0.00    +0.091 C 
ATOM     11  N   UNL     1       2.068 -11.034  -1.123  0.00  0.00    -0.154 NA
ATOM     12  N   UNL     1       2.122  -9.868  -1.531  0.00  0.00    -0.176 NA
BRANCH  10  13
ATOM     13  C   UNL     1       0.508 -12.978  -0.752  0.00  0.00    +0.002 A 
ATOM     14  C   UNL     1      -0.797 -13.454  -0.858  0.00  0.00    +0.013 A 
ATOM     15  C   UNL     1      -1.094 -14.741  -0.461  0.00  0.00    +0.046 A 
ATOM     16  C   UNL     1      -0.094 -15.561   0.045  0.00  0.00    +0.120 A 
ATOM     17  C   UNL     1       1.207 -15.089   0.152  0.00  0.00    +0.046 A 
ATOM     18  C   UNL     1       1.511 -13.805  -0.249  0.00  0.00    +0.013 A 
BRANCH  16  19
ATOM     19  O   UNL     1      -0.390 -16.828   0.437  0.00  0.00    -0.495 OA
ATOM     20  C   UNL     1       0.686 -17.617   0.948  0.00  0.00    +0.277 C 
ENDBRANCH  16  19
ENDBRANCH  10  13
ENDBRANCH   4   8
BRANCH   5  21
ATOM     21  N   UNL     1       0.220  -6.021  -1.932  0.00  0.00    -0.264 NA
ATOM     22  H   UNL     1       0.773  -5.222  -2.204  0.00  0.00    +0.137 HD
ATOM     23  H   UNL     1      -0.344  -6.350  -2.701  0.00  0.00    +0.137 HD
ENDBRANCH   5  21
BRANCH   1  24
ATOM     24  S   UNL     1       1.722  -4.875   0.020  0.00  0.00    -0.119 S 
BRANCH  24  25
ATOM     25  C   UNL     1       2.897  -4.565   1.367  0.00  0.00    +0.107 C 
BRANCH  25  30
ATOM     26  C   UNL     1       3.697   1.127   1.959  0.00  0.00    +0.044 C 
ATOM     27  C   UNL     1       3.489  -0.358   1.804  0.00  0.00    -0.050 A 
ATOM     28  C   UNL     1       2.486  -0.992   2.513  0.00  0.00    +0.003 A 
ATOM     29  C   UNL     1       2.294  -2.354   2.372  0.00  0.00    +0.005 A 
ATOM     30  C   UNL     1       3.105  -3.081   1.521  0.00  0.00    -0.037 A 
ATOM     31  C   UNL     1       4.108  -2.446   0.811  0.00  0.00    +0.005 A 
ATOM     32  C   UNL     1       4.297  -1.084   0.950  0.00  0.00    +0.003 A 
ENDBRANCH  25  30
ENDBRANCH  24  25
ENDBRANCH   1  24
TORSDOF 7
