REMARK  Name = ZINC09845957
REMARK  10 active torsions:
REMARK  status: ('A' for Active; 'I' for Inactive)
REMARK    1  A    between atoms: C_1  and  C_2
REMARK    2  A    between atoms: C_3  and  C_30
REMARK    3  A    between atoms: C_5  and  C_6
REMARK    4  A    between atoms: C_9  and  C_11
REMARK    5  A    between atoms: C_11  and  N_12
REMARK    6  A    between atoms: C_13  and  C_15
REMARK    7  A    between atoms: N_17  and  C_18
REMARK    8  A    between atoms: N_28  and  C_29
REMARK    9  A    between atoms: C_30  and  O_32
REMARK   10  A    between atoms: O_32  and  C_33
REMARK                            x       y       z     vdW  Elec       q    Type
REMARK                         _______ _______ _______ _____ _____    ______ ____
ROOT
ATOM      1  C   UNL     1      -2.477   0.637   0.828  0.00  0.00    +0.129 A 
ATOM      2  C   UNL     1      -3.721   1.154   1.144  0.00  0.00    +0.049 A 
ATOM      3  C   UNL     1      -4.579   0.058   1.302  0.00  0.00    +0.047 A 
ATOM      4  C   UNL     1      -3.846  -1.060   1.091  0.00  0.00    +0.123 A 
ATOM      5  O   UNL     1      -2.584  -0.709   0.806  0.00  0.00    -0.459 OA
ENDROOT
BRANCH   1  10
ATOM      6  C   UNL     1       2.309  -1.587   2.459  0.00  0.00    +0.062 C 
ATOM      7  C   UNL     1       1.568  -0.475   1.762  0.00  0.00    +0.025 C 
ATOM      8  C   UNL     1       0.214  -0.376   1.689  0.00  0.00    +0.088 C 
ATOM      9  C   UNL     1      -0.071   0.861   0.919  0.00  0.00    +0.056 C 
ATOM     10  C   UNL     1      -1.307   1.381   0.579  0.00  0.00    +0.060 C 
ATOM     11  C   UNL     1       1.254   1.404   0.593  0.00  0.00    +0.251 C 
ATOM     12  O   UNL     1       1.485   2.421  -0.037  0.00  0.00    -0.270 OA
ATOM     13  N   UNL     1       2.164   0.566   1.122  0.00  0.00    -0.274 N 
ATOM     14  C   UNL     1       3.614   0.752   1.020  0.00  0.00    +0.138 C 
BRANCH   8  15
ATOM     15  C   UNL     1      -0.769  -1.305   2.258  0.00  0.00    +0.341 C 
ATOM     16  O   UNL     1      -1.101  -2.296   1.636  0.00  0.00    -0.245 OA
BRANCH  15  17
ATOM     17  O   UNL     1      -1.305  -1.060   3.471  0.00  0.00    -0.464 OA
ATOM     18  C   UNL     1      -2.185  -2.076   4.020  0.00  0.00    +0.280 C 
ENDBRANCH  15  17
ENDBRANCH   8  15
ENDBRANCH   1  10
BRANCH   4  19
ATOM     19  C   UNL     1      -4.365  -2.473   1.164  0.00  0.00    +0.179 C 
BRANCH  19  20
ATOM     20  N   UNL     1      -4.746  -2.923  -0.177  0.00  0.00    -0.300 N 
ATOM     21  C   UNL     1      -5.240  -4.164  -0.356  0.00  0.00    +0.300 C 
ATOM     22  O   UNL     1      -5.369  -4.909   0.593  0.00  0.00    -0.265 OA
ATOM     23  H   UNL     1      -4.642  -2.328  -0.936  0.00  0.00    +0.150 HD
BRANCH  21  24
ATOM     24  C   UNL     1      -5.628  -4.623  -1.724  0.00  0.00    +0.303 C 
ATOM     25  O   UNL     1      -5.499  -3.878  -2.673  0.00  0.00    -0.265 OA
ATOM     26  N   UNL     1      -6.122  -5.864  -1.903  0.00  0.00    -0.278 N 
ATOM     27  H   UNL     1      -6.293  -6.433  -1.136  0.00  0.00    +0.155 HD
BRANCH  26  28
ATOM     28  C   UNL     1      -6.388  -6.331  -3.193  0.00  0.00    +0.035 A 
ATOM     29  C   UNL     1      -7.453  -7.195  -3.415  0.00  0.00    +0.025 A 
ATOM     30  C   UNL     1      -7.718  -7.650  -4.691  0.00  0.00    +0.023 A 
ATOM     31  C   UNL     1      -6.916  -7.256  -5.748  0.00  0.00    +0.059 A 
ATOM     32  C   UNL     1      -5.850  -6.399  -5.530  0.00  0.00    +0.061 A 
ATOM     33  C   UNL     1      -5.585  -5.936  -4.255  0.00  0.00    +0.044 A 
ATOM     34 CL   UNL     1      -4.847  -5.906  -6.858  0.00  0.00    -0.082 Cl
ATOM     35 CL   UNL     1      -7.247  -7.836  -7.350  0.00  0.00    -0.082 Cl
ENDBRANCH  26  28
ENDBRANCH  21  24
ENDBRANCH  19  20
ENDBRANCH   4  19
TORSDOF 7
