REMARK  Name = ZINC09412264
REMARK  10 active torsions:
REMARK  status: ('A' for Active; 'I' for Inactive)
REMARK    1  A    between atoms: C_1  and  O_2
REMARK    2  A    between atoms: O_2  and  C_3
REMARK    3  A    between atoms: C_3  and  C_4
REMARK    4  A    between atoms: C_4  and  C_5
REMARK    5  A    between atoms: C_5  and  N_6
REMARK    6  A    between atoms: C_16  and  S_17
REMARK    7  A    between atoms: S_17  and  C_18
REMARK    8  A    between atoms: C_18  and  C_19
REMARK    9  A    between atoms: N_24  and  C_25
REMARK   10  A    between atoms: C_25  and  C_26
REMARK                            x       y       z     vdW  Elec       q    Type
REMARK                         _______ _______ _______ _____ _____    ______ ____
ROOT
ATOM      1  N   UNL     1       0.036  -2.766  -0.012  0.00  0.00    -0.287 N 
ATOM      2  C   UNL     1       1.239  -2.146  -0.021  0.00  0.00    +0.262 A 
ATOM      3  O   UNL     1       2.277  -2.782  -0.034  0.00  0.00    -0.267 OA
ATOM      4  C   UNL     1       1.245  -0.677  -0.013  0.00  0.00    +0.065 A 
ATOM      5  C   UNL     1       2.432   0.055  -0.021  0.00  0.00    +0.015 A 
ATOM      6  C   UNL     1       2.381   1.422  -0.013  0.00  0.00    +0.001 A 
ATOM      7  C   UNL     1       1.161   2.086   0.002  0.00  0.00    +0.002 A 
ATOM      8  C   UNL     1      -0.017   1.394   0.010  0.00  0.00    +0.028 A 
ATOM      9  C   UNL     1       0.002  -0.004   0.002  0.00  0.00    +0.079 A 
ATOM     10  N   UNL     1      -1.136  -0.726   0.009  0.00  0.00    -0.223 NA
ATOM     11  C   UNL     1      -1.119  -2.036   0.002  0.00  0.00    +0.173 A 
ENDROOT
BRANCH   1  12
ATOM     12  C   UNL     1      -0.028  -4.229  -0.019  0.00  0.00    +0.129 C 
BRANCH  12  13
ATOM     13  C   UNL     1      -0.037  -4.746   1.421  0.00  0.00    +0.050 C 
BRANCH  13  14
ATOM     14  C   UNL     1      -0.104  -6.275   1.414  0.00  0.00    +0.161 C 
BRANCH  14  16
ATOM     15  C   UNL     1      -0.173  -8.181   2.865  0.00  0.00    +0.193 C 
ATOM     16  O   UNL     1      -0.112  -6.757   2.759  0.00  0.00    -0.383 OA
ENDBRANCH  14  16
ENDBRANCH  13  14
ENDBRANCH  12  13
ENDBRANCH   1  12
BRANCH  11  17
ATOM     17  S   UNL     1      -2.656  -2.897   0.012  0.00  0.00    -0.078 S 
BRANCH  17  18
ATOM     18  C   UNL     1      -3.801  -1.496   0.030  0.00  0.00    +0.173 C 
BRANCH  18  19
ATOM     19  C   UNL     1      -5.219  -2.005   0.041  0.00  0.00    +0.231 C 
ATOM     20  O   UNL     1      -5.434  -3.199   0.037  0.00  0.00    -0.274 OA
ATOM     21  N   UNL     1      -6.248  -1.135   0.055  0.00  0.00    -0.239 N 
ATOM     22  C   UNL     1      -7.516  -1.591   0.064  0.00  0.00    +0.306 C 
ATOM     23  O   UNL     1      -7.732  -2.787   0.060  0.00  0.00    -0.252 OA
ATOM     24  N   UNL     1      -8.545  -0.721   0.078  0.00  0.00    -0.292 N 
ATOM     25  H   UNL     1      -6.076  -0.180   0.058  0.00  0.00    +0.159 HD
ATOM     26  H   UNL     1      -8.373   0.234   0.081  0.00  0.00    +0.151 HD
BRANCH  24  27
ATOM     27  C   UNL     1      -9.924  -1.216   0.089  0.00  0.00    +0.180 C 
BRANCH  27  28
ATOM     28  C   UNL     1     -10.877  -0.049   0.103  0.00  0.00    +0.122 A 
ATOM     29  C   UNL     1     -11.385   0.565  -0.980  0.00  0.00    +0.046 A 
ATOM     30  C   UNL     1     -12.226   1.599  -0.508  0.00  0.00    +0.041 A 
ATOM     31  C   UNL     1     -12.183   1.554   0.836  0.00  0.00    +0.195 A 
ATOM     32  O   UNL     1     -11.368   0.550   1.200  0.00  0.00    -0.466 OA
ENDBRANCH  27  28
ENDBRANCH  24  27
ENDBRANCH  18  19
ENDBRANCH  17  18
ENDBRANCH  11  17
TORSDOF 9
