REMARK  Name = ZINC59248535
REMARK  8 active torsions:
REMARK  status: ('A' for Active; 'I' for Inactive)
REMARK    1  A    between atoms: C_1  and  C_2
REMARK    2  A    between atoms: C_2  and  C_4
REMARK    3  A    between atoms: C_2  and  O_7
REMARK    4  A    between atoms: O_7  and  C_8
REMARK    5  A    between atoms: C_11  and  C_14
REMARK    6  A    between atoms: N_15  and  N_16
REMARK    7  A    between atoms: C_17  and  C_19
REMARK    8  A    between atoms: C_24  and  O_25
REMARK                            x       y       z     vdW  Elec       q    Type
REMARK                         _______ _______ _______ _____ _____    ______ ____
ROOT
ATOM      1  C   UNL     1      -3.814  -0.993   5.015  0.00  0.00    +0.138 C 
ATOM      2  N   UNL     1      -5.026  -1.450   5.098  0.00  0.00    -0.187 NA
ENDROOT
BRANCH   1   6
ATOM      3  C   UNL     1      -1.939  -0.618   1.225  0.00  0.00    +0.122 A 
ATOM      4  C   UNL     1      -1.253  -0.252   2.376  0.00  0.00    +0.046 A 
ATOM      5  C   UNL     1      -1.858  -0.371   3.608  0.00  0.00    +0.013 A 
ATOM      6  C   UNL     1      -3.163  -0.863   3.699  0.00  0.00    -0.005 A 
ATOM      7  C   UNL     1      -3.849  -1.230   2.539  0.00  0.00    +0.013 A 
ATOM      8  C   UNL     1      -3.238  -1.102   1.310  0.00  0.00    +0.046 A 
BRANCH   3   9
ATOM      9  O   UNL     1      -1.339  -0.499   0.012  0.00  0.00    -0.478 OA
BRANCH   9  11
ATOM     10  C   UNL     1      -2.136  -2.281  -1.412  0.00  0.00    +0.064 C 
ATOM     11  C   UNL     1      -2.140  -0.775  -1.138  0.00  0.00    +0.282 C 
BRANCH  11  12
ATOM     12  C   UNL     1      -1.576  -0.047  -2.330  0.00  0.00    +0.395 C 
ATOM     13  O   UNL     1      -2.165  -0.075  -3.397  0.00  0.00    -0.242 OA
ATOM     14  O   UNL     1      -0.530   0.572  -2.228  0.00  0.00    -0.242 OA
ENDBRANCH  11  12
ENDBRANCH   9  11
ENDBRANCH   3   9
ENDBRANCH   1   6
BRANCH   2  15
ATOM     15  N   UNL     1      -5.645  -1.573   6.348  0.00  0.00    -0.203 N 
ATOM     16  C   UNL     1      -6.903  -2.048   6.434  0.00  0.00    +0.267 C 
ATOM     17  O   UNL     1      -7.502  -2.368   5.425  0.00  0.00    -0.268 OA
ATOM     18  H   UNL     1      -5.167  -1.318   7.153  0.00  0.00    +0.178 HD
BRANCH  16  19
ATOM     19  C   UNL     1      -7.555  -2.178   7.750  0.00  0.00    +0.082 A 
ATOM     20  C   UNL     1      -6.872  -1.806   8.912  0.00  0.00    +0.032 A 
ATOM     21  C   UNL     1      -7.487  -1.929  10.140  0.00  0.00    +0.020 A 
ATOM     22  C   UNL     1      -8.779  -2.422  10.228  0.00  0.00    +0.034 A 
ATOM     23  C   UNL     1      -9.465  -2.794   9.088  0.00  0.00    +0.061 A 
ATOM     24  C   UNL     1      -8.863  -2.671   7.843  0.00  0.00    +0.143 A 
ATOM     25 BR   UNL     1     -11.228  -3.465   9.223  0.00  0.00    -0.046 Br
ATOM     26 BR   UNL     1      -6.562  -1.425  11.710  0.00  0.00    -0.050 Br
BRANCH  24  27
ATOM     27  O   UNL     1      -9.537  -3.030   6.722  0.00  0.00    -0.505 OA
ATOM     28  H   UNL     1      -9.418  -3.957   6.472  0.00  0.00    +0.292 HD
ENDBRANCH  24  27
ENDBRANCH  16  19
ENDBRANCH   2  15
TORSDOF 7
