REMARK  Name = ZINC66250748
REMARK  7 active torsions:
REMARK  status: ('A' for Active; 'I' for Inactive)
REMARK    1  A    between atoms: C_1  and  C_2
REMARK    2  A    between atoms: N_5  and  C_11
REMARK    3  A    between atoms: C_7  and  C_10
REMARK    4  A    between atoms: C_11  and  C_12
REMARK    5  A    between atoms: N_17  and  S_18
REMARK    6  A    between atoms: S_18  and  C_21
REMARK    7  A    between atoms: C_26  and  C_27
REMARK                            x       y       z     vdW  Elec       q    Type
REMARK                         _______ _______ _______ _____ _____    ______ ____
ROOT
ATOM      1  C   UNL     1       4.176   0.223  -2.490  0.00  0.00    +0.039 A 
ATOM      2  C   UNL     1       5.291  -0.505  -2.424  0.00  0.00    +0.071 A 
ATOM      3  S   UNL     1       6.562   0.746  -2.518  0.00  0.00    -0.056 S 
ATOM      4  C   UNL     1       5.493   2.172  -2.640  0.00  0.00    +0.192 A 
ATOM      5  N   UNL     1       4.249   1.581  -2.605  0.00  0.00    -0.335 N 
ATOM      6  N   UNL     1       5.808   3.440  -2.742  0.00  0.00    -0.103 NA
ATOM      7  H   UNL     1       3.443   2.118  -2.658  0.00  0.00    +0.168 HD
ENDROOT
BRANCH   6   8
ATOM      8  S   UNL     1       7.399   3.898  -2.770  0.00  0.00    +0.102 S 
ATOM      9  O   UNL     1       7.935   3.584  -1.492  0.00  0.00    -0.146 OA
ATOM     10  O   UNL     1       7.949   3.382  -3.974  0.00  0.00    -0.146 OA
BRANCH   8  11
ATOM     11  C   UNL     1       7.433   5.654  -2.913  0.00  0.00    +0.130 A 
ATOM     12  C   UNL     1       7.950   6.421  -1.889  0.00  0.00    +0.030 A 
ATOM     13  C   UNL     1       7.977   7.800  -1.999  0.00  0.00    +0.002 A 
ATOM     14  C   UNL     1       7.486   8.419  -3.135  0.00  0.00    +0.001 A 
ATOM     15  C   UNL     1       6.966   7.665  -4.166  0.00  0.00    +0.021 A 
ATOM     16  C   UNL     1       6.942   6.272  -4.064  0.00  0.00    +0.079 A 
BRANCH  16  17
ATOM     17  C   UNL     1       6.409   5.482  -5.133  0.00  0.00    +0.101 C 
ATOM     18  N   UNL     1       5.987   4.855  -5.981  0.00  0.00    -0.191 NA
ENDBRANCH  16  17
ENDBRANCH   8  11
ENDBRANCH   6   8
BRANCH   1  19
ATOM     19  C   UNL     1       2.832  -0.456  -2.443  0.00  0.00    +0.138 C 
BRANCH  19  23
ATOM     20  C   UNL     1      -0.019   1.526   0.010  0.00  0.00    +0.039 C 
ATOM     21  C   UNL     1       0.002  -0.004   0.002  0.00  0.00    +0.130 C 
ATOM     22  C   UNL     1       0.720  -0.499  -1.256  0.00  0.00    +0.116 C 
ATOM     23  N   UNL     1       2.120  -0.050  -1.224  0.00  0.00    -0.292 NA
ATOM     24  C   UNL     1       2.801  -0.554  -0.023  0.00  0.00    +0.116 C 
ATOM     25  C   UNL     1       2.062  -0.059   1.223  0.00  0.00    +0.130 C 
ATOM     26  O   UNL     1       0.695  -0.479   1.159  0.00  0.00    -0.371 OA
ATOM     27  C   UNL     1       2.719  -0.646   2.474  0.00  0.00    +0.039 C 
ENDBRANCH  19  23
ENDBRANCH   1  19
TORSDOF 5
