REMARK  Name = ZINC42439483
REMARK  6 active torsions:
REMARK  status: ('A' for Active; 'I' for Inactive)
REMARK    1  A    between atoms: C_1  and  C_2
REMARK    2  A    between atoms: C_6  and  C_19
REMARK    3  A    between atoms: N_12  and  C_13
REMARK    4  A    between atoms: C_13  and  C_14
REMARK    5  A    between atoms: C_14  and  C_15
REMARK    6  A    between atoms: C_15  and  C_16
REMARK                            x       y       z     vdW  Elec       q    Type
REMARK                         _______ _______ _______ _____ _____    ______ ____
ROOT
ATOM      1  C   UNL     1       0.015   1.527  -0.010  0.00  0.00    +0.028 C 
ATOM      2  C   UNL     1       0.016  -0.003  -0.007  0.00  0.00    +0.074 C 
ATOM      3  C   UNL     1       0.633  -0.518  -1.312  0.00  0.00    +0.023 C 
ATOM      4  C   UNL     1       0.759  -2.042  -1.244  0.00  0.00    +0.016 C 
ATOM      5  C   UNL     1       1.683  -2.428  -0.087  0.00  0.00    +0.092 C 
ATOM      6  C   UNL     1       1.079  -1.934   1.231  0.00  0.00    +0.122 C 
ATOM      7  N   UNL     1       0.817  -0.492   1.123  0.00  0.00    -0.282 N 
ATOM      8  C   UNL     1       1.304   0.365   2.042  0.00  0.00    +0.302 C 
ATOM      9  O   UNL     1       0.995   1.540   2.001  0.00  0.00    -0.253 OA
ATOM     10  N   UNL     1       2.134  -0.080   3.006  0.00  0.00    -0.299 N 
ATOM     11  H   UNL     1       2.440  -1.001   2.995  0.00  0.00    +0.150 HD
ENDROOT
BRANCH   5  12
ATOM     12  C   UNL     1       1.833  -3.927  -0.042  0.00  0.00    +0.215 C 
ATOM     13  O   UNL     1       1.258  -4.619  -0.856  0.00  0.00    -0.276 OA
ATOM     14  N   UNL     1       2.607  -4.499   0.901  0.00  0.00    -0.329 N 
ATOM     15  H   UNL     1       3.067  -3.946   1.552  0.00  0.00    +0.145 HD
ATOM     16  H   UNL     1       2.704  -5.463   0.930  0.00  0.00    +0.145 HD
ENDBRANCH   5  12
BRANCH  10  17
ATOM     17  C   UNL     1       2.574   0.826   4.070  0.00  0.00    +0.106 C 
BRANCH  17  18
ATOM     18  C   UNL     1       3.503   0.076   5.027  0.00  0.00    +0.030 C 
BRANCH  18  19
ATOM     19  C   UNL     1       3.963   1.022   6.138  0.00  0.00    +0.126 C 
BRANCH  19  20
ATOM     20  C   UNL     1       4.878   0.283   7.080  0.00  0.00    +0.356 C 
ATOM     21  O   UNL     1       5.138  -0.891   6.881  0.00  0.00    -0.246 OA
ATOM     22  O   UNL     1       5.358   0.860   8.041  0.00  0.00    -0.246 OA
ENDBRANCH  19  20
ENDBRANCH  18  19
ENDBRANCH  17  18
ENDBRANCH  10  17
TORSDOF 5
