REMARK  Name = ZINC58837203
REMARK  9 active torsions:
REMARK  status: ('A' for Active; 'I' for Inactive)
REMARK    1  A    between atoms: C_1  and  C_2
REMARK    2  A    between atoms: C_2  and  O_3
REMARK    3  A    between atoms: O_3  and  C_4
REMARK    4  A    between atoms: C_9  and  C_14
REMARK    5  A    between atoms: N_16  and  N_17
REMARK    6  A    between atoms: N_17  and  C_18
REMARK    7  A    between atoms: C_18  and  N_20
REMARK    8  A    between atoms: N_20  and  C_21
REMARK    9  A    between atoms: C_26  and  C_27
REMARK                            x       y       z     vdW  Elec       q    Type
REMARK                         _______ _______ _______ _____ _____    ______ ____
ROOT
ATOM      1  C   UNL     1       2.372  -6.960  -4.042  0.00  0.00    +0.276 C 
ATOM      2  O   UNL     1       2.159  -8.091  -3.648  0.00  0.00    -0.267 OA
ATOM      3  N   UNL     1       3.033  -6.763  -5.200  0.00  0.00    -0.230 N 
ATOM      4  H   UNL     1       3.203  -5.861  -5.514  0.00  0.00    +0.173 HD
ENDROOT
BRANCH   1  10
ATOM      5  C   UNL     1       0.777  -1.809  -1.336  0.00  0.00    +0.122 A 
ATOM      6  C   UNL     1       0.237  -2.667  -0.377  0.00  0.00    +0.046 A 
ATOM      7  C   UNL     1       0.334  -4.018  -0.523  0.00  0.00    +0.013 A 
ATOM      8  C   UNL     1       0.980  -4.556  -1.646  0.00  0.00    +0.001 A 
ATOM      9  C   UNL     1       1.238  -5.879  -2.075  0.00  0.00    +0.041 A 
ATOM     10  C   UNL     1       1.911  -5.809  -3.254  0.00  0.00    +0.104 A 
ATOM     11  N   UNL     1       2.091  -4.480  -3.594  0.00  0.00    -0.350 N 
ATOM     12  H   UNL     1       2.542  -4.157  -4.389  0.00  0.00    +0.166 HD
ATOM     13  C   UNL     1       1.526  -3.694  -2.618  0.00  0.00    +0.050 A 
ATOM     14  C   UNL     1       1.413  -2.317  -2.453  0.00  0.00    +0.071 A 
BRANCH   5  15
ATOM     15  O   UNL     1       0.671  -0.465  -1.174  0.00  0.00    -0.492 OA
BRANCH  15  17
ATOM     16  C   UNL     1      -0.019   1.526   0.010  0.00  0.00    +0.048 C 
ATOM     17  C   UNL     1       0.002  -0.004   0.002  0.00  0.00    +0.225 C 
ENDBRANCH  15  17
ENDBRANCH   5  15
ENDBRANCH   1  10
BRANCH   3  18
ATOM     18  N   UNL     1       3.473  -7.860  -5.951  0.00  0.00    -0.246 N 
ATOM     19  H   UNL     1       3.302  -8.762  -5.637  0.00  0.00    +0.172 HD
BRANCH  18  20
ATOM     20  C   UNL     1       4.133  -7.663  -7.109  0.00  0.00    +0.147 C 
ATOM     21  S   UNL     1       4.671  -9.005  -8.027  0.00  0.00    -0.017 S 
BRANCH  20  22
ATOM     22  N   UNL     1       4.369  -6.410  -7.545  0.00  0.00    -0.322 N 
ATOM     23  H   UNL     1       4.065  -5.650  -7.025  0.00  0.00    +0.148 HD
BRANCH  22  24
ATOM     24  C   UNL     1       5.087  -6.196  -8.804  0.00  0.00    +0.075 C 
ATOM     25  C   UNL     1       6.594  -6.233  -8.545  0.00  0.00    +0.022 C 
ATOM     26  C   UNL     1       7.344  -6.009  -9.860  0.00  0.00    +0.002 C 
ATOM     27  C   UNL     1       6.960  -4.647 -10.441  0.00  0.00    +0.000 C 
ATOM     28  C   UNL     1       5.452  -4.609 -10.700  0.00  0.00    +0.005 C 
ATOM     29  C   UNL     1       4.703  -4.833  -9.385  0.00  0.00    +0.006 C 
ATOM     30  C   UNL     1       3.195  -4.796  -9.644  0.00  0.00    +0.009 C 
ENDBRANCH  22  24
ENDBRANCH  20  22
ENDBRANCH  18  20
ENDBRANCH   3  18
TORSDOF 7
