REMARK  Name = ZINC05109384
REMARK  9 active torsions:
REMARK  status: ('A' for Active; 'I' for Inactive)
REMARK    1  A    between atoms: C_1  and  C_2
REMARK    2  A    between atoms: C_4  and  C_25
REMARK    3  A    between atoms: C_5  and  N_9
REMARK    4  A    between atoms: C_6  and  C_8
REMARK    5  A    between atoms: C_10  and  C_12
REMARK    6  A    between atoms: C_12  and  C_14
REMARK    7  A    between atoms: C_12  and  O_15
REMARK    8  A    between atoms: O_15  and  C_16
REMARK    9  A    between atoms: C_21  and  N_22
REMARK                            x       y       z     vdW  Elec       q    Type
REMARK                         _______ _______ _______ _____ _____    ______ ____
ROOT
ATOM      1  N   UNL     1       3.659  -0.879   0.070  0.00  0.00    -0.282 N 
ATOM      2  C   UNL     1       4.777  -0.245  -0.337  0.00  0.00    +0.258 C 
ATOM      3  O   UNL     1       4.699   0.847  -0.858  0.00  0.00    -0.271 OA
ATOM      4  H   UNL     1       3.726  -1.715   0.558  0.00  0.00    +0.155 HD
ENDROOT
BRANCH   1   9
ATOM      5  C   UNL     1      -1.433   1.340  -1.080  0.00  0.00    +0.044 C 
ATOM      6  C   UNL     1      -0.082   0.748  -0.771  0.00  0.00    -0.050 A 
ATOM      7  C   UNL     1       0.852   1.491  -0.072  0.00  0.00    +0.008 A 
ATOM      8  C   UNL     1       2.093   0.954   0.208  0.00  0.00    -0.029 A 
ATOM      9  C   UNL     1       2.403  -0.333  -0.213  0.00  0.00    +0.039 A 
ATOM     10  C   UNL     1       1.462  -1.076  -0.914  0.00  0.00    -0.029 A 
ATOM     11  C   UNL     1       0.223  -0.533  -1.190  0.00  0.00    +0.008 A 
ATOM     12  C   UNL     1       1.794  -2.473  -1.371  0.00  0.00    +0.045 C 
ATOM     13  C   UNL     1       3.111   1.764   0.969  0.00  0.00    +0.045 C 
ENDBRANCH   1   9
BRANCH   2  14
ATOM     14  C   UNL     1       6.124  -0.894  -0.144  0.00  0.00    +0.256 C 
ATOM     15  C   UNL     1       6.205  -2.163  -0.995  0.00  0.00    +0.062 C 
BRANCH  14  16
ATOM     16  O   UNL     1       7.152   0.014  -0.545  0.00  0.00    -0.478 OA
BRANCH  16  17
ATOM     17  C   UNL     1       8.378  -0.156   0.015  0.00  0.00    +0.152 A 
ATOM     18  C   UNL     1       8.620  -1.245   0.840  0.00  0.00    +0.048 A 
ATOM     19  C   UNL     1       9.868  -1.417   1.407  0.00  0.00    +0.004 A 
ATOM     20  C   UNL     1      10.875  -0.504   1.153  0.00  0.00    +0.002 A 
ATOM     21  C   UNL     1      10.637   0.582   0.332  0.00  0.00    +0.036 A 
ATOM     22  C   UNL     1       9.392   0.755  -0.242  0.00  0.00    +0.168 A 
BRANCH  22  23
ATOM     23  N   UNL     1       9.139   1.915  -1.126  0.00  0.00    +0.060 N 
ATOM     24  O   UNL     1      10.029   2.715  -1.351  0.00  0.00    -0.126 OA
ATOM     25  O   UNL     1       8.040   2.069  -1.628  0.00  0.00    -0.126 OA
ENDBRANCH  22  23
ENDBRANCH  16  17
ENDBRANCH  14  16
ENDBRANCH   2  14
TORSDOF 5
