REMARK  Name = ZINC44593889
REMARK  6 active torsions:
REMARK  status: ('A' for Active; 'I' for Inactive)
REMARK    1  A    between atoms: C_1  and  N_2
REMARK    2  A    between atoms: C_3  and  N_7
REMARK    3  A    between atoms: N_7  and  S_8
REMARK    4  A    between atoms: S_8  and  C_11
REMARK    5  A    between atoms: C_12  and  N_19
REMARK    6  A    between atoms: N_19  and  N_20
REMARK                            x       y       z     vdW  Elec       q    Type
REMARK                         _______ _______ _______ _____ _____    ______ ____
ROOT
ATOM      1  C   UNL     1      -1.647  -2.411  -3.580  0.00  0.00    +0.225 A 
ATOM      2  C   UNL     1      -1.986  -3.310  -2.633  0.00  0.00    +0.179 A 
ATOM      3  N   UNL     1      -3.318  -3.488  -2.679  0.00  0.00    -0.203 NA
ATOM      4  C   UNL     1      -3.815  -2.734  -3.618  0.00  0.00    +0.181 A 
ATOM      5  N   UNL     1      -2.821  -2.019  -4.229  0.00  0.00    -0.276 N 
ATOM      6  C   UNL     1      -3.199  -1.167  -5.244  0.00  0.00    +0.102 A 
ATOM      7  C   UNL     1      -4.478  -1.055  -5.601  0.00  0.00    +0.067 A 
ATOM      8  S   UNL     1      -5.272  -2.201  -4.485  0.00  0.00    -0.058 S 
ENDROOT
BRANCH   1   9
ATOM      9  S   UNL     1      -0.021  -1.832  -3.930  0.00  0.00    +0.093 S 
ATOM     10  O   UNL     1      -0.090  -1.156  -5.179  0.00  0.00    -0.148 OA
ATOM     11  O   UNL     1       0.858  -2.925  -3.704  0.00  0.00    -0.148 OA
BRANCH   9  12
ATOM     12  N   UNL     1       0.347  -0.686  -2.792  0.00  0.00    -0.198 N 
ATOM     13  H   UNL     1       1.061  -0.846  -2.156  0.00  0.00    +0.175 HD
BRANCH  12  16
ATOM     14  C   UNL     1       0.529   1.379  -0.572  0.00  0.00    +0.174 C 
ATOM     15  N   UNL     1      -0.307   1.441  -1.773  0.00  0.00    -0.252 N 
ATOM     16  C   UNL     1      -0.370   0.506  -2.748  0.00  0.00    +0.136 A 
ATOM     17  C   UNL     1      -1.262   0.944  -3.680  0.00  0.00    +0.066 A 
ATOM     18  C   UNL     1      -1.753   2.181  -3.254  0.00  0.00    +0.136 A 
ATOM     19  N   UNL     1      -1.188   2.477  -2.112  0.00  0.00    -0.178 NA
ENDBRANCH  12  16
ENDBRANCH   9  12
ENDBRANCH   1   9
BRANCH   2  20
ATOM     20  N   UNL     1      -1.101  -3.950  -1.752  0.00  0.00    -0.265 N 
ATOM     21  H   UNL     1      -0.161  -3.708  -1.748  0.00  0.00    +0.168 HD
BRANCH  20  22
ATOM     22  N   UNL     1      -1.562  -4.912  -0.899  0.00  0.00    -0.255 NA
ATOM     23  H   UNL     1      -2.027  -5.651  -1.405  0.00  0.00    +0.140 HD
ATOM     24  H   UNL     1      -0.814  -5.279  -0.330  0.00  0.00    +0.140 HD
ENDBRANCH  20  22
ENDBRANCH   2  20
TORSDOF 5
