REMARK  Name = ZINC01060815
REMARK  3 active torsions:
REMARK  status: ('A' for Active; 'I' for Inactive)
REMARK    1  A    between atoms: C_1  and  C_2
REMARK    2  A    between atoms: C_14  and  C_16
REMARK    3  A    between atoms: C_21  and  C_24
REMARK                            x       y       z     vdW  Elec       q    Type
REMARK                         _______ _______ _______ _____ _____    ______ ____
ROOT
ATOM      1  C   UNL     1       6.025  -9.329  -0.107  0.00  0.00    +0.047 C 
ATOM      2  C   UNL     1       4.542  -9.598  -0.096  0.00  0.00    -0.008 A 
ATOM      3  C   UNL     1       4.076 -10.877  -0.099  0.00  0.00    +0.008 A 
ATOM      4  C   UNL     1       2.692 -11.108  -0.088  0.00  0.00    +0.019 A 
ATOM      5  C   UNL     1       1.829 -10.071  -0.074  0.00  0.00    +0.096 A 
ATOM      6  N   UNL     1       2.282  -8.781  -0.071  0.00  0.00    -0.267 N 
ATOM      7  C   UNL     1       3.627  -8.528  -0.082  0.00  0.00    +0.144 A 
ATOM      8  N   UNL     1       4.085  -7.277  -0.079  0.00  0.00    -0.222 NA
ATOM      9  C   UNL     1       3.260  -6.252  -0.066  0.00  0.00    +0.116 A 
ATOM     10  C   UNL     1       1.851  -6.419  -0.054  0.00  0.00    +0.073 A 
ATOM     11  C   UNL     1       1.388  -7.773  -0.057  0.00  0.00    +0.267 A 
ATOM     12  O   UNL     1       0.193  -8.013  -0.047  0.00  0.00    -0.267 OA
ATOM     13  C   UNL     1       1.103  -5.238  -0.040  0.00  0.00    +0.036 A 
ATOM     14  C   UNL     1       1.737  -4.031  -0.038  0.00  0.00    +0.077 A 
ATOM     15  S   UNL     1       3.462  -4.488  -0.065  0.00  0.00    -0.064 S 
ENDROOT
BRANCH  14  16
ATOM     16  C   UNL     1       1.148  -2.690  -0.025  0.00  0.00    +0.256 C 
ATOM     17  O   UNL     1      -0.062  -2.557  -0.013  0.00  0.00    -0.269 OA
ATOM     18  N   UNL     1       1.946  -1.604  -0.026  0.00  0.00    -0.263 N 
ATOM     19  C   UNL     1       1.385  -0.328  -0.013  0.00  0.00    +0.168 A 
ATOM     20  C   UNL     1       0.002  -0.004   0.002  0.00  0.00    +0.091 A 
ATOM     21  C   UNL     1      -0.016   1.348   0.009  0.00  0.00    +0.136 A 
ATOM     22  O   UNL     1       1.263   1.749  -0.001  0.00  0.00    -0.358 OA
ATOM     23  N   UNL     1       2.027   0.811  -0.013  0.00  0.00    -0.063 NA
ATOM     24  C   UNL     1      -1.237   2.232   0.020  0.00  0.00    +0.089 C 
ATOM     25  H   UNL     1       2.910  -1.710  -0.035  0.00  0.00    +0.157 HD
ENDBRANCH  14  16
TORSDOF 1
