REMARK  Name = ZINC32547806
REMARK  7 active torsions:
REMARK  status: ('A' for Active; 'I' for Inactive)
REMARK    1  A    between atoms: C_1  and  O_2
REMARK    2  A    between atoms: O_2  and  C_3
REMARK    3  A    between atoms: C_3  and  C_4
REMARK    4  A    between atoms: C_4  and  N_5
REMARK    5  A    between atoms: C_6  and  C_8
REMARK    6  A    between atoms: C_11  and  C_13
REMARK    7  A    between atoms: C_16  and  C_18
REMARK                            x       y       z     vdW  Elec       q    Type
REMARK                         _______ _______ _______ _____ _____    ______ ____
ROOT
ATOM      1  C   UNL     1      -2.276  -2.817   0.006  0.00  0.00    +0.190 A 
ATOM      2  C   UNL     1      -3.192  -1.787   0.021  0.00  0.00    +0.055 A 
ATOM      3  C   UNL     1      -2.463  -0.596   0.022  0.00  0.00    +0.051 A 
ATOM      4  C   UNL     1      -1.128  -0.942   0.007  0.00  0.00    +0.142 A 
ATOM      5  O   UNL     1      -1.036  -2.284  -0.007  0.00  0.00    -0.450 OA
ENDROOT
BRANCH   4   6
ATOM      6  C   UNL     1       0.002  -0.004   0.002  0.00  0.00    +0.056 A 
ATOM      7  C   UNL     1       1.364  -0.278  -0.013  0.00  0.00    +0.020 A 
ATOM      8  C   UNL     1       2.243   0.766  -0.015  0.00  0.00    +0.027 A 
ATOM      9  C   UNL     1       1.741   2.061  -0.004  0.00  0.00    +0.089 A 
ATOM     10  S   UNL     1      -0.022   1.781   0.012  0.00  0.00    -0.075 S 
BRANCH   9  11
ATOM     11  C   UNL     1       2.454   3.302  -0.004  0.00  0.00    +0.106 C 
ATOM     12  N   UNL     1       3.021   4.287  -0.005  0.00  0.00    -0.190 NA
ENDBRANCH   9  11
ENDBRANCH   4   6
BRANCH   1  14
ATOM     13  N   UNL     1      -1.600  -5.158  -0.015  0.00  0.00    -0.307 N 
ATOM     14  C   UNL     1      -2.593  -4.247   0.000  0.00  0.00    +0.279 C 
ATOM     15  O   UNL     1      -3.754  -4.613   0.009  0.00  0.00    -0.267 OA
ATOM     16  H   UNL     1      -0.551  -4.827  -0.023  0.00  0.00    +0.149 HD
BRANCH  13  17
ATOM     17  C   UNL     1      -1.917  -6.588  -0.021  0.00  0.00    +0.132 C 
BRANCH  17  18
ATOM     18  C   UNL     1      -0.620  -7.399  -0.038  0.00  0.00    +0.178 C 
BRANCH  18  20
ATOM     19  C   UNL     1       1.331  -7.891   1.264  0.00  0.00    +0.194 C 
ATOM     20  O   UNL     1       0.097  -7.176   1.178  0.00  0.00    -0.381 OA
ENDBRANCH  18  20
ENDBRANCH  17  18
ENDBRANCH  13  17
ENDBRANCH   1  14
TORSDOF 6
