REMARK  Name = ZINC13260418
REMARK  14 active torsions:
REMARK  status: ('A' for Active; 'I' for Inactive)
REMARK    1  A    between atoms: C_1  and  C_2
REMARK    2  A    between atoms: C_2  and  C_3
REMARK    3  A    between atoms: C_2  and  C_4
REMARK    4  A    between atoms: C_4  and  C_5
REMARK    5  A    between atoms: C_5  and  N_6
REMARK    6  A    between atoms: N_6  and  C_7
REMARK    7  A    between atoms: C_8  and  N_23
REMARK    8  A    between atoms: N_9  and  C_16
REMARK    9  A    between atoms: C_16  and  C_17
REMARK   10  A    between atoms: C_24  and  C_26
REMARK   11  A    between atoms: C_27  and  C_28
REMARK   12  A    between atoms: C_31  and  C_33
REMARK   13  A    between atoms: C_33  and  C_34
REMARK   14  A    between atoms: C_34  and  C_35
REMARK                            x       y       z     vdW  Elec       q    Type
REMARK                         _______ _______ _______ _____ _____    ______ ____
ROOT
ATOM      1  N   UNL     1       0.338  -5.118  -0.009  0.00  0.00    -0.261 N 
ATOM      2  C   UNL     1       1.259  -4.135   0.021  0.00  0.00    +0.244 C 
ATOM      3  O   UNL     1       2.433  -4.405   0.208  0.00  0.00    -0.270 OA
ENDROOT
BRANCH   1   4
ATOM      4  C   UNL     1       0.742  -6.466   0.084  0.00  0.00    +0.140 A 
ATOM      5  C   UNL     1       1.560  -7.022  -0.879  0.00  0.00    +0.128 A 
ATOM      6  N   UNL     1       1.942  -8.338  -0.758  0.00  0.00    -0.276 N 
ATOM      7  C   UNL     1       1.514  -9.078   0.281  0.00  0.00    +0.331 A 
ATOM      8  O   UNL     1       1.859 -10.241   0.368  0.00  0.00    -0.246 OA
ATOM      9  N   UNL     1       0.713  -8.555   1.226  0.00  0.00    -0.273 N 
ATOM     10  H   UNL     1       0.409  -9.126   1.989  0.00  0.00    +0.173 HD
ATOM     11  C   UNL     1       0.314  -7.269   1.157  0.00  0.00    +0.277 A 
ATOM     12  O   UNL     1      -0.412  -6.805   2.020  0.00  0.00    -0.266 OA
BRANCH   5  13
ATOM     13  N   UNL     1       1.991  -6.268  -1.945  0.00  0.00    -0.343 N 
ATOM     14  H   UNL     1       1.652  -5.368  -2.071  0.00  0.00    +0.144 HD
ATOM     15  H   UNL     1       2.635  -6.636  -2.570  0.00  0.00    +0.144 HD
ENDBRANCH   5  13
BRANCH   6  16
ATOM     16  C   UNL     1       2.813  -8.940  -1.770  0.00  0.00    +0.163 C 
BRANCH  16  17
ATOM     17  C   UNL     1       1.971  -9.539  -2.866  0.00  0.00    -0.028 A 
ATOM     18  C   UNL     1       1.559 -10.856  -2.780  0.00  0.00    +0.005 A 
ATOM     19  C   UNL     1       0.783 -11.405  -3.783  0.00  0.00    +0.000 A 
ATOM     20  C   UNL     1       0.426 -10.640  -4.878  0.00  0.00    +0.000 A 
ATOM     21  C   UNL     1       0.843  -9.325  -4.967  0.00  0.00    +0.000 A 
ATOM     22  C   UNL     1       1.615  -8.774  -3.961  0.00  0.00    +0.005 A 
ENDBRANCH  16  17
ENDBRANCH   6  16
ENDBRANCH   1   4
BRANCH   2  23
ATOM     23  C   UNL     1       0.864  -2.788  -0.164  0.00  0.00    +0.071 C 
ATOM     24  C   UNL     1       1.790  -1.799  -0.133  0.00  0.00    +0.051 C 
BRANCH  24  25
ATOM     25  C   UNL     1       1.395  -0.452  -0.318  0.00  0.00    +0.128 A 
ATOM     26  C   UNL     1       2.227   0.648  -0.312  0.00  0.00    +0.049 A 
ATOM     27  C   UNL     1       1.411   1.768  -0.533  0.00  0.00    +0.045 A 
ATOM     28  C   UNL     1       0.143   1.319  -0.663  0.00  0.00    +0.106 A 
ATOM     29  O   UNL     1       0.136  -0.015  -0.534  0.00  0.00    -0.460 OA
BRANCH  28  30
ATOM     30  C   UNL     1      -1.068   2.179  -0.919  0.00  0.00    +0.085 C 
BRANCH  30  31
ATOM     31  C   UNL     1      -1.277   2.330  -2.427  0.00  0.00    +0.133 C 
BRANCH  31  32
ATOM     32  C   UNL     1      -2.487   3.190  -2.683  0.00  0.00    +0.356 C 
ATOM     33  O   UNL     1      -3.119   3.636  -1.754  0.00  0.00    -0.246 OA
ATOM     34  O   UNL     1      -2.865   3.461  -3.942  0.00  0.00    -0.246 OA
ENDBRANCH  31  32
ENDBRANCH  30  31
ENDBRANCH  28  30
ENDBRANCH  24  25
ENDBRANCH   2  23
BRANCH   1  35
ATOM     35  C   UNL     1      -1.083  -4.787  -0.139  0.00  0.00    +0.114 C 
BRANCH  35  36
ATOM     36  C   UNL     1      -1.432  -4.608  -1.618  0.00  0.00    +0.022 C 
BRANCH  36  38
ATOM     37  C   UNL     1      -3.238  -3.962  -3.219  0.00  0.00    +0.007 C 
ATOM     38  C   UNL     1      -2.916  -4.262  -1.754  0.00  0.00    -0.016 C 
ATOM     39  C   UNL     1      -3.761  -5.446  -1.279  0.00  0.00    +0.007 C 
ENDBRANCH  36  38
ENDBRANCH  35  36
ENDBRANCH   1  35
TORSDOF 12
