REMARK  Name = ZINC66678811
REMARK  5 active torsions:
REMARK  status: ('A' for Active; 'I' for Inactive)
REMARK    1  A    between atoms: C_1  and  C_2
REMARK    2  A    between atoms: C_2  and  C_4
REMARK    3  A    between atoms: C_2  and  N_11
REMARK    4  A    between atoms: N_14  and  C_15
REMARK    5  A    between atoms: C_19  and  C_21
REMARK                            x       y       z     vdW  Elec       q    Type
REMARK                         _______ _______ _______ _____ _____    ______ ____
ROOT
ATOM      1  N   UNL     1       0.709  -0.320  -1.249  0.00  0.00    -0.293 N 
ATOM      2  C   UNL     1       0.042  -0.452  -2.413  0.00  0.00    +0.304 C 
ATOM      3  O   UNL     1      -1.097  -0.036  -2.510  0.00  0.00    -0.252 OA
ATOM      4  N   UNL     1       0.637  -1.043  -3.467  0.00  0.00    -0.269 N 
ATOM      5  H   UNL     1       1.618  -0.651  -1.171  0.00  0.00    +0.151 HD
ATOM      6  H   UNL     1       1.570  -1.304  -3.414  0.00  0.00    +0.156 HD
ENDROOT
BRANCH   4   7
ATOM      7  C   UNL     1      -0.091  -1.280  -4.639  0.00  0.00    +0.035 A 
ATOM      8  C   UNL     1       0.543  -1.221  -5.875  0.00  0.00    +0.023 A 
ATOM      9  C   UNL     1      -0.172  -1.454  -7.034  0.00  0.00    +0.002 A 
ATOM     10  C   UNL     1      -1.521  -1.746  -6.971  0.00  0.00    +0.010 A 
ATOM     11  C   UNL     1      -2.164  -1.807  -5.737  0.00  0.00    +0.004 A 
ATOM     12  C   UNL     1      -1.443  -1.578  -4.567  0.00  0.00    +0.033 A 
BRANCH  11  13
ATOM     13  C   UNL     1      -3.613  -2.120  -5.668  0.00  0.00    +0.091 A 
ATOM     14  C   UNL     1      -4.339  -2.362  -6.857  0.00  0.00    +0.035 A 
ATOM     15  C   UNL     1      -5.668  -2.647  -6.755  0.00  0.00    +0.073 A 
ATOM     16  C   UNL     1      -6.239  -2.683  -5.464  0.00  0.00    +0.265 A 
ATOM     17  O   UNL     1      -7.426  -2.934  -5.323  0.00  0.00    -0.266 OA
ATOM     18  N   UNL     1      -5.466  -2.439  -4.389  0.00  0.00    -0.243 N 
ATOM     19  H   UNL     1      -5.864  -2.465  -3.505  0.00  0.00    +0.192 HD
ATOM     20  N   UNL     1      -4.214  -2.176  -4.503  0.00  0.00    -0.171 NA
ENDBRANCH  11  13
ENDBRANCH   4   7
BRANCH   1  22
ATOM     21  C   UNL     1       0.236   1.839  -0.203  0.00  0.00    +0.033 C 
ATOM     22  C   UNL     1       0.063   0.323  -0.102  0.00  0.00    +0.102 C 
BRANCH  22  23
ATOM     23  C   UNL     1       0.695  -0.171   1.173  0.00  0.00    -0.027 A 
ATOM     24  C   UNL     1       2.064  -0.352   1.240  0.00  0.00    +0.007 A 
ATOM     25  C   UNL     1       2.645  -0.805   2.410  0.00  0.00    +0.020 A 
ATOM     26  C   UNL     1       1.856  -1.078   3.514  0.00  0.00    +0.041 A 
ATOM     27  C   UNL     1       0.486  -0.896   3.446  0.00  0.00    +0.020 A 
ATOM     28  C   UNL     1      -0.093  -0.438   2.277  0.00  0.00    +0.007 A 
ATOM     29 CL   UNL     1       2.585  -1.647   4.983  0.00  0.00    -0.084 Cl
ENDBRANCH  22  23
ENDBRANCH   1  22
TORSDOF 4
