REMARK  Name = ZINC40104029
REMARK  11 active torsions:
REMARK  status: ('A' for Active; 'I' for Inactive)
REMARK    1  A    between atoms: C_1  and  C_2
REMARK    2  A    between atoms: C_2  and  C_4
REMARK    3  A    between atoms: C_2  and  N_13
REMARK    4  A    between atoms: N_13  and  C_14
REMARK    5  A    between atoms: N_17  and  C_18
REMARK    6  A    between atoms: C_22  and  S_24
REMARK    7  A    between atoms: S_24  and  N_27
REMARK    8  A    between atoms: N_27  and  C_28
REMARK    9  A    between atoms: C_28  and  C_29
REMARK   10  A    between atoms: C_28  and  C_30
REMARK   11  A    between atoms: C_28  and  C_31
REMARK                            x       y       z     vdW  Elec       q    Type
REMARK                         _______ _______ _______ _____ _____    ______ ____
ROOT
ATOM      1  N   UNL     1      -0.699   1.965  -4.571  0.00  0.00    -0.279 N 
ATOM      2  C   UNL     1       0.450   2.553  -5.263  0.00  0.00    +0.134 C 
ATOM      3  C   UNL     1      -1.028   0.676  -4.786  0.00  0.00    +0.307 C 
ATOM      4  O   UNL     1      -1.982   0.188  -4.211  0.00  0.00    -0.252 OA
ATOM      5  N   UNL     1      -0.300  -0.072  -5.638  0.00  0.00    -0.269 N 
ATOM      6  H   UNL     1       0.420   0.333  -6.146  0.00  0.00    +0.156 HD
ENDROOT
BRANCH   5   7
ATOM      7  C   UNL     1      -0.583  -1.434  -5.790  0.00  0.00    +0.037 A 
ATOM      8  C   UNL     1      -1.896  -1.883  -5.732  0.00  0.00    +0.023 A 
ATOM      9  C   UNL     1      -2.171  -3.228  -5.882  0.00  0.00    +0.004 A 
ATOM     10  C   UNL     1      -1.141  -4.128  -6.090  0.00  0.00    +0.028 A 
ATOM     11  C   UNL     1       0.167  -3.684  -6.148  0.00  0.00    +0.107 A 
ATOM     12  C   UNL     1       0.449  -2.339  -6.004  0.00  0.00    +0.052 A 
BRANCH  11  13
ATOM     13  S   UNL     1       1.476  -4.834  -6.411  0.00  0.00    +0.059 S 
ATOM     14  O   UNL     1       2.587  -4.363  -5.662  0.00  0.00    -0.153 OA
ATOM     15  O   UNL     1       0.922  -6.129  -6.222  0.00  0.00    -0.153 OA
BRANCH  13  16
ATOM     16  N   UNL     1       1.904  -4.731  -8.008  0.00  0.00    -0.185 NA
ATOM     17  H   UNL     1       2.781  -4.397  -8.254  0.00  0.00    +0.149 HD
BRANCH  16  18
ATOM     18  C   UNL     1       0.958  -5.143  -9.048  0.00  0.00    +0.032 C 
ATOM     19  C   UNL     1      -0.380  -4.435  -8.831  0.00  0.00    +0.029 C 
ATOM     20  C   UNL     1       1.517  -4.769 -10.422  0.00  0.00    +0.029 C 
ATOM     21  C   UNL     1       0.751  -6.658  -8.977  0.00  0.00    +0.029 C 
ENDBRANCH  16  18
ENDBRANCH  13  16
ENDBRANCH  11  13
ENDBRANCH   5   7
BRANCH   1  23
ATOM     22  C   UNL     1      -2.083   3.974  -4.394  0.00  0.00    +0.036 C 
ATOM     23  C   UNL     1      -1.491   2.779  -3.645  0.00  0.00    +0.140 C 
BRANCH  23  24
ATOM     24  C   UNL     1      -0.607   3.273  -2.529  0.00  0.00    +0.126 A 
ATOM     25  C   UNL     1      -0.965   3.340  -1.239  0.00  0.00    +0.055 A 
ATOM     26  C   UNL     1       0.198   3.874  -0.519  0.00  0.00    +0.020 A 
ATOM     27  C   UNL     1       0.463   4.176   0.816  0.00  0.00    +0.011 A 
ATOM     28  C   UNL     1       1.686   4.676   1.167  0.00  0.00    +0.001 A 
ATOM     29  C   UNL     1       2.663   4.885   0.204  0.00  0.00    +0.004 A 
ATOM     30  C   UNL     1       2.418   4.593  -1.121  0.00  0.00    +0.047 A 
ATOM     31  C   UNL     1       1.182   4.083  -1.499  0.00  0.00    +0.135 A 
ATOM     32  O   UNL     1       0.657   3.705  -2.682  0.00  0.00    -0.458 OA
ENDBRANCH  23  24
ENDBRANCH   1  23
TORSDOF 6
