REMARK  Name = ZINC62398653
REMARK  9 active torsions:
REMARK  status: ('A' for Active; 'I' for Inactive)
REMARK    1  A    between atoms: C_1  and  C_2
REMARK    2  A    between atoms: C_2  and  C_3
REMARK    3  A    between atoms: C_3  and  C_4
REMARK    4  A    between atoms: C_4  and  S_5
REMARK    5  A    between atoms: S_5  and  C_6
REMARK    6  A    between atoms: C_8  and  C_17
REMARK    7  A    between atoms: C_10  and  C_14
REMARK    8  A    between atoms: C_11  and  C_13
REMARK    9  A    between atoms: C_22  and  C_23
REMARK                            x       y       z     vdW  Elec       q    Type
REMARK                         _______ _______ _______ _____ _____    ______ ____
ROOT
ATOM      1  C   UNL     1      -2.557  -4.681   0.315  0.00  0.00    +0.133 C 
ATOM      2  N   UNL     1      -3.694  -5.124  -0.122  0.00  0.00    -0.357 N 
ATOM      3  C   UNL     1      -3.911  -6.521  -0.476  0.00  0.00    +0.150 C 
ATOM      4  C   UNL     1      -2.607  -7.246  -0.652  0.00  0.00    +0.084 C 
ATOM      5  C   UNL     1      -1.454  -6.726  -0.179  0.00  0.00    +0.019 C 
ATOM      6  N   UNL     1      -1.468  -5.515   0.456  0.00  0.00    -0.299 N 
ATOM      7  C   UNL     1      -0.158  -7.473  -0.354  0.00  0.00    +0.061 C 
ATOM      8  H   UNL     1      -0.716  -5.246   1.006  0.00  0.00    +0.154 HD
ATOM      9  H   UNL     1      -4.431  -4.500  -0.218  0.00  0.00    +0.162 HD
ENDROOT
BRANCH   3  10
ATOM     10  C   UNL     1      -4.704  -7.191   0.617  0.00  0.00    -0.018 A 
ATOM     11  C   UNL     1      -4.065  -8.002   1.536  0.00  0.00    +0.006 A 
ATOM     12  C   UNL     1      -4.792  -8.616   2.538  0.00  0.00    +0.000 A 
ATOM     13  C   UNL     1      -6.158  -8.418   2.622  0.00  0.00    +0.000 A 
ATOM     14  C   UNL     1      -6.796  -7.605   1.704  0.00  0.00    +0.004 A 
ATOM     15  C   UNL     1      -6.068  -6.988   0.704  0.00  0.00    -0.045 A 
ATOM     16  C   UNL     1      -6.763  -6.098  -0.294  0.00  0.00    +0.044 C 
ENDBRANCH   3  10
BRANCH   4  17
ATOM     17  C   UNL     1      -2.586  -8.487  -1.318  0.00  0.00    +0.386 C 
ATOM     18  O   UNL     1      -1.516  -9.022  -1.585  0.00  0.00    -0.241 OA
ATOM     19  O   UNL     1      -3.638  -9.032  -1.632  0.00  0.00    -0.241 OA
ENDBRANCH   4  17
BRANCH   1  20
ATOM     20  S   UNL     1      -2.398  -2.977   0.731  0.00  0.00    -0.092 S 
BRANCH  20  21
ATOM     21  C   UNL     1      -0.675  -2.817   1.275  0.00  0.00    +0.077 C 
BRANCH  21  22
ATOM     22  C   UNL     1      -0.397  -1.365   1.671  0.00  0.00    +0.011 C 
BRANCH  22  24
ATOM     23  C   UNL     1       1.333   0.221   2.526  0.00  0.00    +0.004 C 
ATOM     24  C   UNL     1       1.056  -1.231   2.130  0.00  0.00    -0.003 C 
ENDBRANCH  22  24
ENDBRANCH  21  22
ENDBRANCH  20  21
ENDBRANCH   1  20
TORSDOF 6
