REMARK  Name = ZINC22531476
REMARK  8 active torsions:
REMARK  status: ('A' for Active; 'I' for Inactive)
REMARK    1  A    between atoms: C_1  and  C_2
REMARK    2  A    between atoms: C_2  and  C_3
REMARK    3  A    between atoms: C_2  and  O_4
REMARK    4  A    between atoms: O_4  and  C_5
REMARK    5  A    between atoms: C_8  and  C_11
REMARK    6  A    between atoms: C_17  and  C_25
REMARK    7  A    between atoms: C_19  and  C_23
REMARK    8  A    between atoms: C_20  and  N_22
REMARK                            x       y       z     vdW  Elec       q    Type
REMARK                         _______ _______ _______ _____ _____    ______ ____
ROOT
ATOM      1  C   UNL     1      -2.162  -5.611  -2.120  0.00  0.00    +0.084 C 
ATOM      2  N   UNL     1      -1.255  -6.413  -2.612  0.00  0.00    -0.150 NA
ATOM      3  N   UNL     1      -1.796  -7.630  -3.029  0.00  0.00    -0.115 NA
ATOM      4  C   UNL     1      -3.054  -7.708  -2.782  0.00  0.00    +0.227 C 
ATOM      5  C   UNL     1      -3.478  -6.346  -2.238  0.00  0.00    +0.140 C 
ATOM      6  C   UNL     1      -4.080  -6.615  -0.854  0.00  0.00    +0.083 C 
ATOM      7  C   UNL     1      -4.943  -7.846  -0.925  0.00  0.00    +0.095 C 
ATOM      8  C   UNL     1      -4.839  -8.795  -1.878  0.00  0.00    +0.200 C 
ATOM      9  O   UNL     1      -3.943  -8.719  -2.900  0.00  0.00    -0.425 OA
ENDROOT
BRANCH   6  10
ATOM     10  C   UNL     1      -2.972  -6.830   0.145  0.00  0.00    -0.024 A 
ATOM     11  C   UNL     1      -2.069  -7.861  -0.036  0.00  0.00    +0.005 A 
ATOM     12  C   UNL     1      -1.052  -8.058   0.879  0.00  0.00    +0.000 A 
ATOM     13  C   UNL     1      -0.939  -7.224   1.977  0.00  0.00    +0.001 A 
ATOM     14  C   UNL     1      -1.841  -6.194   2.158  0.00  0.00    +0.015 A 
ATOM     15  C   UNL     1      -2.856  -5.993   1.239  0.00  0.00    +0.022 A 
ATOM     16 BR   UNL     1      -4.087  -4.579   1.484  0.00  0.00    -0.050 Br
ENDBRANCH   6  10
BRANCH   1  20
ATOM     17  C   UNL     1      -1.538  -1.738  -0.505  0.00  0.00    +0.121 A 
ATOM     18  C   UNL     1      -0.461  -2.466  -0.996  0.00  0.00    +0.046 A 
ATOM     19  C   UNL     1      -0.658  -3.723  -1.522  0.00  0.00    +0.013 A 
ATOM     20  C   UNL     1      -1.946  -4.269  -1.560  0.00  0.00    -0.001 A 
ATOM     21  C   UNL     1      -3.027  -3.533  -1.064  0.00  0.00    +0.013 A 
ATOM     22  C   UNL     1      -2.818  -2.278  -0.536  0.00  0.00    +0.046 A 
BRANCH  17  23
ATOM     23  O   UNL     1      -1.339  -0.499   0.012  0.00  0.00    -0.489 OA
BRANCH  23  25
ATOM     24  C   UNL     1      -1.982   1.170   1.638  0.00  0.00    +0.051 C 
ATOM     25  C   UNL     1      -2.466   0.143   0.612  0.00  0.00    +0.167 C 
ATOM     26  C   UNL     1      -3.284   0.851  -0.470  0.00  0.00    +0.051 C 
ENDBRANCH  23  25
ENDBRANCH  17  23
ENDBRANCH   1  20
BRANCH   8  27
ATOM     27  N   UNL     1      -5.676  -9.881  -1.819  0.00  0.00    -0.328 N 
ATOM     28  H   UNL     1      -6.326  -9.954  -1.102  0.00  0.00    +0.145 HD
ATOM     29  H   UNL     1      -5.619 -10.575  -2.495  0.00  0.00    +0.145 HD
ENDBRANCH   8  27
BRANCH   7  30
ATOM     30  C   UNL     1      -5.940  -8.023   0.087  0.00  0.00    +0.100 C 
ATOM     31  N   UNL     1      -6.732  -8.162   0.890  0.00  0.00    -0.191 NA
ENDBRANCH   7  30
TORSDOF 6
