REMARK  Name = ZINC39610979
REMARK  7 active torsions:
REMARK  status: ('A' for Active; 'I' for Inactive)
REMARK    1  A    between atoms: C_1  and  N_2
REMARK    2  A    between atoms: C_3  and  N_23
REMARK    3  A    between atoms: C_5  and  C_12
REMARK    4  A    between atoms: N_8  and  C_11
REMARK    5  A    between atoms: C_12  and  C_14
REMARK    6  A    between atoms: C_14  and  S_15
REMARK    7  A    between atoms: S_15  and  C_16
REMARK                            x       y       z     vdW  Elec       q    Type
REMARK                         _______ _______ _______ _____ _____    ______ ____
ROOT
ATOM      1  C   UNL     1      -0.128   1.503   0.528  0.00  0.00    +0.132 C 
ATOM      2  N   UNL     1      -0.075   0.040   0.471  0.00  0.00    -0.298 N 
ATOM      3  C   UNL     1      -1.300  -0.746   0.250  0.00  0.00    +0.056 C 
ATOM      4  C   UNL     1      -1.150  -2.254   0.204  0.00  0.00    +0.061 C 
ATOM      5  C   UNL     1       0.118  -2.772   0.373  0.00  0.00    +0.253 C 
ATOM      6  O   UNL     1       0.303  -4.107   0.340  0.00  0.00    -0.270 OA
ATOM      7  N   UNL     1       1.188  -1.945   0.572  0.00  0.00    -0.225 N 
ATOM      8  C   UNL     1       1.095  -0.610   0.613  0.00  0.00    +0.310 C 
ATOM      9  O   UNL     1       2.106   0.040   0.791  0.00  0.00    -0.252 OA
ATOM     10  C   UNL     1       2.509  -2.552   0.745  0.00  0.00    +0.143 C 
ENDROOT
BRANCH   3  11
ATOM     11  N   UNL     1      -2.248  -0.419   1.323  0.00  0.00    +0.393 N 
ATOM     12  H   UNL     1      -2.392   0.580   1.352  0.00  0.00    -0.087 HD
ATOM     13  H   UNL     1      -3.129  -0.879   1.146  0.00  0.00    -0.087 HD
ATOM     14  H   UNL     1      -1.877  -0.731   2.207  0.00  0.00    -0.087 HD
ENDBRANCH   3  11
BRANCH   4  15
ATOM     15  C   UNL     1      -2.250  -3.085   0.000  0.00  0.00    +0.174 C 
ATOM     16  O   UNL     1      -3.337  -2.603  -0.258  0.00  0.00    -0.291 OA
BRANCH  15  17
ATOM     17  C   UNL     1      -2.094  -4.581   0.100  0.00  0.00    +0.156 C 
BRANCH  17  18
ATOM     18  S   UNL     1      -3.719  -5.371  -0.059  0.00  0.00    -0.080 S 
BRANCH  18  19
ATOM     19  C   UNL     1      -3.370  -7.093   0.076  0.00  0.00    +0.169 A 
ATOM     20  N   UNL     1      -4.391  -7.991  -0.008  0.00  0.00    -0.302 N 
ATOM     21  C   UNL     1      -4.131  -9.312   0.095  0.00  0.00    +0.252 A 
ATOM     22  O   UNL     1      -5.033 -10.130   0.022  0.00  0.00    -0.268 OA
ATOM     23  C   UNL     1      -2.801  -9.726   0.288  0.00  0.00    +0.090 A 
ATOM     24  C   UNL     1      -1.820  -8.781   0.364  0.00  0.00    +0.119 A 
ATOM     25  N   UNL     1      -2.125  -7.490   0.252  0.00  0.00    -0.232 NA
ATOM     26  H   UNL     1      -5.301  -7.682  -0.140  0.00  0.00    +0.171 HD
ENDBRANCH  18  19
ENDBRANCH  17  18
ENDBRANCH  15  17
ENDBRANCH   4  15
TORSDOF 5
