REMARK  Name = ZINC34990424
REMARK  4 active torsions:
REMARK  status: ('A' for Active; 'I' for Inactive)
REMARK    1  A    between atoms: C_1  and  C_2
REMARK    2  A    between atoms: C_7  and  C_12
REMARK    3  A    between atoms: C_12  and  C_13
REMARK    4  A    between atoms: C_14  and  C_27
REMARK                            x       y       z     vdW  Elec       q    Type
REMARK                         _______ _______ _______ _____ _____    ______ ____
ROOT
ATOM      1  C   UNL     1       6.907  -1.363  -0.236  0.00  0.00    +0.077 C 
ATOM      2  C   UNL     1       6.959  -1.347   1.274  0.00  0.00    +0.152 C 
ATOM      3  N   UNL     1       8.377  -1.460   1.635  0.00  0.00    -0.237 N 
ATOM      4  C   UNL     1       9.089  -1.534   0.496  0.00  0.00    +0.293 C 
ATOM      5  O   UNL     1      10.299  -1.635   0.436  0.00  0.00    -0.266 OA
ATOM      6  C   UNL     1       8.184  -1.480  -0.670  0.00  0.00    +0.250 C 
ATOM      7  O   UNL     1       8.570  -1.536  -1.965  0.00  0.00    -0.282 OA
ATOM      8  C   UNL     1       8.893  -1.484   2.928  0.00  0.00    +0.129 A 
ATOM      9  C   UNL     1       8.027  -1.509   4.016  0.00  0.00    +0.044 A 
ATOM     10  C   UNL     1       8.553  -1.534   5.295  0.00  0.00    +0.005 A 
ATOM     11  C   UNL     1       9.934  -1.534   5.443  0.00  0.00    +0.020 A 
ATOM     12  C   UNL     1      10.735  -1.508   4.319  0.00  0.00    +0.113 A 
ATOM     13  N   UNL     1      10.204  -1.490   3.111  0.00  0.00    -0.240 NA
ENDROOT
BRANCH   2  14
ATOM     14  C   UNL     1       6.391  -0.053   1.798  0.00  0.00    -0.014 A 
ATOM     15  C   UNL     1       7.213   1.003   2.046  0.00  0.00    +0.006 A 
ATOM     16  C   UNL     1       6.706   2.207   2.530  0.00  0.00    +0.001 A 
ATOM     17  C   UNL     1       5.375   2.362   2.771  0.00  0.00    +0.008 A 
ATOM     18  C   UNL     1       4.496   1.293   2.527  0.00  0.00    -0.018 A 
ATOM     19  C   UNL     1       5.011   0.070   2.028  0.00  0.00    -0.013 A 
ATOM     20  C   UNL     1       4.130  -0.997   1.779  0.00  0.00    +0.009 A 
ATOM     21  C   UNL     1       2.799  -0.841   2.014  0.00  0.00    +0.001 A 
ATOM     22  C   UNL     1       2.292   0.364   2.498  0.00  0.00    +0.001 A 
ATOM     23  C   UNL     1       3.116   1.414   2.764  0.00  0.00    +0.008 A 
ENDBRANCH   2  14
BRANCH   1  24
ATOM     24  C   UNL     1       5.705  -1.276  -1.071  0.00  0.00    +0.195 C 
ATOM     25  O   UNL     1       5.159  -0.201  -1.242  0.00  0.00    -0.287 OA
BRANCH  24  31
ATOM     26  C   UNL     1       1.220  -5.830  -2.621  0.00  0.00    +0.052 C 
ATOM     27  C   UNL     1       2.101  -5.365  -3.783  0.00  0.00    +0.175 C 
ATOM     28  C   UNL     1       2.196  -3.822  -3.816  0.00  0.00    +0.083 C 
ATOM     29  C   UNL     1       3.451  -3.568  -3.003  0.00  0.00    -0.002 A 
ATOM     30  C   UNL     1       3.953  -2.433  -2.417  0.00  0.00    +0.019 A 
ATOM     31  C   UNL     1       5.156  -2.491  -1.705  0.00  0.00    +0.023 A 
ATOM     32  C   UNL     1       5.835  -3.709  -1.599  0.00  0.00    +0.015 A 
ATOM     33  C   UNL     1       5.325  -4.838  -2.193  0.00  0.00    +0.046 A 
ATOM     34  C   UNL     1       4.126  -4.782  -2.907  0.00  0.00    +0.124 A 
ATOM     35  O   UNL     1       3.466  -5.769  -3.579  0.00  0.00    -0.488 OA
ENDBRANCH  24  31
ENDBRANCH   1  24
TORSDOF 3
