REMARK  Name = ZINC64594187
REMARK  7 active torsions:
REMARK  status: ('A' for Active; 'I' for Inactive)
REMARK    1  A    between atoms: C_1  and  N_2
REMARK    2  A    between atoms: C_10  and  N_12
REMARK    3  A    between atoms: C_13  and  C_15
REMARK    4  A    between atoms: N_17  and  C_18
REMARK    5  A    between atoms: N_17  and  C_21
REMARK    6  A    between atoms: C_18  and  C_19
REMARK    7  A    between atoms: C_21  and  C_22
REMARK                            x       y       z     vdW  Elec       q    Type
REMARK                         _______ _______ _______ _____ _____    ______ ____
ROOT
ATOM      1  N   UNL     1       5.171  -2.407   1.143  0.00  0.00    -0.278 N 
ATOM      2  C   UNL     1       6.244  -1.720   0.701  0.00  0.00    +0.303 C 
ATOM      3  O   UNL     1       6.196  -0.511   0.613  0.00  0.00    -0.265 OA
ATOM      4  H   UNL     1       5.235  -3.363   1.290  0.00  0.00    +0.155 HD
ENDROOT
BRANCH   1  14
ATOM      5  C   UNL     1      -0.634  -0.381   3.002  0.00  0.00    +0.129 C 
ATOM      6  N   UNL     1       0.371   0.236   2.134  0.00  0.00    -0.333 N 
ATOM      7  C   UNL     1       0.127   1.552   1.526  0.00  0.00    +0.105 C 
ATOM      8  C   UNL     1       0.554   1.475   0.055  0.00  0.00    +0.024 C 
ATOM      9  C   UNL     1       2.056   1.202  -0.010  0.00  0.00    +0.038 C 
ATOM     10  C   UNL     1       2.413   0.015   0.847  0.00  0.00    -0.025 A 
ATOM     11  C   UNL     1       1.583  -0.415   1.873  0.00  0.00    +0.033 A 
ATOM     12  C   UNL     1       1.945  -1.508   2.653  0.00  0.00    +0.025 A 
ATOM     13  C   UNL     1       3.132  -2.168   2.414  0.00  0.00    +0.025 A 
ATOM     14  C   UNL     1       3.967  -1.739   1.390  0.00  0.00    +0.034 A 
ATOM     15  C   UNL     1       3.601  -0.652   0.602  0.00  0.00    +0.028 A 
ENDBRANCH   1  14
BRANCH   2  16
ATOM     16  C   UNL     1       7.490  -2.449   0.318  0.00  0.00    +0.302 C 
ATOM     17  O   UNL     1       7.565  -3.649   0.477  0.00  0.00    -0.265 OA
ATOM     18  N   UNL     1       8.533  -1.772  -0.204  0.00  0.00    -0.286 N 
BRANCH  18  19
ATOM     19  C   UNL     1       9.743  -2.491  -0.610  0.00  0.00    +0.135 C 
BRANCH  19  20
ATOM     20  C   UNL     1       9.668  -2.810  -2.081  0.00  0.00    -0.016 C 
ATOM     21  C   UNL     1      10.632  -2.430  -2.883  0.00  0.00    +0.005 C 
ENDBRANCH  19  20
ENDBRANCH  18  19
BRANCH  18  22
ATOM     22  C   UNL     1       8.455  -0.318  -0.365  0.00  0.00    +0.135 C 
BRANCH  22  23
ATOM     23  C   UNL     1       8.790   0.351   0.943  0.00  0.00    -0.016 C 
ATOM     24  C   UNL     1       9.746   1.246   0.996  0.00  0.00    +0.005 C 
ENDBRANCH  22  23
ENDBRANCH  18  22
ENDBRANCH   2  16
TORSDOF 6
