REMARK  Name = ZINC43221178
REMARK  7 active torsions:
REMARK  status: ('A' for Active; 'I' for Inactive)
REMARK    1  A    between atoms: C_4  and  C_7
REMARK    2  A    between atoms: C_7  and  C_8
REMARK    3  A    between atoms: C_8  and  C_37
REMARK    4  A    between atoms: C_13  and  C_16
REMARK    5  A    between atoms: C_21  and  O_22
REMARK    6  A    between atoms: N_25  and  C_28
REMARK    7  A    between atoms: C_32  and  N_34
REMARK                            x       y       z     vdW  Elec       q    Type
REMARK                         _______ _______ _______ _____ _____    ______ ____
ROOT
ATOM      1  C   UNL     1       4.223  -0.934   1.361  0.00  0.00    +0.138 C 
ATOM      2  C   UNL     1       5.506  -1.790   1.409  0.00  0.00    +0.121 C 
ATOM      3  C   UNL     1       5.306  -2.741   2.619  0.00  0.00    +0.111 C 
ATOM      4  C   UNL     1       3.927  -2.359   3.198  0.00  0.00    +0.101 C 
ATOM      5  N   UNL     1       3.195  -1.758   2.046  0.00  0.00    -0.293 NA
ATOM      6  C   UNL     1       5.231  -4.109   1.980  0.00  0.00    +0.232 C 
ATOM      7  O   UNL     1       5.077  -5.153   2.576  0.00  0.00    -0.274 OA
ATOM      8  N   UNL     1       5.362  -3.987   0.654  0.00  0.00    -0.210 N 
ATOM      9  C   UNL     1       5.530  -2.718   0.216  0.00  0.00    +0.232 C 
ATOM     10  O   UNL     1       5.674  -2.373  -0.938  0.00  0.00    -0.274 OA
ATOM     11  H   UNL     1       2.429  -1.186   2.369  0.00  0.00    +0.124 HD
ENDROOT
BRANCH   4  12
ATOM     12  C   UNL     1       3.202  -3.589   3.681  0.00  0.00    +0.012 A 
ATOM     13  C   UNL     1       2.303  -4.232   2.851  0.00  0.00    +0.009 A 
ATOM     14  C   UNL     1       1.637  -5.359   3.294  0.00  0.00    +0.001 A 
ATOM     15  C   UNL     1       1.869  -5.848   4.567  0.00  0.00    +0.004 A 
ATOM     16  C   UNL     1       2.767  -5.209   5.399  0.00  0.00    +0.046 A 
ATOM     17  C   UNL     1       3.441  -4.080   4.956  0.00  0.00    +0.122 A 
BRANCH  17  18
ATOM     18  O   UNL     1       4.329  -3.453   5.771  0.00  0.00    -0.506 OA
ATOM     19  H   UNL     1       3.937  -2.764   6.324  0.00  0.00    +0.292 HD
ENDBRANCH  17  18
ENDBRANCH   4  12
BRANCH   8  20
ATOM     20  C   UNL     1       5.335  -5.088  -0.215  0.00  0.00    +0.046 A 
ATOM     21  C   UNL     1       4.286  -5.240  -1.111  0.00  0.00    +0.024 A 
ATOM     22  C   UNL     1       4.262  -6.325  -1.965  0.00  0.00    +0.004 A 
ATOM     23  C   UNL     1       5.282  -7.258  -1.929  0.00  0.00    +0.033 A 
ATOM     24  C   UNL     1       6.328  -7.109  -1.037  0.00  0.00    +0.128 A 
ATOM     25  C   UNL     1       6.361  -6.023  -0.184  0.00  0.00    +0.056 A 
BRANCH  24  26
ATOM     26  N   UNL     1       7.418  -8.110  -1.001  0.00  0.00    +0.056 N 
ATOM     27  O   UNL     1       7.392  -9.058  -1.751  0.00  0.00    -0.126 OA
ATOM     28  O   UNL     1       8.332  -7.980  -0.222  0.00  0.00    -0.126 OA
ENDBRANCH  24  26
ENDBRANCH   8  20
BRANCH   1  29
ATOM     29  C   UNL     1       4.428   0.366   2.094  0.00  0.00    +0.377 C 
ATOM     30  O   UNL     1       3.746   0.630   3.070  0.00  0.00    -0.244 OA
ATOM     31  O   UNL     1       5.276   1.154   1.712  0.00  0.00    -0.244 OA
ENDBRANCH   1  29
BRANCH   1  32
ATOM     32  C   UNL     1       3.814  -0.669  -0.089  0.00  0.00    +0.069 C 
BRANCH  32  36
ATOM     33  C   UNL     1       0.138   1.507  -0.158  0.00  0.00    +0.000 A 
ATOM     34  C   UNL     1       1.342   2.185  -0.129  0.00  0.00    +0.000 A 
ATOM     35  C   UNL     1       2.532   1.481  -0.107  0.00  0.00    +0.004 A 
ATOM     36  C   UNL     1       2.517   0.099  -0.113  0.00  0.00    -0.045 A 
ATOM     37  C   UNL     1       1.313  -0.580  -0.141  0.00  0.00    +0.004 A 
ATOM     38  C   UNL     1       0.123   0.124  -0.164  0.00  0.00    +0.000 A 
ENDBRANCH  32  36
ENDBRANCH   1  32
TORSDOF 7
