REMARK  Name = ZINC26534502
REMARK  7 active torsions:
REMARK  status: ('A' for Active; 'I' for Inactive)
REMARK    1  A    between atoms: C_1  and  C_2
REMARK    2  A    between atoms: C_2  and  C_3
REMARK    3  A    between atoms: C_3  and  C_4
REMARK    4  A    between atoms: C_7  and  N_10
REMARK    5  A    between atoms: N_10  and  S_11
REMARK    6  A    between atoms: S_11  and  C_14
REMARK    7  A    between atoms: N_16  and  C_19
REMARK                            x       y       z     vdW  Elec       q    Type
REMARK                         _______ _______ _______ _____ _____    ______ ____
ROOT
ATOM      1  S   UNL     1      -0.439  -7.008  -2.004  0.00  0.00    +0.110 S 
ATOM      2  O   UNL     1      -1.604  -6.755  -1.232  0.00  0.00    -0.147 OA
ATOM      3  O   UNL     1      -0.370  -6.726  -3.395  0.00  0.00    -0.147 OA
ENDROOT
BRANCH   1   4
ATOM      4  C   UNL     1      -0.076  -8.723  -1.821  0.00  0.00    +0.214 A 
ATOM      5  C   UNL     1       0.969  -9.375  -2.369  0.00  0.00    +0.154 A 
ATOM      6  N   UNL     1       0.872 -10.682  -1.973  0.00  0.00    -0.324 N 
ATOM      7  C   UNL     1      -0.230 -10.783  -1.196  0.00  0.00    +0.176 A 
ATOM      8  N   UNL     1      -0.788  -9.607  -1.106  0.00  0.00    -0.329 N 
ATOM      9  C   UNL     1       1.790 -11.767  -2.325  0.00  0.00    +0.151 C 
ATOM     10 CL   UNL     1       2.201  -8.689  -3.381  0.00  0.00    -0.060 Cl
ATOM     11  H   UNL     1      -1.593  -9.405  -0.603  0.00  0.00    +0.168 HD
ENDBRANCH   1   4
BRANCH   1  12
ATOM     12  N   UNL     1       0.795  -6.168  -1.288  0.00  0.00    -0.096 NA
BRANCH  12  16
ATOM     13  C   UNL     1       0.739  -2.004  -1.265  0.00  0.00    -0.047 A 
ATOM     14  C   UNL     1       1.789  -2.683  -0.674  0.00  0.00    +0.005 A 
ATOM     15  C   UNL     1       1.811  -4.064  -0.680  0.00  0.00    +0.027 A 
ATOM     16  C   UNL     1       0.776  -4.771  -1.280  0.00  0.00    +0.074 A 
ATOM     17  C   UNL     1      -0.277  -4.086  -1.873  0.00  0.00    +0.027 A 
ATOM     18  C   UNL     1      -0.295  -2.705  -1.858  0.00  0.00    +0.005 A 
BRANCH  13  19
ATOM     19  C   UNL     1       0.718  -0.497  -1.257  0.00  0.00    +0.035 C 
BRANCH  19  21
ATOM     20  C   UNL     1      -0.019   1.526   0.010  0.00  0.00    +0.004 C 
ATOM     21  C   UNL     1       0.002  -0.004   0.002  0.00  0.00    +0.001 C 
ENDBRANCH  19  21
ENDBRANCH  13  19
ENDBRANCH  12  16
ENDBRANCH   1  12
TORSDOF 5
