REMARK  Name = ZINC03459221
REMARK  8 active torsions:
REMARK  status: ('A' for Active; 'I' for Inactive)
REMARK    1  A    between atoms: C_1  and  C_2
REMARK    2  A    between atoms: C_7  and  C_9
REMARK    3  A    between atoms: C_7  and  C_10
REMARK    4  A    between atoms: N_13  and  C_17
REMARK    5  A    between atoms: C_17  and  C_18
REMARK    6  A    between atoms: N_20  and  C_21
REMARK    7  A    between atoms: C_24  and  O_27
REMARK    8  A    between atoms: O_27  and  C_28
REMARK                            x       y       z     vdW  Elec       q    Type
REMARK                         _______ _______ _______ _____ _____    ______ ____
ROOT
ATOM      1  C   UNL     1      -0.034   1.538  -0.007  0.00  0.00    +0.007 C 
ATOM      2  C   UNL     1      -0.006   0.007  -0.014  0.00  0.00    -0.011 C 
ATOM      3  C   UNL     1      -1.441  -0.524   0.014  0.00  0.00    +0.038 C 
ATOM      4  C   UNL     1      -1.426  -2.046  -0.041  0.00  0.00    +0.113 C 
ATOM      5  C   UNL     1      -0.564  -2.667   1.040  0.00  0.00    +0.041 C 
ATOM      6  C   UNL     1       0.791  -2.014   1.253  0.00  0.00    -0.032 C 
ATOM      7  C   UNL     1       0.720  -0.492   1.234  0.00  0.00    +0.009 C 
ATOM      8  C   UNL     1       1.315  -2.443   2.641  0.00  0.00    +0.011 C 
ATOM      9  C   UNL     1       1.800  -2.507   0.211  0.00  0.00    +0.011 C 
ATOM     10  C   UNL     1      -1.049  -2.530  -1.419  0.00  0.00    +0.247 C 
ATOM     11  O   UNL     1      -0.068  -2.245  -2.073  0.00  0.00    -0.273 OA
ATOM     12  N   UNL     1      -2.053  -3.345  -1.810  0.00  0.00    -0.215 N 
ATOM     13  C   UNL     1      -3.061  -3.336  -0.931  0.00  0.00    +0.310 C 
ATOM     14  O   UNL     1      -4.084  -3.978  -1.069  0.00  0.00    -0.252 OA
ATOM     15  N   UNL     1      -2.812  -2.539   0.123  0.00  0.00    -0.285 N 
ATOM     16  H   UNL     1      -3.410  -2.321   0.852  0.00  0.00    +0.151 HD
ENDROOT
BRANCH  12  17
ATOM     17  C   UNL     1      -2.038  -4.136  -3.042  0.00  0.00    +0.214 C 
BRANCH  17  18
ATOM     18  C   UNL     1      -1.430  -5.487  -2.764  0.00  0.00    +0.235 C 
ATOM     19  O   UNL     1      -1.047  -5.761  -1.645  0.00  0.00    -0.274 OA
ATOM     20  N   UNL     1      -1.311  -6.390  -3.757  0.00  0.00    -0.284 N 
ATOM     21  H   UNL     1      -1.677  -6.197  -4.634  0.00  0.00    +0.155 HD
BRANCH  20  22
ATOM     22  C   UNL     1      -0.659  -7.608  -3.522  0.00  0.00    +0.034 A 
ATOM     23  C   UNL     1       0.105  -8.191  -4.524  0.00  0.00    +0.027 A 
ATOM     24  C   UNL     1       0.748  -9.391  -4.291  0.00  0.00    +0.047 A 
ATOM     25  C   UNL     1       0.630 -10.014  -3.058  0.00  0.00    +0.127 A 
ATOM     26  C   UNL     1      -0.134  -9.432  -2.056  0.00  0.00    +0.047 A 
ATOM     27  C   UNL     1      -0.772  -8.229  -2.285  0.00  0.00    +0.027 A 
BRANCH  25  28
ATOM     28  O   UNL     1       1.262 -11.196  -2.830  0.00  0.00    -0.434 OA
BRANCH  28  29
ATOM     29  C   UNL     1       1.097 -11.782  -1.537  0.00  0.00    +0.541 C 
ATOM     30  F   UNL     1       1.580 -10.902  -0.561  0.00  0.00    -0.166 F 
ATOM     31  F   UNL     1      -0.260 -12.032  -1.308  0.00  0.00    -0.166 F 
ENDBRANCH  28  29
ENDBRANCH  25  28
ENDBRANCH  20  22
ENDBRANCH  17  18
ENDBRANCH  12  17
TORSDOF 5
