REMARK  Name = ZINC52094716
REMARK  6 active torsions:
REMARK  status: ('A' for Active; 'I' for Inactive)
REMARK    1  A    between atoms: C_1  and  C_2
REMARK    2  A    between atoms: C_2  and  C_3
REMARK    3  A    between atoms: C_3  and  N_4
REMARK    4  A    between atoms: N_4  and  C_5
REMARK    5  A    between atoms: C_5  and  C_7
REMARK    6  A    between atoms: C_5  and  C_20
REMARK                            x       y       z     vdW  Elec       q    Type
REMARK                         _______ _______ _______ _____ _____    ______ ____
ROOT
ATOM      1  C   UNL     1      -2.769  -4.013   0.140  0.00  0.00    -0.045 A 
ATOM      2  C   UNL     1      -3.145  -4.798  -0.932  0.00  0.00    +0.031 A 
ATOM      3  C   UNL     1      -3.124  -6.179  -0.818  0.00  0.00    +0.067 A 
ATOM      4  C   UNL     1      -2.723  -6.772   0.382  0.00  0.00    +0.068 A 
ATOM      5  C   UNL     1      -2.347  -5.976   1.453  0.00  0.00    +0.043 A 
ATOM      6  C   UNL     1      -2.366  -4.600   1.328  0.00  0.00    +0.022 A 
ATOM      7 BR   UNL     1      -1.845  -3.514   2.786  0.00  0.00    -0.050 Br
ATOM      8  N   UNL     1      -2.804  -8.150   0.197  0.00  0.00    -0.306 N 
ATOM      9  H   UNL     1      -2.588  -8.825   0.859  0.00  0.00    +0.170 HD
ATOM     10  C   UNL     1      -3.235  -8.385  -1.057  0.00  0.00    +0.325 A 
ATOM     11  O   UNL     1      -3.415  -9.487  -1.541  0.00  0.00    -0.247 OA
ATOM     12  N   UNL     1      -3.437  -7.216  -1.694  0.00  0.00    -0.306 N 
ATOM     13  H   UNL     1      -3.747  -7.114  -2.607  0.00  0.00    +0.170 HD
ENDROOT
BRANCH   1  14
ATOM     14  C   UNL     1      -2.792  -2.511   0.015  0.00  0.00    -0.037 C 
BRANCH  14  15
ATOM     15  N   UNL     1      -1.422  -2.015  -0.177  0.00  0.00    +0.384 N 
ATOM     16  H   UNL     1      -1.064  -2.351  -1.059  0.00  0.00    -0.085 HD
ATOM     17  H   UNL     1      -0.836  -2.347   0.573  0.00  0.00    -0.085 HD
BRANCH  15  18
ATOM     18  C   UNL     1      -1.429  -0.546  -0.179  0.00  0.00    -0.082 C 
BRANCH  18  20
ATOM     19  C   UNL     1      -0.011   1.501  -0.382  0.00  0.00    +0.002 C 
ATOM     20  C   UNL     1      -0.003  -0.029  -0.380  0.00  0.00    -0.022 C 
ENDBRANCH  18  20
ENDBRANCH  15  18
ENDBRANCH  14  15
BRANCH  14  21
ATOM     21  C   UNL     1      -3.652  -2.112  -1.185  0.00  0.00    -0.021 C 
ATOM     22  C   UNL     1      -4.672  -0.990  -0.982  0.00  0.00    +0.002 C 
ATOM     23  C   UNL     1      -5.146  -2.437  -1.123  0.00  0.00    +0.002 C 
ENDBRANCH  14  21
ENDBRANCH   1  14
TORSDOF 5
