REMARK  Name = ZINC39561185
REMARK  6 active torsions:
REMARK  status: ('A' for Active; 'I' for Inactive)
REMARK    1  A    between atoms: C_5  and  N_8
REMARK    2  A    between atoms: C_9  and  C_11
REMARK    3  A    between atoms: C_11  and  O_12
REMARK    4  A    between atoms: O_12  and  C_13
REMARK    5  A    between atoms: C_13  and  C_15
REMARK    6  A    between atoms: C_17  and  N_23
REMARK                            x       y       z     vdW  Elec       q    Type
REMARK                         _______ _______ _______ _____ _____    ______ ____
ROOT
ATOM      1  O   UNL     1      -1.044  -4.777   0.932  0.00  0.00    -0.451 OA
ENDROOT
BRANCH   1   2
ATOM      2  C   UNL     1      -1.158  -6.112   1.074  0.00  0.00    +0.360 C 
ATOM      3  O   UNL     1      -0.212  -6.832   0.824  0.00  0.00    -0.243 OA
BRANCH   2   4
ATOM      4  C   UNL     1      -2.434  -6.701   1.534  0.00  0.00    +0.169 A 
ATOM      5  C   UNL     1      -2.542  -8.081   1.684  0.00  0.00    +0.095 A 
ATOM      6  C   UNL     1      -3.753  -8.621   2.120  0.00  0.00    +0.067 A 
ATOM      7  C   UNL     1      -4.808  -7.750   2.388  0.00  0.00    +0.100 A 
ATOM      8  C   UNL     1      -4.622  -6.387   2.214  0.00  0.00    +0.150 A 
ATOM      9  N   UNL     1      -3.465  -5.907   1.806  0.00  0.00    -0.226 NA
ATOM     10 CL   UNL     1      -5.931  -5.296   2.546  0.00  0.00    -0.060 Cl
ATOM     11 CL   UNL     1      -6.337  -8.364   2.932  0.00  0.00    -0.078 Cl
ATOM     12 CL   UNL     1      -1.192  -9.114   1.334  0.00  0.00    -0.079 Cl
BRANCH   6  13
ATOM     13  N   UNL     1      -3.904  -9.996   2.283  0.00  0.00    -0.356 N 
ATOM     14  H   UNL     1      -3.162 -10.592   2.093  0.00  0.00    +0.142 HD
ATOM     15  H   UNL     1      -4.751 -10.358   2.587  0.00  0.00    +0.142 HD
ENDBRANCH   6  13
ENDBRANCH   2   4
ENDBRANCH   1   2
BRANCH   1  16
ATOM     16  C   UNL     1       0.217  -4.277   0.483  0.00  0.00    +0.328 C 
BRANCH  16  18
ATOM     17  N   UNL     1       1.238  -2.081  -0.021  0.00  0.00    -0.280 N 
ATOM     18  C   UNL     1       0.155  -2.775   0.384  0.00  0.00    +0.255 C 
ATOM     19  O   UNL     1      -0.868  -2.190   0.670  0.00  0.00    -0.272 OA
ATOM     20  H   UNL     1       2.032  -2.552  -0.319  0.00  0.00    +0.155 HD
BRANCH  17  25
ATOM     21  C   UNL     1       0.783   1.397  -1.133  0.00  0.00    +0.042 A 
ATOM     22  C   UNL     1       1.172   2.088   0.002  0.00  0.00    +0.044 A 
ATOM     23  C   UNL     1       1.583   1.397   1.129  0.00  0.00    +0.042 A 
ATOM     24  C   UNL     1       1.605   0.015   1.124  0.00  0.00    +0.065 A 
ATOM     25  C   UNL     1       1.215  -0.681  -0.013  0.00  0.00    +0.071 A 
ATOM     26  C   UNL     1       0.803   0.015  -1.143  0.00  0.00    +0.065 A 
ATOM     27 CL   UNL     1       0.314  -0.850  -2.567  0.00  0.00    -0.082 Cl
ATOM     28 CL   UNL     1       2.121  -0.850   2.538  0.00  0.00    -0.082 Cl
ATOM     29 CL   UNL     1       1.145   3.823   0.011  0.00  0.00    -0.083 Cl
ENDBRANCH  17  25
ENDBRANCH  16  18
ENDBRANCH   1  16
TORSDOF 6
