REMARK  Name = ZINC39000544
REMARK  7 active torsions:
REMARK  status: ('A' for Active; 'I' for Inactive)
REMARK    1  A    between atoms: C_1  and  C_2
REMARK    2  A    between atoms: N_4  and  C_5
REMARK    3  A    between atoms: C_5  and  C_30
REMARK    4  A    between atoms: C_7  and  O_29
REMARK    5  A    between atoms: N_11  and  C_17
REMARK    6  A    between atoms: C_17  and  C_18
REMARK    7  A    between atoms: C_18  and  C_19
REMARK                            x       y       z     vdW  Elec       q    Type
REMARK                         _______ _______ _______ _____ _____    ______ ____
ROOT
ATOM      1  C   UNL     1       0.020  -2.136  -1.177  0.00  0.00    +0.236 C 
ATOM      2  C   UNL     1       0.145  -2.662  -2.586  0.00  0.00    +0.066 C 
ATOM      3  C   UNL     1      -0.133  -2.340  -3.820  0.00  0.00    +0.190 C 
ATOM      4  N   UNL     1       0.348  -3.121  -4.870  0.00  0.00    -0.240 N 
ATOM      5  C   UNL     1       1.235  -4.113  -4.694  0.00  0.00    +0.310 C 
ATOM      6  O   UNL     1       1.770  -4.604  -5.669  0.00  0.00    -0.252 OA
ATOM      7  N   UNL     1       1.552  -4.582  -3.465  0.00  0.00    -0.262 N 
ATOM      8  C   UNL     1       0.835  -4.004  -2.327  0.00  0.00    +0.199 C 
ATOM      9  N   UNL     1       1.746  -3.725  -1.219  0.00  0.00    -0.291 N 
ATOM     10  C   UNL     1       1.286  -2.664  -0.511  0.00  0.00    +0.252 C 
ATOM     11  O   UNL     1       1.798  -2.208   0.490  0.00  0.00    -0.273 OA
ATOM     12  H   UNL     1       0.027  -2.940  -5.767  0.00  0.00    +0.159 HD
ATOM     13  H   UNL     1       2.555  -4.222  -1.020  0.00  0.00    +0.151 HD
ENDROOT
BRANCH   1  17
ATOM     14  C   UNL     1      -0.018   1.503   0.010  0.00  0.00    +0.109 C 
ATOM     15  C   UNL     1       0.002  -0.004   0.002  0.00  0.00    +0.211 C 
ATOM     16  O   UNL     1       0.020  -0.616   1.049  0.00  0.00    -0.276 OA
ATOM     17  N   UNL     1       0.000  -0.672  -1.169  0.00  0.00    -0.291 N 
ATOM     18  H   UNL     1      -0.015  -0.182  -2.006  0.00  0.00    +0.150 HD
ENDBRANCH   1  17
BRANCH   1  19
ATOM     19  C   UNL     1      -1.228  -2.698  -0.492  0.00  0.00    +0.423 C 
ATOM     20  F   UNL     1      -2.369  -2.270  -1.180  0.00  0.00    -0.167 F 
ATOM     21  F   UNL     1      -1.175  -4.096  -0.500  0.00  0.00    -0.167 F 
ATOM     22  F   UNL     1      -1.281  -2.240   0.829  0.00  0.00    -0.167 F 
ENDBRANCH   1  19
BRANCH   3  23
ATOM     23  O   UNL     1      -0.889  -1.244  -4.081  0.00  0.00    -0.495 OA
ATOM     24  H   UNL     1      -1.042  -1.087  -5.023  0.00  0.00    +0.293 HD
ENDBRANCH   3  23
BRANCH   7  25
ATOM     25  C   UNL     1       2.566  -5.623  -3.281  0.00  0.00    +0.116 C 
BRANCH  25  26
ATOM     26  C   UNL     1       3.937  -4.971  -3.092  0.00  0.00    +0.056 C 
BRANCH  26  27
ATOM     27  C   UNL     1       4.981  -6.042  -2.904  0.00  0.00    -0.021 A 
ATOM     28  C   UNL     1       5.688  -6.766  -3.963  0.00  0.00    +0.006 A 
ATOM     29  C   UNL     1       5.648  -6.725  -5.358  0.00  0.00    +0.048 A 
ATOM     30  C   UNL     1       6.465  -7.562  -6.088  0.00  0.00    +0.124 A 
ATOM     31  C   UNL     1       7.324  -8.443  -5.441  0.00  0.00    +0.040 A 
ATOM     32  C   UNL     1       7.373  -8.494  -4.066  0.00  0.00    +0.029 A 
ATOM     33  C   UNL     1       6.558  -7.658  -3.310  0.00  0.00    +0.047 A 
ATOM     34  N   UNL     1       6.382  -7.479  -1.955  0.00  0.00    -0.360 N 
ATOM     35  C   UNL     1       5.444  -6.508  -1.733  0.00  0.00    +0.087 A 
ATOM     36  F   UNL     1       6.430  -7.526  -7.438  0.00  0.00    -0.205 F 
ATOM     37  H   UNL     1       6.856  -7.965  -1.262  0.00  0.00    +0.165 HD
ENDBRANCH  26  27
ENDBRANCH  25  26
ENDBRANCH   7  25
TORSDOF 6
