REMARK  Name = ZINC44793046
REMARK  5 active torsions:
REMARK  status: ('A' for Active; 'I' for Inactive)
REMARK    1  A    between atoms: C_4  and  C_7
REMARK    2  A    between atoms: C_10  and  N_12
REMARK    3  A    between atoms: C_13  and  C_15
REMARK    4  A    between atoms: C_15  and  C_20
REMARK    5  A    between atoms: N_21  and  O_22
REMARK                            x       y       z     vdW  Elec       q    Type
REMARK                         _______ _______ _______ _____ _____    ______ ____
ROOT
ATOM      1  N   UNL     1       5.383  -1.821  -1.541  0.00  0.00    -0.311 N 
ATOM      2  C   UNL     1       5.569  -2.169  -2.830  0.00  0.00    +0.227 C 
ATOM      3  O   UNL     1       4.627  -2.534  -3.501  0.00  0.00    -0.275 OA
ATOM      4  H   UNL     1       6.146  -1.601  -0.984  0.00  0.00    +0.149 HD
ENDROOT
BRANCH   2   5
ATOM      5  C   UNL     1       6.947  -2.104  -3.437  0.00  0.00    +0.105 C 
ATOM      6  C   UNL     1       7.515  -0.680  -3.303  0.00  0.00    +0.024 C 
ATOM      7  C   UNL     1       7.768  -0.169  -4.736  0.00  0.00    +0.001 C 
ATOM      8  C   UNL     1       6.809  -1.012  -5.614  0.00  0.00    +0.001 C 
ATOM      9  C   UNL     1       6.874  -2.408  -4.948  0.00  0.00    +0.024 C 
BRANCH   5  10
ATOM     10  C   UNL     1       7.858  -3.091  -2.755  0.00  0.00    +0.147 C 
ATOM     11  N   UNL     1       9.115  -3.123  -3.053  0.00  0.00    -0.076 NA
ATOM     12  N   UNL     1       7.351  -3.960  -1.814  0.00  0.00    -0.343 N 
ATOM     13  H   UNL     1       6.396  -3.991  -1.647  0.00  0.00    +0.144 HD
ATOM     14  H   UNL     1       7.949  -4.541  -1.319  0.00  0.00    +0.144 HD
BRANCH  11  15
ATOM     15  O   UNL     1       9.614  -2.314  -4.102  0.00  0.00    -0.408 OA
ATOM     16  H   UNL     1      10.565  -2.405  -4.250  0.00  0.00    +0.328 HD
ENDBRANCH  11  15
ENDBRANCH   5  10
ENDBRANCH   2   5
BRANCH   1  19
ATOM     17  C   UNL     1       3.792  -0.860   0.220  0.00  0.00    +0.041 C 
ATOM     18  C   UNL     1       3.820  -2.378   0.410  0.00  0.00    +0.033 C 
ATOM     19  C   UNL     1       4.030  -1.776  -0.982  0.00  0.00    +0.081 C 
BRANCH  17  23
ATOM     20  C   UNL     1       0.002   1.093   0.489  0.00  0.00    +0.000 A 
ATOM     21  C   UNL     1       1.162   1.841   0.420  0.00  0.00    +0.000 A 
ATOM     22  C   UNL     1       2.389   1.209   0.334  0.00  0.00    +0.004 A 
ATOM     23  C   UNL     1       2.455  -0.171   0.315  0.00  0.00    -0.042 A 
ATOM     24  C   UNL     1       1.295  -0.920   0.385  0.00  0.00    +0.004 A 
ATOM     25  C   UNL     1       0.069  -0.288   0.470  0.00  0.00    +0.000 A 
ENDBRANCH  17  23
ENDBRANCH   1  19
TORSDOF 5
