REMARK  Name = ZINC67296564
REMARK  3 active torsions:
REMARK  status: ('A' for Active; 'I' for Inactive)
REMARK    1  A    between atoms: C_1  and  C_2
REMARK    2  A    between atoms: C_9  and  C_11
REMARK    3  A    between atoms: N_21  and  C_22
REMARK                            x       y       z     vdW  Elec       q    Type
REMARK                         _______ _______ _______ _____ _____    ______ ____
ROOT
ATOM      1  C   UNL     1       0.070  -6.437  -0.984  0.00  0.00    +0.098 A 
ATOM      2  C   UNL     1       0.399  -7.191  -2.103  0.00  0.00    +0.030 A 
ATOM      3  C   UNL     1       0.685  -8.613  -1.896  0.00  0.00    +0.018 A 
ATOM      4  C   UNL     1       1.277  -9.379  -2.907  0.00  0.00    +0.011 A 
ATOM      5  C   UNL     1       1.538 -10.703  -2.690  0.00  0.00    +0.001 A 
ATOM      6  C   UNL     1       1.221 -11.293  -1.475  0.00  0.00    +0.004 A 
ATOM      7  C   UNL     1       0.635 -10.556  -0.465  0.00  0.00    +0.047 A 
ATOM      8  C   UNL     1       0.360  -9.211  -0.664  0.00  0.00    +0.137 A 
ATOM      9  O   UNL     1      -0.221  -8.472   0.312  0.00  0.00    -0.439 OA
ATOM     10  C   UNL     1       0.045  -7.138   0.316  0.00  0.00    +0.212 A 
ATOM     11  N   UNL     1       0.268  -6.492   1.439  0.00  0.00    -0.323 N 
ATOM     12  H   UNL     1       0.568  -5.570   1.416  0.00  0.00    +0.169 HD
ENDROOT
BRANCH   1  21
ATOM     13  C   UNL     1      -2.038   1.117  -0.359  0.00  0.00    +0.045 C 
ATOM     14  C   UNL     1      -1.651  -0.338  -0.297  0.00  0.00    -0.032 A 
ATOM     15  C   UNL     1      -0.827  -0.887  -1.270  0.00  0.00    +0.008 A 
ATOM     16  C   UNL     1      -0.495  -2.227  -1.175  0.00  0.00    +0.044 A 
ATOM     17  C   UNL     1      -0.996  -2.974  -0.114  0.00  0.00    +0.125 A 
ATOM     18  N   UNL     1      -1.780  -2.414   0.793  0.00  0.00    -0.240 NA
ATOM     19  C   UNL     1      -2.108  -1.138   0.732  0.00  0.00    +0.116 A 
ATOM     20  N   UNL     1      -0.671  -4.324  -0.007  0.00  0.00    -0.266 N 
ATOM     21  C   UNL     1      -0.234  -5.000  -1.088  0.00  0.00    +0.254 C 
ATOM     22  O   UNL     1      -0.092  -4.424  -2.149  0.00  0.00    -0.270 OA
ATOM     23  H   UNL     1      -0.758  -4.778   0.846  0.00  0.00    +0.157 HD
ENDBRANCH   1  21
BRANCH  11  24
ATOM     24  C   UNL     1       0.078  -7.120   2.639  0.00  0.00    +0.079 A 
ATOM     25  C   UNL     1      -1.113  -7.804   2.892  0.00  0.00    +0.029 A 
ATOM     26  C   UNL     1      -1.299  -8.435   4.105  0.00  0.00    +0.004 A 
ATOM     27  C   UNL     1      -0.309  -8.393   5.071  0.00  0.00    +0.023 A 
ATOM     28  C   UNL     1       0.875  -7.718   4.829  0.00  0.00    +0.078 A 
ATOM     29  C   UNL     1       1.078  -7.086   3.616  0.00  0.00    +0.165 A 
ATOM     30  F   UNL     1       2.236  -6.432   3.378  0.00  0.00    -0.202 F 
ATOM     31 CL   UNL     1       2.111  -7.671   6.047  0.00  0.00    -0.081 Cl
ENDBRANCH  11  24
TORSDOF 2
