REMARK  Name = ZINC00367031
REMARK  4 active torsions:
REMARK  status: ('A' for Active; 'I' for Inactive)
REMARK    1  A    between atoms: C_4  and  N_7
REMARK    2  A    between atoms: C_11  and  S_14
REMARK    3  A    between atoms: S_14  and  C_15
REMARK    4  A    between atoms: C_18  and  N_21
REMARK                            x       y       z     vdW  Elec       q    Type
REMARK                         _______ _______ _______ _____ _____    ______ ____
ROOT
ATOM      1  N   UNL     1       3.631  -0.633  -0.045  0.00  0.00    -0.196 N 
ATOM      2  C   UNL     1       3.638  -1.981  -0.038  0.00  0.00    +0.291 A 
ATOM      3  O   UNL     1       2.586  -2.601  -0.018  0.00  0.00    -0.264 OA
ATOM      4  C   UNL     1       4.860  -2.666  -0.054  0.00  0.00    +0.122 A 
ATOM      5  C   UNL     1       6.038  -1.939  -0.076  0.00  0.00    +0.056 A 
ATOM      6  C   UNL     1       5.981  -0.528  -0.083  0.00  0.00    +0.150 A 
ATOM      7  N   UNL     1       4.831   0.085  -0.074  0.00  0.00    -0.171 NA
ATOM      8 CL   UNL     1       4.897  -4.402  -0.044  0.00  0.00    -0.077 Cl
ENDROOT
BRANCH   1  12
ATOM      9  C   UNL     1       0.001   1.411   0.002  0.00  0.00    +0.000 A 
ATOM     10  C   UNL     1       0.979   1.763  -0.910  0.00  0.00    +0.002 A 
ATOM     11  C   UNL     1       2.183   1.087  -0.929  0.00  0.00    +0.028 A 
ATOM     12  C   UNL     1       2.412   0.054  -0.029  0.00  0.00    +0.069 A 
ATOM     13  C   UNL     1       1.427  -0.297   0.886  0.00  0.00    +0.028 A 
ATOM     14  C   UNL     1       0.225   0.383   0.899  0.00  0.00    +0.002 A 
ENDBRANCH   1  12
BRANCH   5  15
ATOM     15  S   UNL     1       7.594  -2.766  -0.097  0.00  0.00    -0.086 S 
BRANCH  15  16
ATOM     16  C   UNL     1       8.323  -2.340   1.450  0.00  0.00    +0.013 A 
ATOM     17  C   UNL     1       7.595  -1.615   2.385  0.00  0.00    +0.017 A 
ATOM     18  C   UNL     1       8.166  -1.282   3.597  0.00  0.00    +0.024 A 
ATOM     19  C   UNL     1       9.468  -1.672   3.882  0.00  0.00    +0.025 A 
ATOM     20  C   UNL     1      10.196  -2.397   2.947  0.00  0.00    +0.024 A 
ATOM     21  C   UNL     1       9.623  -2.735   1.738  0.00  0.00    +0.017 A 
BRANCH  19  22
ATOM     22  N   UNL     1      10.047  -1.334   5.110  0.00  0.00    -0.358 N 
ATOM     23  H   UNL     1       9.539  -0.828   5.763  0.00  0.00    +0.142 HD
ATOM     24  H   UNL     1      10.956  -1.607   5.309  0.00  0.00    +0.142 HD
ENDBRANCH  19  22
ENDBRANCH  15  16
ENDBRANCH   5  15
TORSDOF 4
