REMARK  Name = ZINC48817715
REMARK  7 active torsions:
REMARK  status: ('A' for Active; 'I' for Inactive)
REMARK    1  A    between atoms: C_1  and  C_2
REMARK    2  A    between atoms: C_2  and  C_3
REMARK    3  A    between atoms: C_3  and  C_5
REMARK    4  A    between atoms: C_3  and  N_13
REMARK    5  A    between atoms: C_10  and  O_11
REMARK    6  A    between atoms: N_13  and  C_14
REMARK    7  A    between atoms: C_14  and  C_15
REMARK                            x       y       z     vdW  Elec       q    Type
REMARK                         _______ _______ _______ _____ _____    ______ ____
ROOT
ATOM      1  C   UNL     1       0.606  -0.497  -1.314  0.00  0.00    -0.037 C 
ENDROOT
BRANCH   1   2
ATOM      2  C   UNL     1       0.399  -1.973  -1.539  0.00  0.00    -0.019 A 
ATOM      3  C   UNL     1       1.399  -2.869  -1.213  0.00  0.00    +0.020 A 
ATOM      4  C   UNL     1       1.209  -4.224  -1.419  0.00  0.00    +0.018 A 
ATOM      5  C   UNL     1       0.018  -4.684  -1.952  0.00  0.00    +0.019 A 
ATOM      6  C   UNL     1      -0.985  -3.792  -2.278  0.00  0.00    +0.047 A 
ATOM      7  C   UNL     1      -0.799  -2.433  -2.067  0.00  0.00    +0.119 A 
ATOM      8 BR   UNL     1       2.579  -5.448  -0.973  0.00  0.00    -0.050 Br
BRANCH   7   9
ATOM      9  O   UNL     1      -1.786  -1.554  -2.384  0.00  0.00    -0.507 OA
ATOM     10  H   UNL     1      -1.741  -1.222  -3.291  0.00  0.00    +0.292 HD
ENDBRANCH   7   9
ENDBRANCH   1   2
BRANCH   1  11
ATOM     11  N   UNL     1       2.043  -0.196  -1.337  0.00  0.00    +0.386 N 
ATOM     12  H   UNL     1       2.188   0.773  -1.095  0.00  0.00    -0.085 HD
ATOM     13  H   UNL     1       2.521  -0.783  -0.671  0.00  0.00    -0.085 HD
BRANCH  11  14
ATOM     14  C   UNL     1       2.575  -0.449  -2.683  0.00  0.00    -0.046 C 
BRANCH  14  15
ATOM     15  C   UNL     1       4.019  -0.022  -2.741  0.00  0.00    -0.063 A 
ATOM     16  C   UNL     1       4.344   1.272  -3.102  0.00  0.00    +0.002 A 
ATOM     17  C   UNL     1       5.668   1.664  -3.155  0.00  0.00    +0.001 A 
ATOM     18  C   UNL     1       6.669   0.761  -2.847  0.00  0.00    +0.015 A 
ATOM     19  C   UNL     1       6.345  -0.534  -2.486  0.00  0.00    +0.018 A 
ATOM     20  C   UNL     1       5.019  -0.924  -2.428  0.00  0.00    +0.017 A 
ATOM     21 BR   UNL     1       7.713  -1.770  -2.066  0.00  0.00    -0.050 Br
ENDBRANCH  14  15
ENDBRANCH  11  14
ENDBRANCH   1  11
BRANCH   1  23
ATOM     22  C   UNL     1       0.114   1.416   0.215  0.00  0.00    +0.002 C 
ATOM     23  C   UNL     1       0.024  -0.102   0.044  0.00  0.00    -0.014 C 
ENDBRANCH   1  23
TORSDOF 6
