REMARK  Name = ZINC42577433
REMARK  2 active torsions:
REMARK  status: ('A' for Active; 'I' for Inactive)
REMARK    1  A    between atoms: C_3  and  N_16
REMARK    2  A    between atoms: N_7  and  C_8
REMARK                            x       y       z     vdW  Elec       q    Type
REMARK                         _______ _______ _______ _____ _____    ______ ____
ROOT
ATOM      1  C   UNL     1      -0.016   1.347  -0.392  0.00  0.00    +0.022 A 
ATOM      2  C   UNL     1       1.185   2.035  -0.507  0.00  0.00    +0.027 A 
ATOM      3  C   UNL     1       2.369   1.321  -0.389  0.00  0.00    +0.065 A 
ATOM      4  C   UNL     1       2.310  -0.056  -0.158  0.00  0.00    +0.144 A 
ATOM      5  N   UNL     1       1.143  -0.669  -0.054  0.00  0.00    -0.238 NA
ATOM      6  C   UNL     1       0.002  -0.014  -0.164  0.00  0.00    +0.113 A 
ATOM      7  N   UNL     1       3.489  -0.788  -0.036  0.00  0.00    -0.297 N 
ATOM      8  H   UNL     1       4.345  -0.330  -0.020  0.00  0.00    +0.154 HD
ENDROOT
BRANCH   7   9
ATOM      9  C   UNL     1       3.440  -2.181   0.062  0.00  0.00    +0.048 A 
ATOM     10  C   UNL     1       2.394  -2.884  -0.522  0.00  0.00    +0.039 A 
ATOM     11  C   UNL     1       2.348  -4.261  -0.423  0.00  0.00    +0.020 A 
ATOM     12  C   UNL     1       3.343  -4.941   0.257  0.00  0.00    +0.016 A 
ATOM     13  C   UNL     1       4.385  -4.245   0.841  0.00  0.00    +0.018 A 
ATOM     14  C   UNL     1       4.440  -2.867   0.741  0.00  0.00    +0.039 A 
ATOM     15 BR   UNL     1       5.870  -1.917   1.533  0.00  0.00    -0.048 Br
ATOM     16 BR   UNL     1       0.925  -5.218  -1.219  0.00  0.00    -0.050 Br
ENDBRANCH   7   9
BRANCH   3  17
ATOM     17  N   UNL     1       3.604   1.971  -0.498  0.00  0.00    -0.355 N 
ATOM     18  H   UNL     1       3.637   2.927  -0.659  0.00  0.00    +0.142 HD
ATOM     19  H   UNL     1       4.428   1.465  -0.414  0.00  0.00    +0.142 HD
ENDBRANCH   3  17
TORSDOF 2
