REMARK  Name = ZINC37352227
REMARK  8 active torsions:
REMARK  status: ('A' for Active; 'I' for Inactive)
REMARK    1  A    between atoms: C_1  and  C_2
REMARK    2  A    between atoms: C_5  and  C_7
REMARK    3  A    between atoms: C_8  and  C_14
REMARK    4  A    between atoms: C_9  and  N_13
REMARK    5  A    between atoms: N_10  and  C_12
REMARK    6  A    between atoms: C_17  and  C_20
REMARK    7  A    between atoms: C_20  and  C_21
REMARK    8  A    between atoms: C_20  and  C_22
REMARK                            x       y       z     vdW  Elec       q    Type
REMARK                         _______ _______ _______ _____ _____    ______ ____
ROOT
ATOM      1  C   UNL     1       1.320   0.160   2.233  0.00  0.00    +0.076 A 
ATOM      2  C   UNL     1       0.985   0.149   3.601  0.00  0.00    +0.044 A 
ATOM      3  C   UNL     1       1.783   1.091   4.226  0.00  0.00    +0.122 A 
ATOM      4  N   UNL     1       2.567   1.647   3.275  0.00  0.00    -0.253 N 
ATOM      5  N   UNL     1       2.262   1.046   2.049  0.00  0.00    -0.174 NA
ATOM      6  C   UNL     1       3.568   2.694   3.492  0.00  0.00    +0.174 C 
ENDROOT
BRANCH   2   7
ATOM      7  C   UNL     1      -0.034  -0.710   4.250  0.00  0.00    -0.013 A 
ATOM      8  C   UNL     1      -1.381  -0.569   3.921  0.00  0.00    +0.009 A 
ATOM      9  C   UNL     1      -2.325  -1.372   4.528  0.00  0.00    +0.004 A 
ATOM     10  C   UNL     1      -1.937  -2.316   5.461  0.00  0.00    -0.045 A 
ATOM     11  C   UNL     1      -0.601  -2.461   5.792  0.00  0.00    +0.004 A 
ATOM     12  C   UNL     1       0.352  -1.667   5.187  0.00  0.00    +0.009 A 
BRANCH  10  13
ATOM     13  C   UNL     1      -2.972  -3.190   6.121  0.00  0.00    +0.013 C 
ATOM     14  C   UNL     1      -2.671  -4.658   5.813  0.00  0.00    +0.012 C 
ATOM     15  C   UNL     1      -2.938  -2.969   7.634  0.00  0.00    +0.012 C 
ENDBRANCH  10  13
ENDBRANCH   2   7
BRANCH   1  19
ATOM     16  C   UNL     1      -0.019   1.526   0.010  0.00  0.00    +0.008 C 
ATOM     17  C   UNL     1       0.002  -0.004   0.002  0.00  0.00    -0.004 C 
ATOM     18  C   UNL     1       1.351  -0.691  -0.221  0.00  0.00    +0.014 C 
ATOM     19  C   UNL     1       0.703  -0.708   1.166  0.00  0.00    +0.043 C 
ENDBRANCH   1  19
BRANCH   3  20
ATOM     20  N   UNL     1       1.779   1.407   5.578  0.00  0.00    -0.343 N 
ATOM     21  H   UNL     1       1.174   0.949   6.181  0.00  0.00    +0.144 HD
ATOM     22  H   UNL     1       2.381   2.087   5.919  0.00  0.00    +0.144 HD
ENDBRANCH   3  20
TORSDOF 4
