REMARK  Name = ZINC06894683
REMARK  4 active torsions:
REMARK  status: ('A' for Active; 'I' for Inactive)
REMARK    1  A    between atoms: C_1  and  C_2
REMARK    2  A    between atoms: C_7  and  N_12
REMARK    3  A    between atoms: C_9  and  C_11
REMARK    4  A    between atoms: C_13  and  C_15
REMARK                            x       y       z     vdW  Elec       q    Type
REMARK                         _______ _______ _______ _____ _____    ______ ____
ROOT
ATOM      1  C   UNL     1      -6.662   1.195  -0.597  0.00  0.00    +0.076 C 
ATOM      2  C   UNL     1      -6.756  -0.153  -1.362  0.00  0.00    -0.003 C 
ATOM      3  C   UNL     1      -8.233  -0.150  -1.825  0.00  0.00    -0.066 C 
ATOM      4  C   UNL     1      -8.358  -0.964  -3.123  0.00  0.00    -0.017 C 
ATOM      5  C   UNL     1      -8.764   0.061  -4.206  0.00  0.00    -0.020 C 
ATOM      6  C   UNL     1      -8.262   1.402  -3.618  0.00  0.00    -0.077 C 
ATOM      7  C   UNL     1      -7.587   2.114  -1.411  0.00  0.00    +0.052 C 
ATOM      8  C   UNL     1      -8.318   3.072  -0.510  0.00  0.00    -0.027 A 
ATOM      9  C   UNL     1      -9.200   2.903   0.533  0.00  0.00    +0.004 A 
ATOM     10  C   UNL     1      -9.722   4.006   1.185  0.00  0.00    +0.000 A 
ATOM     11  C   UNL     1      -9.353   5.278   0.787  0.00  0.00    +0.002 A 
ATOM     12  C   UNL     1      -8.469   5.453  -0.257  0.00  0.00    +0.023 A 
ATOM     13  C   UNL     1      -7.940   4.347  -0.919  0.00  0.00    +0.036 A 
ATOM     14  N   UNL     1      -7.043   4.266  -1.987  0.00  0.00    -0.286 N 
ATOM     15  C   UNL     1      -6.784   2.992  -2.336  0.00  0.00    +0.212 C 
ATOM     16  O   UNL     1      -6.046   2.622  -3.225  0.00  0.00    -0.277 OA
ATOM     17  H   UNL     1      -6.653   5.037  -2.426  0.00  0.00    +0.155 HD
ATOM     18  N   UNL     1      -8.502   1.241  -2.172  0.00  0.00    +0.394 N 
ATOM     19  H   UNL     1      -9.476   1.479  -1.948  0.00  0.00    -0.079 HD
ENDROOT
BRANCH   1  21
ATOM     20  N   UNL     1      -4.842   2.583   0.341  0.00  0.00    -0.312 N 
ATOM     21  C   UNL     1      -5.248   1.717  -0.608  0.00  0.00    +0.216 C 
ATOM     22  O   UNL     1      -4.476   1.357  -1.471  0.00  0.00    -0.276 OA
ATOM     23  H   UNL     1      -5.460   2.871   1.031  0.00  0.00    +0.149 HD
BRANCH  20  29
ATOM     24  C   UNL     1      -1.932   6.325   1.747  0.00  0.00    +0.008 C 
ATOM     25  C   UNL     1      -1.982   4.972   1.034  0.00  0.00    -0.009 C 
ATOM     26  C   UNL     1      -1.068   3.981   1.755  0.00  0.00    +0.003 C 
ATOM     27  C   UNL     1      -1.118   2.628   1.041  0.00  0.00    +0.002 C 
ATOM     28  C   UNL     1      -2.553   2.099   1.052  0.00  0.00    +0.022 C 
ATOM     29  C   UNL     1      -3.468   3.090   0.331  0.00  0.00    +0.076 C 
ATOM     30  C   UNL     1      -3.418   4.443   1.044  0.00  0.00    +0.009 C 
ATOM     31  C   UNL     1      -4.333   5.434   0.323  0.00  0.00    +0.009 C 
ENDBRANCH  20  29
ENDBRANCH   1  21
TORSDOF 2
