REMARK  Name = ZINC09151717
REMARK  7 active torsions:
REMARK  status: ('A' for Active; 'I' for Inactive)
REMARK    1  A    between atoms: C_1  and  C_2
REMARK    2  A    between atoms: C_7  and  S_8
REMARK    3  A    between atoms: S_8  and  C_11
REMARK    4  A    between atoms: C_11  and  C_13
REMARK    5  A    between atoms: C_11  and  C_14
REMARK    6  A    between atoms: C_14  and  C_15
REMARK    7  A    between atoms: N_17  and  C_18
REMARK                            x       y       z     vdW  Elec       q    Type
REMARK                         _______ _______ _______ _____ _____    ______ ____
ROOT
ATOM      1  S   UNL     1       0.718  -0.591  -1.558  0.00  0.00    +0.000 S 
ATOM      2  O   UNL     1      -0.092  -0.182  -2.652  0.00  0.00    -0.169 OA
ATOM      3  O   UNL     1       2.120  -0.361  -1.570  0.00  0.00    -0.169 OA
ENDROOT
BRANCH   1  10
ATOM      4  C   UNL     1       2.137  -2.365   0.430  0.00  0.00    +0.046 C 
ATOM      5  C   UNL     1       1.241  -3.072  -0.554  0.00  0.00    -0.024 A 
ATOM      6  C   UNL     1       1.109  -4.448  -0.501  0.00  0.00    +0.032 A 
ATOM      7  C   UNL     1       0.290  -5.097  -1.409  0.00  0.00    +0.076 A 
ATOM      8  C   UNL     1      -0.403  -4.362  -2.371  0.00  0.00    +0.144 A 
ATOM      9  C   UNL     1      -0.271  -2.986  -2.414  0.00  0.00    +0.074 A 
ATOM     10  C   UNL     1       0.549  -2.344  -1.503  0.00  0.00    +0.095 A 
ATOM     11  O   UNL     1      -1.204  -5.010  -3.259  0.00  0.00    -0.481 OA
ATOM     12  C   UNL     1      -0.792  -6.320  -3.658  0.00  0.00    +0.325 C 
ATOM     13  C   UNL     1      -0.394  -7.119  -2.444  0.00  0.00    +0.255 C 
ATOM     14  O   UNL     1      -0.556  -8.321  -2.425  0.00  0.00    -0.272 OA
ATOM     15  N   UNL     1       0.146  -6.491  -1.376  0.00  0.00    -0.280 N 
ATOM     16  H   UNL     1       0.429  -6.997  -0.599  0.00  0.00    +0.155 HD
ENDBRANCH   1  10
BRANCH   1  17
ATOM     17  C   UNL     1       0.002  -0.004   0.002  0.00  0.00    +0.142 C 
ATOM     18  C   UNL     1      -1.427  -0.534   0.139  0.00  0.00    +0.032 C 
BRANCH  17  19
ATOM     19  C   UNL     1      -0.019   1.526   0.010  0.00  0.00    +0.122 C 
BRANCH  19  20
ATOM     20  C   UNL     1       1.395   2.047  -0.000  0.00  0.00    +0.215 C 
ATOM     21  O   UNL     1       2.328   1.272  -0.013  0.00  0.00    -0.276 OA
ATOM     22  N   UNL     1       1.623   3.376   0.005  0.00  0.00    -0.312 N 
ATOM     23  H   UNL     1       0.878   3.996   0.015  0.00  0.00    +0.149 HD
BRANCH  22  24
ATOM     24  C   UNL     1       2.998   3.883  -0.006  0.00  0.00    +0.073 C 
ATOM     25  C   UNL     1       3.534   3.934   1.427  0.00  0.00    +0.022 C 
ATOM     26  C   UNL     1       5.057   4.073   1.397  0.00  0.00    +0.002 C 
ATOM     27  C   UNL     1       5.637   3.119   0.351  0.00  0.00    +0.000 C 
ATOM     28  C   UNL     1       6.243   3.928  -0.797  0.00  0.00    +0.000 C 
ATOM     29  C   UNL     1       5.121   4.474  -1.683  0.00  0.00    +0.000 C 
ATOM     30  C   UNL     1       4.453   5.661  -0.987  0.00  0.00    +0.002 C 
ATOM     31  C   UNL     1       3.018   5.289  -0.608  0.00  0.00    +0.022 C 
ENDBRANCH  22  24
ENDBRANCH  19  20
ENDBRANCH  17  19
ENDBRANCH   1  17
TORSDOF 5
