REMARK  Name = ZINC49960926
REMARK  6 active torsions:
REMARK  status: ('A' for Active; 'I' for Inactive)
REMARK    1  A    between atoms: C_1  and  C_2
REMARK    2  A    between atoms: C_4  and  N_8
REMARK    3  A    between atoms: C_9  and  C_18
REMARK    4  A    between atoms: C_10  and  S_14
REMARK    5  A    between atoms: C_11  and  C_13
REMARK    6  A    between atoms: S_14  and  N_17
REMARK                            x       y       z     vdW  Elec       q    Type
REMARK                         _______ _______ _______ _____ _____    ______ ____
ROOT
ATOM      1  N   UNL     1       0.030  -2.836  -2.332  0.00  0.00    -0.217 N 
ATOM      2  C   UNL     1       0.506  -4.100  -2.479  0.00  0.00    +0.070 A 
ATOM      3  C   UNL     1       0.324  -4.458  -3.770  0.00  0.00    +0.149 A 
ATOM      4  C   UNL     1      -0.280  -3.385  -4.435  0.00  0.00    +0.087 A 
ATOM      5  N   UNL     1      -0.461  -2.416  -3.575  0.00  0.00    -0.168 NA
ATOM      6  C   UNL     1      -0.662  -3.352  -5.893  0.00  0.00    +0.069 C 
ATOM      7  C   UNL     1       1.125  -4.949  -1.399  0.00  0.00    +0.068 C 
ENDROOT
BRANCH   1  11
ATOM      8  C   UNL     1      -0.018   1.503   0.010  0.00  0.00    +0.066 C 
ATOM      9  C   UNL     1       0.002  -0.004   0.002  0.00  0.00    +0.043 A 
ATOM     10  C   UNL     1       0.006  -0.698  -1.195  0.00  0.00    +0.071 A 
ATOM     11  C   UNL     1       0.026  -2.091  -1.152  0.00  0.00    +0.158 A 
ATOM     12  N   UNL     1       0.040  -2.698   0.030  0.00  0.00    -0.217 NA
ATOM     13  C   UNL     1       0.035  -1.999   1.146  0.00  0.00    +0.223 A 
ATOM     14  N   UNL     1       0.022  -0.681   1.141  0.00  0.00    -0.240 NA
ENDBRANCH   1  11
BRANCH   3  15
ATOM     15  S   UNL     1       0.769  -6.004  -4.489  0.00  0.00    +0.059 S 
ATOM     16  O   UNL     1       0.933  -5.772  -5.882  0.00  0.00    -0.153 OA
ATOM     17  O   UNL     1       1.805  -6.545  -3.680  0.00  0.00    -0.153 OA
BRANCH  15  18
ATOM     18  N   UNL     1      -0.534  -7.013  -4.328  0.00  0.00    -0.203 NA
ATOM     19  H   UNL     1      -1.343  -6.695  -3.897  0.00  0.00    +0.144 HD
ATOM     20  H   UNL     1      -0.489  -7.921  -4.665  0.00  0.00    +0.144 HD
ENDBRANCH  15  18
ENDBRANCH   3  15
TORSDOF 3
