REMARK  Name = ZINC40936333
REMARK  11 active torsions:
REMARK  status: ('A' for Active; 'I' for Inactive)
REMARK    1  A    between atoms: C_1  and  C_2
REMARK    2  A    between atoms: C_2  and  O_3
REMARK    3  A    between atoms: O_3  and  C_4
REMARK    4  A    between atoms: C_6  and  C_19
REMARK    5  A    between atoms: C_9  and  O_10
REMARK    6  A    between atoms: O_10  and  C_11
REMARK    7  A    between atoms: C_11  and  C_12
REMARK    8  A    between atoms: C_16  and  C_18
REMARK    9  A    between atoms: N_23  and  C_27
REMARK   10  A    between atoms: C_27  and  C_29
REMARK   11  A    between atoms: C_27  and  C_35
REMARK                            x       y       z     vdW  Elec       q    Type
REMARK                         _______ _______ _______ _____ _____    ______ ____
ROOT
ATOM      1  C   UNL     1       6.720  -2.911  -2.154  0.00  0.00    +0.162 A 
ATOM      2  C   UNL     1       5.900  -3.018  -1.048  0.00  0.00    +0.057 A 
ATOM      3  C   UNL     1       4.743  -3.804  -1.113  0.00  0.00    -0.020 A 
ATOM      4  C   UNL     1       4.425  -4.478  -2.299  0.00  0.00    +0.012 A 
ATOM      5  C   UNL     1       5.250  -4.364  -3.397  0.00  0.00    +0.050 A 
ATOM      6  C   UNL     1       6.393  -3.580  -3.333  0.00  0.00    +0.162 A 
ENDROOT
BRANCH   3   7
ATOM      7  C   UNL     1       3.867  -3.923   0.059  0.00  0.00    +0.028 C 
ATOM      8  C   UNL     1       3.259  -5.105   0.335  0.00  0.00    +0.077 C 
ATOM      9  C   UNL     1       3.460  -6.433  -0.279  0.00  0.00    +0.259 C 
ATOM     10  O   UNL     1       4.266  -6.608  -1.174  0.00  0.00    -0.269 OA
ATOM     11  N   UNL     1       2.721  -7.423   0.194  0.00  0.00    -0.237 N 
ATOM     12  C   UNL     1       1.830  -7.224   1.186  0.00  0.00    +0.122 C 
ATOM     13  S   UNL     1       0.791  -8.367   1.926  0.00  0.00    -0.027 S 
ATOM     14  S   UNL     1       2.002  -5.484   1.548  0.00  0.00    -0.061 S 
BRANCH  11  15
ATOM     15  C   UNL     1       2.874  -8.764  -0.374  0.00  0.00    +0.226 C 
BRANCH  15  16
ATOM     16  C   UNL     1       2.745  -8.693  -1.874  0.00  0.00    -0.016 A 
ATOM     17  C   UNL     1       2.199  -7.571  -2.468  0.00  0.00    +0.006 A 
ATOM     18  C   UNL     1       2.080  -7.505  -3.844  0.00  0.00    +0.000 A 
ATOM     19  C   UNL     1       2.510  -8.562  -4.625  0.00  0.00    +0.000 A 
ATOM     20  C   UNL     1       3.058  -9.683  -4.031  0.00  0.00    +0.000 A 
ATOM     21  C   UNL     1       3.179  -9.747  -2.656  0.00  0.00    +0.006 A 
ENDBRANCH  15  16
BRANCH  15  22
ATOM     22  C   UNL     1       4.230  -9.312  -0.011  0.00  0.00    +0.381 C 
ATOM     23  O   UNL     1       4.387 -10.514   0.122  0.00  0.00    -0.244 OA
ATOM     24  O   UNL     1       5.171  -8.553   0.148  0.00  0.00    -0.244 OA
ENDBRANCH  15  22
ENDBRANCH  11  15
ENDBRANCH   3   7
BRANCH   1  25
ATOM     25  O   UNL     1       7.845  -2.148  -2.095  0.00  0.00    -0.489 OA
BRANCH  25  27
ATOM     26  C   UNL     1       9.414  -0.686  -0.981  0.00  0.00    +0.048 C 
ATOM     27  C   UNL     1       8.118  -1.491  -0.856  0.00  0.00    +0.226 C 
ENDBRANCH  25  27
ENDBRANCH   1  25
BRANCH   6  28
ATOM     28  O   UNL     1       7.199  -3.467  -4.421  0.00  0.00    -0.484 OA
BRANCH  28  29
ATOM     29  C   UNL     1       6.805  -4.179  -5.596  0.00  0.00    +0.264 C 
BRANCH  29  30
ATOM     30  C   UNL     1       7.812  -3.937  -6.691  0.00  0.00    -0.010 A 
ATOM     31  C   UNL     1       7.650  -2.870  -7.556  0.00  0.00    +0.007 A 
ATOM     32  C   UNL     1       8.573  -2.648  -8.560  0.00  0.00    +0.001 A 
ATOM     33  C   UNL     1       9.659  -3.493  -8.699  0.00  0.00    +0.003 A 
ATOM     34  C   UNL     1       9.822  -4.558  -7.834  0.00  0.00    -0.050 A 
ATOM     35  C   UNL     1       8.900  -4.777  -6.827  0.00  0.00    +0.010 A 
ATOM     36  C   UNL     1      11.006  -5.478  -7.986  0.00  0.00    +0.044 C 
ENDBRANCH  29  30
ENDBRANCH  28  29
ENDBRANCH   6  28
TORSDOF 9
