REMARK  Name = ZINC04338447
REMARK  8 active torsions:
REMARK  status: ('A' for Active; 'I' for Inactive)
REMARK    1  A    between atoms: C_1  and  C_2
REMARK    2  A    between atoms: C_2  and  O_3
REMARK    3  A    between atoms: O_3  and  C_4
REMARK    4  A    between atoms: C_4  and  C_6
REMARK    5  A    between atoms: C_6  and  C_31
REMARK    6  A    between atoms: C_11  and  C_28
REMARK    7  A    between atoms: C_14  and  C_25
REMARK    8  A    between atoms: C_16  and  C_18
REMARK                            x       y       z     vdW  Elec       q    Type
REMARK                         _______ _______ _______ _____ _____    ______ ____
ROOT
ATOM      1  C   UNL     1       1.054   2.990   0.686  0.00  0.00    +0.184 C 
ATOM      2  C   UNL     1      -0.168   2.626   1.547  0.00  0.00    +0.128 C 
ATOM      3  C   UNL     1       0.219   2.476   2.997  0.00  0.00    -0.002 C 
ATOM      4  C   UNL     1      -0.396   1.557   3.737  0.00  0.00    +0.012 C 
ATOM      5  C   UNL     1      -1.448   0.690   3.167  0.00  0.00    +0.050 C 
ATOM      6  C   UNL     1      -1.540   0.562   1.800  0.00  0.00    +0.084 C 
ATOM      7  N   UNL     1      -0.646   1.308   1.085  0.00  0.00    -0.314 N 
ATOM      8  C   UNL     1       0.047   0.971  -0.160  0.00  0.00    +0.169 C 
ATOM      9  C   UNL     1       1.434   1.652  -0.003  0.00  0.00    +0.081 C 
ENDROOT
BRANCH   9  10
ATOM     10  C   UNL     1       2.341   0.831   0.877  0.00  0.00    -0.039 A 
ATOM     11  C   UNL     1       1.851   0.269   2.042  0.00  0.00    +0.004 A 
ATOM     12  C   UNL     1       2.682  -0.485   2.848  0.00  0.00    +0.002 A 
ATOM     13  C   UNL     1       4.004  -0.678   2.491  0.00  0.00    +0.020 A 
ATOM     14  C   UNL     1       4.494  -0.116   1.327  0.00  0.00    +0.041 A 
ATOM     15  C   UNL     1       3.660   0.634   0.516  0.00  0.00    +0.024 A 
ATOM     16 CL   UNL     1       6.154  -0.358   0.877  0.00  0.00    -0.084 Cl
ENDBRANCH   9  10
BRANCH   8  17
ATOM     17  C   UNL     1      -0.689   1.535  -1.349  0.00  0.00    +0.232 C 
ATOM     18  O   UNL     1      -1.522   2.402  -1.191  0.00  0.00    -0.274 OA
ATOM     19  N   UNL     1      -0.420   1.076  -2.587  0.00  0.00    -0.328 N 
ATOM     20  H   UNL     1       0.246   0.382  -2.714  0.00  0.00    +0.145 HD
ATOM     21  H   UNL     1      -0.894   1.439  -3.352  0.00  0.00    +0.145 HD
ENDBRANCH   8  17
BRANCH   5  22
ATOM     22  C   UNL     1      -2.380  -0.024   4.046  0.00  0.00    +0.243 C 
ATOM     23  O   UNL     1      -3.244  -0.736   3.567  0.00  0.00    -0.270 OA
ATOM     24  N   UNL     1      -2.281   0.108   5.383  0.00  0.00    -0.325 N 
ATOM     25  H   UNL     1      -1.593   0.675   5.765  0.00  0.00    +0.145 HD
ATOM     26  H   UNL     1      -2.898  -0.364   5.964  0.00  0.00    +0.145 HD
ENDBRANCH   5  22
BRANCH   1  27
ATOM     27  C   UNL     1       2.186   3.478   1.554  0.00  0.00    +0.330 C 
ATOM     28  O   UNL     1       3.207   2.838   1.630  0.00  0.00    -0.249 OA
BRANCH  27  29
ATOM     29  O   UNL     1       2.058   4.624   2.240  0.00  0.00    -0.464 OA
BRANCH  29  31
ATOM     30  C   UNL     1       2.860   6.353   3.757  0.00  0.00    +0.048 C 
ATOM     31  C   UNL     1       3.189   5.034   3.055  0.00  0.00    +0.229 C 
ENDBRANCH  29  31
ENDBRANCH  27  29
ENDBRANCH   1  27
BRANCH   1  32
ATOM     32  C   UNL     1       0.695   4.004  -0.317  0.00  0.00    +0.084 C 
ATOM     33  N   UNL     1       0.418   4.788  -1.092  0.00  0.00    -0.195 NA
ENDBRANCH   1  32
TORSDOF 7
