REMARK  Name = ZINC13621148
REMARK  13 active torsions:
REMARK  status: ('A' for Active; 'I' for Inactive)
REMARK    1  A    between atoms: C_1  and  C_2
REMARK    2  A    between atoms: C_2  and  C_3
REMARK    3  A    between atoms: C_3  and  C_4
REMARK    4  A    between atoms: N_6  and  C_7
REMARK    5  A    between atoms: C_10  and  C_13
REMARK    6  A    between atoms: N_15  and  N_16
REMARK    7  A    between atoms: N_16  and  C_17
REMARK    8  A    between atoms: C_17  and  N_19
REMARK    9  A    between atoms: C_20  and  C_22
REMARK   10  A    between atoms: C_23  and  C_24
REMARK   11  A    between atoms: C_27  and  O_30
REMARK   12  A    between atoms: O_30  and  C_31
REMARK   13  A    between atoms: C_31  and  C_32
REMARK                            x       y       z     vdW  Elec       q    Type
REMARK                         _______ _______ _______ _____ _____    ______ ____
ROOT
ATOM      1  N   UNL     1       3.505   1.931  -0.053  0.00  0.00    -0.245 N 
ATOM      2  H   UNL     1       4.353   1.460  -0.072  0.00  0.00    +0.172 HD
ENDROOT
BRANCH   1   5
ATOM      3  C   UNL     1       4.636   4.025  -0.050  0.00  0.00    +0.260 C 
ATOM      4  O   UNL     1       5.699   3.436  -0.072  0.00  0.00    -0.269 OA
ATOM      5  N   UNL     1       3.481   3.332  -0.039  0.00  0.00    -0.231 N 
ATOM      6  H   UNL     1       2.633   3.802  -0.020  0.00  0.00    +0.173 HD
BRANCH   3  10
ATOM      7  C   UNL     1       4.564   8.271  -0.004  0.00  0.00    +0.033 A 
ATOM      8  C   UNL     1       5.781   7.598  -0.030  0.00  0.00    +0.024 A 
ATOM      9  C   UNL     1       5.808   6.222  -0.045  0.00  0.00    +0.015 A 
ATOM     10  C   UNL     1       4.611   5.501  -0.034  0.00  0.00    +0.038 A 
ATOM     11  C   UNL     1       3.390   6.180  -0.013  0.00  0.00    +0.015 A 
ATOM     12  C   UNL     1       3.370   7.557   0.008  0.00  0.00    +0.024 A 
BRANCH   7  15
ATOM     13  C   UNL     1       5.493  10.349   0.676  0.00  0.00    +0.217 C 
ATOM     14  O   UNL     1       6.418   9.755   1.190  0.00  0.00    -0.275 OA
ATOM     15  N   UNL     1       4.540   9.666   0.012  0.00  0.00    -0.285 N 
ATOM     16  H   UNL     1       3.837  10.144  -0.456  0.00  0.00    +0.155 HD
BRANCH  13  17
ATOM     17  C   UNL     1       5.411  11.850   0.780  0.00  0.00    +0.096 C 
BRANCH  17  19
ATOM     18  C   UNL     1       6.523  13.896   1.684  0.00  0.00    +0.004 C 
ATOM     19  C   UNL     1       6.607  12.372   1.578  0.00  0.00    +0.006 C 
ENDBRANCH  17  19
ENDBRANCH  13  17
ENDBRANCH   7  15
ENDBRANCH   3  10
ENDBRANCH   1   5
BRANCH   1  20
ATOM     20  C   UNL     1       2.350   1.237  -0.043  0.00  0.00    +0.153 C 
ATOM     21  S   UNL     1       2.379  -0.475  -0.061  0.00  0.00    -0.017 S 
BRANCH  20  22
ATOM     22  N   UNL     1       1.171   1.890  -0.017  0.00  0.00    -0.263 N 
ATOM     23  C   UNL     1       0.016   1.196  -0.006  0.00  0.00    +0.242 C 
ATOM     24  O   UNL     1       0.037  -0.020  -0.019  0.00  0.00    -0.270 OA
ATOM     25  H   UNL     1       1.155   2.860  -0.007  0.00  0.00    +0.157 HD
BRANCH  23  26
ATOM     26  C   UNL     1      -1.262   1.905   0.015  0.00  0.00    +0.068 C 
ATOM     27  C   UNL     1      -2.420   1.210   0.021  0.00  0.00    +0.013 C 
BRANCH  27  28
ATOM     28  C   UNL     1      -3.705   1.923   0.043  0.00  0.00    -0.025 A 
ATOM     29  C   UNL     1      -3.732   3.322   0.063  0.00  0.00    +0.011 A 
ATOM     30  C   UNL     1      -4.938   3.985   0.077  0.00  0.00    +0.046 A 
ATOM     31  C   UNL     1      -6.128   3.267   0.083  0.00  0.00    +0.121 A 
ATOM     32  C   UNL     1      -6.107   1.877   0.068  0.00  0.00    +0.046 A 
ATOM     33  C   UNL     1      -4.906   1.204   0.048  0.00  0.00    +0.011 A 
BRANCH  31  34
ATOM     34  O   UNL     1      -7.315   3.925   0.103  0.00  0.00    -0.492 OA
BRANCH  34  35
ATOM     35  C   UNL     1      -7.265   5.353   0.117  0.00  0.00    +0.225 C 
ATOM     36  C   UNL     1      -8.688   5.914   0.138  0.00  0.00    +0.048 C 
ENDBRANCH  34  35
ENDBRANCH  31  34
ENDBRANCH  27  28
ENDBRANCH  23  26
ENDBRANCH  20  22
ENDBRANCH   1  20
TORSDOF 11
