REMARK  Name = ZINC46785489
REMARK  5 active torsions:
REMARK  status: ('A' for Active; 'I' for Inactive)
REMARK    1  A    between atoms: C_1  and  C_2
REMARK    2  A    between atoms: C_2  and  C_3
REMARK    3  A    between atoms: C_13  and  C_15
REMARK    4  A    between atoms: C_16  and  C_17
REMARK    5  A    between atoms: N_20  and  C_22
REMARK                            x       y       z     vdW  Elec       q    Type
REMARK                         _______ _______ _______ _____ _____    ______ ____
ROOT
ATOM      1  C   UNL     1       0.216   0.595   2.779  0.00  0.00    -0.006 C 
ATOM      2  C   UNL     1      -0.107  -0.896   2.902  0.00  0.00    +0.010 C 
ATOM      3  C   UNL     1       0.623  -1.495   4.106  0.00  0.00    +0.056 C 
ATOM      4  C   UNL     1       2.102  -1.149   4.003  0.00  0.00    +0.054 A 
ATOM      5  C   UNL     1       2.519  -0.137   3.199  0.00  0.00    +0.015 A 
ATOM      6  S   UNL     1       4.274  -0.154   3.437  0.00  0.00    -0.057 S 
ATOM      7  C   UNL     1       4.335  -1.436   4.530  0.00  0.00    +0.165 A 
ATOM      8  N   UNL     1       3.072  -1.778   4.659  0.00  0.00    -0.229 NA
ATOM      9  N   UNL     1       5.448  -1.994   5.144  0.00  0.00    -0.261 N 
ATOM     10  C   UNL     1       5.300  -3.025   5.999  0.00  0.00    +0.243 C 
ATOM     11  O   UNL     1       4.190  -3.467   6.232  0.00  0.00    -0.270 OA
ATOM     12  C   UNL     1       1.682   0.754   2.345  0.00  0.00    +0.048 C 
ATOM     13  H   UNL     1       6.332  -1.641   4.958  0.00  0.00    +0.157 HD
ENDROOT
BRANCH   1  15
ATOM     14  C   UNL     1      -0.458   2.744   1.695  0.00  0.00    +0.004 C 
ATOM     15  C   UNL     1      -0.700   1.233   1.732  0.00  0.00    +0.000 C 
ENDBRANCH   1  15
BRANCH  10  16
ATOM     16  C   UNL     1       6.436  -3.595   6.626  0.00  0.00    +0.068 C 
ATOM     17  C   UNL     1       6.306  -4.714   7.371  0.00  0.00    +0.016 C 
BRANCH  17  18
ATOM     18  C   UNL     1       5.052  -5.480   7.335  0.00  0.00    +0.013 A 
ATOM     19  C   UNL     1       4.309  -5.820   6.180  0.00  0.00    +0.142 A 
ATOM     20  N   UNL     1       3.263  -6.500   6.560  0.00  0.00    -0.179 NA
ATOM     21  N   UNL     1       3.283  -6.627   7.953  0.00  0.00    -0.274 N 
ATOM     22  C   UNL     1       4.380  -6.008   8.422  0.00  0.00    +0.116 A 
ATOM     23  C   UNL     1       2.281  -7.323   8.764  0.00  0.00    +0.172 C 
ENDBRANCH  17  18
ENDBRANCH  10  16
TORSDOF 3
