REMARK  Name = ZINC00425165
REMARK  9 active torsions:
REMARK  status: ('A' for Active; 'I' for Inactive)
REMARK    1  A    between atoms: C_1  and  C_2
REMARK    2  A    between atoms: C_2  and  O_3
REMARK    3  A    between atoms: O_3  and  C_4
REMARK    4  A    between atoms: C_4  and  C_6
REMARK    5  A    between atoms: C_7  and  N_21
REMARK    6  A    between atoms: N_8  and  C_12
REMARK    7  A    between atoms: C_15  and  C_18
REMARK    8  A    between atoms: C_18  and  C_19
REMARK    9  A    between atoms: C_18  and  C_20
REMARK                            x       y       z     vdW  Elec       q    Type
REMARK                         _______ _______ _______ _____ _____    ______ ____
ROOT
ATOM      1  C   UNL     1       0.657  -2.009  -1.121  0.00  0.00    +0.137 A 
ATOM      2  C   UNL     1       1.217  -2.816  -2.098  0.00  0.00    +0.123 A 
ATOM      3  N   UNL     1       1.134  -4.152  -1.924  0.00  0.00    -0.285 N 
ATOM      4  C   UNL     1       0.522  -4.652  -0.830  0.00  0.00    +0.132 A 
ATOM      5  S   UNL     1       0.292  -6.290  -0.391  0.00  0.00    -0.024 S 
ATOM      6  S   UNL     1       0.031  -3.225   0.026  0.00  0.00    -0.053 S 
ENDROOT
BRANCH   3   7
ATOM      7  C   UNL     1       1.682  -5.018  -2.879  0.00  0.00    +0.049 A 
ATOM      8  C   UNL     1       1.153  -5.064  -4.162  0.00  0.00    +0.026 A 
ATOM      9  C   UNL     1       1.698  -5.916  -5.102  0.00  0.00    +0.006 A 
ATOM     10  C   UNL     1       2.763  -6.731  -4.764  0.00  0.00    -0.045 A 
ATOM     11  C   UNL     1       3.289  -6.691  -3.486  0.00  0.00    +0.006 A 
ATOM     12  C   UNL     1       2.752  -5.837  -2.543  0.00  0.00    +0.026 A 
BRANCH  10  13
ATOM     13  C   UNL     1       3.352  -7.664  -5.791  0.00  0.00    +0.013 C 
ATOM     14  C   UNL     1       2.276  -8.640  -6.269  0.00  0.00    +0.012 C 
ATOM     15  C   UNL     1       3.869  -6.852  -6.981  0.00  0.00    +0.012 C 
ENDBRANCH  10  13
ENDBRANCH   3   7
BRANCH   2  16
ATOM     16  N   UNL     1       1.835  -2.275  -3.203  0.00  0.00    -0.343 N 
ATOM     17  H   UNL     1       1.885  -1.312  -3.308  0.00  0.00    +0.144 HD
ATOM     18  H   UNL     1       2.222  -2.857  -3.875  0.00  0.00    +0.144 HD
ENDBRANCH   2  16
BRANCH   1  19
ATOM     19  C   UNL     1       0.602  -0.603  -1.049  0.00  0.00    +0.349 C 
ATOM     20  O   UNL     1       1.095   0.072  -1.935  0.00  0.00    -0.244 OA
BRANCH  19  21
ATOM     21  O   UNL     1       0.002  -0.004   0.002  0.00  0.00    -0.461 OA
BRANCH  21  23
ATOM     22  C   UNL     1      -0.733   1.918   1.269  0.00  0.00    +0.048 C 
ATOM     23  C   UNL     1      -0.017   1.425   0.010  0.00  0.00    +0.229 C 
ENDBRANCH  21  23
ENDBRANCH  19  21
ENDBRANCH   1  19
TORSDOF 6
