REMARK  Name = ZINC36576041
REMARK  19 active torsions:
REMARK  status: ('A' for Active; 'I' for Inactive)
REMARK    1  A    between atoms: C_1  and  C_2
REMARK    2  A    between atoms: C_2  and  C_3
REMARK    3  A    between atoms: C_3  and  N_4
REMARK    4  A    between atoms: N_4  and  C_5
REMARK    5  A    between atoms: C_5  and  C_7
REMARK    6  A    between atoms: C_5  and  C_16
REMARK    7  A    between atoms: C_8  and  O_15
REMARK    8  A    between atoms: C_10  and  O_14
REMARK    9  A    between atoms: C_12  and  O_13
REMARK   10  A    between atoms: N_18  and  C_19
REMARK   11  A    between atoms: C_19  and  C_20
REMARK   12  A    between atoms: C_19  and  C_21
REMARK   13  A    between atoms: C_19  and  C_22
REMARK   14  A    between atoms: C_22  and  C_23
REMARK   15  A    between atoms: C_23  and  C_24
REMARK   16  A    between atoms: C_23  and  C_25
REMARK   17  A    between atoms: C_23  and  C_26
REMARK   18  A    between atoms: C_27  and  C_29
REMARK   19  A    between atoms: C_33  and  N_35
REMARK                            x       y       z     vdW  Elec       q    Type
REMARK                         _______ _______ _______ _____ _____    ______ ____
ROOT
ATOM      1  C   UNL     1       0.285  -5.247   1.165  0.00  0.00    +0.199 C 
ENDROOT
BRANCH   1   2
ATOM      2  C   UNL     1      -0.934  -5.564   1.993  0.00  0.00    +0.065 A 
ATOM      3  C   UNL     1      -0.934  -6.667   2.833  0.00  0.00    +0.129 A 
ATOM      4  C   UNL     1      -2.055  -6.959   3.595  0.00  0.00    +0.091 A 
ATOM      5  C   UNL     1      -3.177  -6.147   3.517  0.00  0.00    +0.124 A 
ATOM      6  C   UNL     1      -3.177  -5.043   2.678  0.00  0.00    +0.091 A 
ATOM      7  C   UNL     1      -2.054  -4.749   1.919  0.00  0.00    +0.129 A 
BRANCH   7   8
ATOM      8  O   UNL     1      -2.052  -3.665   1.100  0.00  0.00    -0.506 OA
ATOM      9  H   UNL     1      -2.369  -3.848   0.205  0.00  0.00    +0.292 HD
ENDBRANCH   7   8
BRANCH   5  10
ATOM     10  O   UNL     1      -4.276  -6.433   4.263  0.00  0.00    -0.507 OA
ATOM     11  H   UNL     1      -4.279  -6.017   5.136  0.00  0.00    +0.292 HD
ENDBRANCH   5  10
BRANCH   3  12
ATOM     12  O   UNL     1       0.165  -7.463   2.910  0.00  0.00    -0.506 OA
ATOM     13  H   UNL     1       0.758  -7.245   3.642  0.00  0.00    +0.292 HD
ENDBRANCH   3  12
ENDBRANCH   1   2
BRANCH   1  14
ATOM     14  C   UNL     1       1.286  -4.503   2.010  0.00  0.00    +0.239 C 
ATOM     15  O   UNL     1       1.642  -3.389   1.689  0.00  0.00    -0.273 OA
ATOM     16  N   UNL     1       1.787  -5.075   3.123  0.00  0.00    -0.308 N 
ATOM     17  H   UNL     1       1.503  -5.967   3.380  0.00  0.00    +0.149 HD
BRANCH  16  18
ATOM     18  C   UNL     1       2.761  -4.352   3.944  0.00  0.00    +0.030 C 
ATOM     19  C   UNL     1       4.066  -4.189   3.163  0.00  0.00    +0.031 C 
ATOM     20  C   UNL     1       2.203  -2.972   4.299  0.00  0.00    +0.031 C 
BRANCH  18  21
ATOM     21  C   UNL     1       3.030  -5.139   5.228  0.00  0.00    +0.031 C 
BRANCH  21  22
ATOM     22  C   UNL     1       1.811  -5.047   6.148  0.00  0.00    -0.036 C 
ATOM     23  C   UNL     1       0.533  -5.104   5.308  0.00  0.00    +0.010 C 
ATOM     24  C   UNL     1       1.826  -6.218   7.133  0.00  0.00    +0.010 C 
ATOM     25  C   UNL     1       1.854  -3.729   6.922  0.00  0.00    +0.010 C 
ENDBRANCH  21  22
ENDBRANCH  18  21
ENDBRANCH  16  18
ENDBRANCH   1  14
BRANCH   1  26
ATOM     26  N   UNL     1      -0.103  -4.417   0.023  0.00  0.00    -0.282 N 
ATOM     27  C   UNL     1      -0.830  -4.948  -0.980  0.00  0.00    +0.248 C 
ATOM     28  O   UNL     1      -1.242  -4.236  -1.876  0.00  0.00    -0.270 OA
BRANCH  27  29
ATOM     29  C   UNL     1      -1.127  -6.396  -0.992  0.00  0.00    +0.039 A 
ATOM     30  C   UNL     1      -0.861  -7.175   0.136  0.00  0.00    +0.013 A 
ATOM     31  C   UNL     1      -1.140  -8.526   0.118  0.00  0.00    +0.003 A 
ATOM     32  C   UNL     1      -1.684  -9.108  -1.013  0.00  0.00    +0.033 A 
ATOM     33  C   UNL     1      -1.951  -8.342  -2.133  0.00  0.00    +0.127 A 
ATOM     34  C   UNL     1      -1.681  -6.989  -2.127  0.00  0.00    +0.045 A 
BRANCH  33  35
ATOM     35  N   UNL     1      -2.532  -8.974  -3.339  0.00  0.00    +0.056 N 
ATOM     36  O   UNL     1      -2.773 -10.159  -3.344  0.00  0.00    -0.126 OA
ATOM     37  O   UNL     1      -2.765  -8.306  -4.319  0.00  0.00    -0.126 OA
ENDBRANCH  33  35
ENDBRANCH  27  29
BRANCH  26  38
ATOM     38  C   UNL     1       0.298  -3.009  -0.029  0.00  0.00    +0.109 C 
BRANCH  38  40
ATOM     39  C   UNL     1       2.071  -1.423  -0.794  0.00  0.00    +0.005 C 
ATOM     40  C   UNL     1       1.685  -2.898  -0.666  0.00  0.00    +0.016 C 
ENDBRANCH  38  40
ENDBRANCH  26  38
ENDBRANCH   1  26
TORSDOF 13
