REMARK  Name = ZINC22021872
REMARK  7 active torsions:
REMARK  status: ('A' for Active; 'I' for Inactive)
REMARK    1  A    between atoms: C_1  and  C_2
REMARK    2  A    between atoms: C_6  and  N_9
REMARK    3  A    between atoms: C_7  and  C_8
REMARK    4  A    between atoms: C_22  and  S_23
REMARK    5  A    between atoms: S_23  and  C_24
REMARK    6  A    between atoms: C_24  and  C_26
REMARK    7  A    between atoms: C_24  and  C_27
REMARK                            x       y       z     vdW  Elec       q    Type
REMARK                         _______ _______ _______ _____ _____    ______ ____
ROOT
ATOM      1  N   UNL     1       0.051  -2.798   2.393  0.00  0.00    -0.245 N 
ATOM      2  C   UNL     1      -1.116  -3.155   2.969  0.00  0.00    +0.268 A 
ATOM      3  O   UNL     1      -2.176  -2.865   2.448  0.00  0.00    -0.267 OA
ATOM      4  C   UNL     1      -1.086  -3.901   4.240  0.00  0.00    +0.064 A 
ATOM      5  C   UNL     1      -2.262  -4.293   4.877  0.00  0.00    +0.015 A 
ATOM      6  C   UNL     1      -2.194  -4.990   6.065  0.00  0.00    +0.001 A 
ATOM      7  C   UNL     1      -0.965  -5.300   6.626  0.00  0.00    +0.002 A 
ATOM      8  C   UNL     1       0.207  -4.917   6.005  0.00  0.00    +0.027 A 
ATOM      9  C   UNL     1       0.159  -4.215   4.810  0.00  0.00    +0.064 A 
ATOM     10  N   UNL     1       1.320  -3.816   4.161  0.00  0.00    -0.255 N 
ATOM     11  C   UNL     1       1.264  -3.128   2.977  0.00  0.00    +0.245 A 
ATOM     12  N   UNL     1       2.503  -2.901   2.610  0.00  0.00    -0.109 NA
ATOM     13  N   UNL     1       3.317  -3.398   3.471  0.00  0.00    -0.120 NA
ATOM     14  C   UNL     1       2.650  -3.964   4.448  0.00  0.00    +0.198 A 
ENDROOT
BRANCH   1  20
ATOM     15  C   UNL     1      -0.018   1.503   0.010  0.00  0.00    +0.044 C 
ATOM     16  C   UNL     1       0.002  -0.004   0.002  0.00  0.00    -0.046 A 
ATOM     17  C   UNL     1       0.006  -0.688  -1.200  0.00  0.00    +0.004 A 
ATOM     18  C   UNL     1       0.024  -2.071  -1.212  0.00  0.00    +0.002 A 
ATOM     19  C   UNL     1       0.039  -2.773  -0.023  0.00  0.00    +0.026 A 
ATOM     20  C   UNL     1       0.036  -2.089   1.186  0.00  0.00    +0.056 A 
ATOM     21  C   UNL     1       0.023  -0.700   1.194  0.00  0.00    -0.024 A 
ATOM     22  C   UNL     1       0.026   0.046   2.504  0.00  0.00    +0.046 C 
ENDBRANCH   1  20
BRANCH  14  23
ATOM     23  S   UNL     1       3.336  -4.779   5.852  0.00  0.00    -0.073 S 
BRANCH  23  24
ATOM     24  C   UNL     1       5.128  -4.616   5.622  0.00  0.00    +0.137 C 
ATOM     25  C   UNL     1       5.555  -5.394   4.375  0.00  0.00    +0.029 C 
BRANCH  24  26
ATOM     26  C   UNL     1       5.841  -5.170   6.828  0.00  0.00    +0.224 C 
ATOM     27  O   UNL     1       5.302  -6.008   7.520  0.00  0.00    -0.275 OA
ATOM     28  N   UNL     1       7.079  -4.735   7.138  0.00  0.00    -0.328 N 
ATOM     29  H   UNL     1       7.510  -4.065   6.585  0.00  0.00    +0.145 HD
ATOM     30  H   UNL     1       7.538  -5.091   7.914  0.00  0.00    +0.145 HD
ENDBRANCH  24  26
ENDBRANCH  23  24
ENDBRANCH  14  23
TORSDOF 4
