REMARK  Name = ZINC33637585
REMARK  8 active torsions:
REMARK  status: ('A' for Active; 'I' for Inactive)
REMARK    1  A    between atoms: C_3  and  O_26
REMARK    2  A    between atoms: C_5  and  O_25
REMARK    3  A    between atoms: C_8  and  C_10
REMARK    4  A    between atoms: C_10  and  O_11
REMARK    5  A    between atoms: O_11  and  C_12
REMARK    6  A    between atoms: C_12  and  C_14
REMARK    7  A    between atoms: C_18  and  O_24
REMARK    8  A    between atoms: C_20  and  O_23
REMARK                            x       y       z     vdW  Elec       q    Type
REMARK                         _______ _______ _______ _____ _____    ______ ____
ROOT
ATOM      1  O   UNL     1      -0.803   1.480  -3.664  0.00  0.00    -0.464 OA
ENDROOT
BRANCH   1   2
ATOM      2  C   UNL     1      -0.307   1.119  -4.858  0.00  0.00    +0.310 C 
ATOM      3  O   UNL     1       0.732   0.506  -4.921  0.00  0.00    -0.251 OA
BRANCH   2   4
ATOM      4  C   UNL     1      -1.048   1.479  -6.120  0.00  0.00    +0.100 C 
ATOM      5  C   UNL     1      -2.441   0.847  -6.092  0.00  0.00    +0.017 C 
ATOM      6  C   UNL     1      -3.193   1.213  -7.374  0.00  0.00    +0.035 C 
ATOM      7  C   UNL     1      -2.420   0.689  -8.585  0.00  0.00    +0.143 C 
ATOM      8  C   UNL     1      -1.026   1.320  -8.614  0.00  0.00    +0.144 C 
ATOM      9  C   UNL     1      -0.275   0.955  -7.332  0.00  0.00    +0.048 C 
BRANCH   8  10
ATOM     10  O   UNL     1      -0.304   0.831  -9.745  0.00  0.00    -0.389 OA
ATOM     11  H   UNL     1       0.724   1.175  -9.933  0.00  0.00    +0.210 HD
ENDBRANCH   8  10
BRANCH   7  12
ATOM     12  O   UNL     1      -2.296  -0.732  -8.494  0.00  0.00    -0.389 OA
ATOM     13  H   UNL     1      -1.768  -1.290  -9.280  0.00  0.00    +0.210 HD
ENDBRANCH   7  12
ENDBRANCH   2   4
ENDBRANCH   1   2
BRANCH   1  14
ATOM     14  C   UNL     1      -0.037   1.099  -2.490  0.00  0.00    +0.235 C 
BRANCH  14  20
ATOM     15  C   UNL     1      -0.773   3.123  -1.223  0.00  0.00    +0.009 C 
ATOM     16  C   UNL     1      -1.490   3.616   0.036  0.00  0.00    +0.034 C 
ATOM     17  C   UNL     1      -0.750   3.109   1.275  0.00  0.00    +0.143 C 
ATOM     18  C   UNL     1      -0.729   1.579   1.267  0.00  0.00    +0.143 C 
ATOM     19  C   UNL     1      -0.013   1.086   0.008  0.00  0.00    +0.040 C 
ATOM     20  C   UNL     1      -0.753   1.593  -1.232  0.00  0.00    +0.029 C 
BRANCH  18  21
ATOM     21  O   UNL     1      -0.038   1.106   2.425  0.00  0.00    -0.389 OA
ATOM     22  H   UNL     1       0.079   0.025   2.592  0.00  0.00    +0.210 HD
ENDBRANCH  18  21
BRANCH  17  23
ATOM     23  O   UNL     1       0.591   3.604   1.265  0.00  0.00    -0.389 OA
ATOM     24  H   UNL     1       1.280   3.343   2.082  0.00  0.00    +0.210 HD
ENDBRANCH  17  23
ENDBRANCH  14  20
ENDBRANCH   1  14
TORSDOF 8
