REMARK  Name = ZINC62832003
REMARK  5 active torsions:
REMARK  status: ('A' for Active; 'I' for Inactive)
REMARK    1  A    between atoms: C_1  and  N_2
REMARK    2  A    between atoms: N_2  and  C_3
REMARK    3  A    between atoms: C_6  and  N_12
REMARK    4  A    between atoms: C_8  and  C_9
REMARK    5  A    between atoms: C_13  and  C_15
REMARK                            x       y       z     vdW  Elec       q    Type
REMARK                         _______ _______ _______ _____ _____    ______ ____
ROOT
ATOM      1  C   UNL     1       0.492  -0.811   1.130  0.00  0.00    +0.050 A 
ATOM      2  C   UNL     1      -0.568  -0.876   2.025  0.00  0.00    +0.026 A 
ATOM      3  C   UNL     1      -0.445  -1.600   3.193  0.00  0.00    +0.024 A 
ATOM      4  C   UNL     1       0.739  -2.271   3.485  0.00  0.00    +0.025 A 
ATOM      5  C   UNL     1       1.805  -2.216   2.604  0.00  0.00    +0.039 A 
ATOM      6  C   UNL     1       1.688  -1.490   1.415  0.00  0.00    +0.086 A 
ENDROOT
BRANCH   1   8
ATOM      7  C   UNL     1       0.745   1.336  -0.075  0.00  0.00    +0.138 C 
ATOM      8  N   UNL     1       0.367  -0.079  -0.048  0.00  0.00    -0.270 N 
ATOM      9  C   UNL     1      -0.102  -0.673  -1.163  0.00  0.00    +0.252 C 
ATOM     10  O   UNL     1      -0.506  -1.819  -1.118  0.00  0.00    -0.270 OA
BRANCH   9  11
ATOM     11  C   UNL     1      -0.124   0.068  -2.441  0.00  0.00    +0.050 A 
ATOM     12  C   UNL     1       0.997   0.793  -2.852  0.00  0.00    +0.014 A 
ATOM     13  C   UNL     1       0.969   1.482  -4.046  0.00  0.00    +0.001 A 
ATOM     14  C   UNL     1      -0.166   1.458  -4.837  0.00  0.00    +0.001 A 
ATOM     15  C   UNL     1      -1.280   0.743  -4.437  0.00  0.00    +0.015 A 
ATOM     16  C   UNL     1      -1.264   0.043  -3.247  0.00  0.00    +0.025 A 
ATOM     17  I   UNL     1      -2.950  -1.048  -2.648  0.00  0.00    -0.043 I 
ENDBRANCH   9  11
ENDBRANCH   1   8
BRANCH   6  18
ATOM     18  C   UNL     1       2.814  -1.432   0.469  0.00  0.00    +0.388 C 
ATOM     19  O   UNL     1       3.854  -2.024   0.720  0.00  0.00    -0.241 OA
ATOM     20  O   UNL     1       2.710  -0.791  -0.568  0.00  0.00    -0.241 OA
ENDBRANCH   6  18
BRANCH   4  21
ATOM     21  N   UNL     1       0.853  -3.002   4.672  0.00  0.00    -0.358 N 
ATOM     22  H   UNL     1       0.107  -3.041   5.291  0.00  0.00    +0.142 HD
ATOM     23  H   UNL     1       1.678  -3.469   4.877  0.00  0.00    +0.142 HD
ENDBRANCH   4  21
TORSDOF 4
