REMARK  Name = ZINC24850074
REMARK  6 active torsions:
REMARK  status: ('A' for Active; 'I' for Inactive)
REMARK    1  A    between atoms: C_1  and  C_2
REMARK    2  A    between atoms: C_9  and  C_16
REMARK    3  A    between atoms: C_11  and  O_12
REMARK    4  A    between atoms: C_16  and  N_17
REMARK    5  A    between atoms: C_20  and  C_24
REMARK    6  A    between atoms: C_20  and  C_25
REMARK                            x       y       z     vdW  Elec       q    Type
REMARK                         _______ _______ _______ _____ _____    ______ ____
ROOT
ATOM      1  C   UNL     1       2.445   0.929  -0.061  0.00  0.00    +0.154 C 
ENDROOT
BRANCH   1  10
ATOM      2  C   UNL     1      -3.276   3.827  -6.226  0.00  0.00    +0.109 C 
ATOM      3  C   UNL     1      -2.563   3.572  -4.923  0.00  0.00    +0.214 C 
ATOM      4  O   UNL     1      -2.627   4.388  -4.027  0.00  0.00    -0.276 OA
ATOM      5  N   UNL     1      -1.855   2.439  -4.753  0.00  0.00    -0.286 N 
ATOM      6  C   UNL     1      -1.117   2.245  -3.584  0.00  0.00    +0.037 A 
ATOM      7  C   UNL     1       0.101   1.568  -3.638  0.00  0.00    +0.024 A 
ATOM      8  C   UNL     1       0.834   1.372  -2.504  0.00  0.00    +0.014 A 
ATOM      9  C   UNL     1       0.359   1.852  -1.278  0.00  0.00    +0.022 A 
ATOM     10  C   UNL     1       1.125   1.656  -0.045  0.00  0.00    -0.012 A 
ATOM     11  C   UNL     1       0.612   2.146   1.114  0.00  0.00    +0.093 A 
ATOM     12  C   UNL     1      -0.628   2.816   1.104  0.00  0.00    +0.285 A 
ATOM     13  O   UNL     1      -1.322   2.999  -0.031  0.00  0.00    -0.425 OA
ATOM     14  C   UNL     1      -0.869   2.537  -1.216  0.00  0.00    +0.141 A 
ATOM     15  C   UNL     1      -1.601   2.728  -2.378  0.00  0.00    +0.070 A 
ATOM     16  H   UNL     1      -1.858   1.665  -5.535  0.00  0.00    +0.155 HD
BRANCH  12  17
ATOM     17  O   UNL     1      -1.079   3.246   2.150  0.00  0.00    -0.480 OA
ATOM     18  H   UNL     1      -2.046   3.772   2.158  0.00  0.00    +0.295 HD
ENDBRANCH  12  17
ENDBRANCH   1  10
BRANCH   1  19
ATOM     19  N   UNL     1       3.046   0.980   1.274  0.00  0.00    -0.220 N 
ATOM     20  C   UNL     1       2.916   0.010   2.201  0.00  0.00    +0.251 C 
ATOM     21  O   UNL     1       2.301  -1.029   2.092  0.00  0.00    -0.272 OA
ATOM     22  C   UNL     1       3.697   0.489   3.408  0.00  0.00    +0.135 C 
ATOM     23  N   UNL     1       4.228   1.796   2.981  0.00  0.00    -0.281 N 
ATOM     24  C   UNL     1       3.798   1.992   1.721  0.00  0.00    +0.310 C 
ATOM     25  O   UNL     1       4.061   2.980   1.064  0.00  0.00    -0.252 OA
ATOM     26  C   UNL     1       2.774   0.652   4.617  0.00  0.00    +0.047 C 
ATOM     27  H   UNL     1       4.845   2.391   3.670  0.00  0.00    +0.152 HD
BRANCH  22  28
ATOM     28  C   UNL     1       4.823  -0.462   3.723  0.00  0.00    -0.015 A 
ATOM     29  C   UNL     1       4.694  -1.807   3.431  0.00  0.00    +0.006 A 
ATOM     30  C   UNL     1       5.728  -2.677   3.715  0.00  0.00    +0.004 A 
ATOM     31  C   UNL     1       6.892  -2.207   4.301  0.00  0.00    -0.044 A 
ATOM     32  C   UNL     1       7.019  -0.863   4.598  0.00  0.00    -0.044 A 
ATOM     33  C   UNL     1       5.982   0.008   4.308  0.00  0.00    +0.010 A 
ATOM     34  C   UNL     1       8.370  -0.604   5.229  0.00  0.00    +0.036 C 
ATOM     35  C   UNL     1       9.221  -1.846   4.886  0.00  0.00    +0.009 C 
ATOM     36  C   UNL     1       8.149  -2.943   4.712  0.00  0.00    +0.036 C 
ENDBRANCH  22  28
ENDBRANCH   1  19
TORSDOF 4
