REMARK  Name = ZINC21698858
REMARK  9 active torsions:
REMARK  status: ('A' for Active; 'I' for Inactive)
REMARK    1  A    between atoms: C_3  and  N_8
REMARK    2  A    between atoms: C_9  and  C_11
REMARK    3  A    between atoms: C_11  and  N_12
REMARK    4  A    between atoms: N_12  and  C_13
REMARK    5  A    between atoms: C_15  and  N_23
REMARK    6  A    between atoms: C_18  and  N_19
REMARK    7  A    between atoms: N_19  and  C_20
REMARK    8  A    between atoms: C_20  and  C_21
REMARK    9  A    between atoms: C_21  and  O_22
REMARK                            x       y       z     vdW  Elec       q    Type
REMARK                         _______ _______ _______ _____ _____    ______ ____
ROOT
ATOM      1  C   UNL     1       1.185   2.092   0.012  0.00  0.00    +0.051 A 
ATOM      2  C   UNL     1       2.390   1.407   0.006  0.00  0.00    +0.057 A 
ATOM      3  C   UNL     1       2.400   0.024   0.005  0.00  0.00    +0.128 A 
ATOM      4  C   UNL     1       1.210  -0.679   0.009  0.00  0.00    +0.034 A 
ATOM      5  C   UNL     1       0.003  -0.004   0.015  0.00  0.00    +0.027 A 
ATOM      6  C   UNL     1      -0.016   1.382   0.015  0.00  0.00    +0.048 A 
ENDROOT
BRANCH   3   7
ATOM      7  N   UNL     1       3.688  -0.705  -0.001  0.00  0.00    +0.056 N 
ATOM      8  O   UNL     1       3.699  -1.923  -0.002  0.00  0.00    -0.126 OA
ATOM      9  O   UNL     1       4.737  -0.086  -0.005  0.00  0.00    -0.126 OA
ENDBRANCH   3   7
BRANCH   1  10
ATOM     10  N   UNL     1       1.172   3.492   0.013  0.00  0.00    -0.334 N 
ATOM     11  H   UNL     1       0.215   4.034   0.017  0.00  0.00    +0.147 HD
BRANCH  10  12
ATOM     12  C   UNL     1       2.435   4.236   0.008  0.00  0.00    +0.198 C 
BRANCH  12  14
ATOM     13  N   UNL     1       3.163   6.599   0.007  0.00  0.00    -0.284 N 
ATOM     14  C   UNL     1       2.146   5.715   0.011  0.00  0.00    +0.234 C 
ATOM     15  O   UNL     1       0.999   6.109   0.015  0.00  0.00    -0.274 OA
ATOM     16  H   UNL     1       4.202   6.244   0.080  0.00  0.00    +0.155 HD
BRANCH  13  19
ATOM     17  C   UNL     1       3.501  10.152  -0.880  0.00  0.00    +0.003 A 
ATOM     18  C   UNL     1       3.767   8.800  -0.784  0.00  0.00    +0.023 A 
ATOM     19  C   UNL     1       2.898   7.970  -0.088  0.00  0.00    +0.034 A 
ATOM     20  C   UNL     1       1.767   8.504   0.517  0.00  0.00    +0.037 A 
ATOM     21  C   UNL     1       1.508   9.857   0.421  0.00  0.00    +0.015 A 
ATOM     22  C   UNL     1       2.374  10.681  -0.277  0.00  0.00    +0.014 A 
ATOM     23  I   UNL     1      -0.196  10.664   1.333  0.00  0.00    -0.044 I 
ENDBRANCH  13  19
ENDBRANCH  12  14
ENDBRANCH  10  12
ENDBRANCH   1  10
BRANCH   6  24
ATOM     24  N   UNL     1      -1.237   2.067   0.015  0.00  0.00    -0.340 N 
ATOM     25  H   UNL     1      -1.250   3.167   0.016  0.00  0.00    +0.146 HD
BRANCH  24  26
ATOM     26  C   UNL     1      -2.497   1.320   0.013  0.00  0.00    +0.129 C 
BRANCH  26  27
ATOM     27  C   UNL     1      -3.672   2.300   0.012  0.00  0.00    +0.174 C 
BRANCH  27  28
ATOM     28  O   UNL     1      -3.671   3.043  -1.208  0.00  0.00    -0.393 OA
ATOM     29  H   UNL     1      -4.447   3.801  -1.391  0.00  0.00    +0.209 HD
ENDBRANCH  27  28
ENDBRANCH  26  27
ENDBRANCH  24  26
ENDBRANCH   6  24
TORSDOF 9
