REMARK  Name = ZINC34919107
REMARK  3 active torsions:
REMARK  status: ('A' for Active; 'I' for Inactive)
REMARK    1  A    between atoms: C_10  and  N_12
REMARK    2  A    between atoms: C_13  and  C_15
REMARK    3  A    between atoms: N_20  and  C_22
REMARK                            x       y       z     vdW  Elec       q    Type
REMARK                         _______ _______ _______ _____ _____    ______ ____
ROOT
ATOM      1  N   UNL     1       4.631   0.029  -0.946  0.00  0.00    -0.308 N 
ATOM      2  C   UNL     1       5.321   1.107  -0.525  0.00  0.00    +0.219 C 
ATOM      3  O   UNL     1       5.202   1.495   0.618  0.00  0.00    -0.275 OA
ATOM      4  H   UNL     1       4.726  -0.282  -1.860  0.00  0.00    +0.149 HD
ENDROOT
BRANCH   1  14
ATOM      5  C   UNL     1      -0.017   1.375   0.010  0.00  0.00    +0.000 A 
ATOM      6  C   UNL     1       1.174   2.078   0.002  0.00  0.00    +0.000 A 
ATOM      7  C   UNL     1       2.372   1.395  -0.010  0.00  0.00    +0.006 A 
ATOM      8  C   UNL     1       2.393   0.006  -0.017  0.00  0.00    -0.024 A 
ATOM      9  C   UNL     1       1.208  -0.694  -0.015  0.00  0.00    -0.042 A 
ATOM     10  C   UNL     1       0.002  -0.004   0.002  0.00  0.00    +0.004 A 
ATOM     11  C   UNL     1       1.155  -2.199  -0.038  0.00  0.00    +0.035 C 
ATOM     12  C   UNL     1       2.501  -2.790   0.375  0.00  0.00    +0.007 C 
ATOM     13  C   UNL     1       3.599  -2.130  -0.467  0.00  0.00    +0.027 C 
ATOM     14  C   UNL     1       3.737  -0.675  -0.023  0.00  0.00    +0.103 C 
ENDBRANCH   1  14
BRANCH   2  15
ATOM     15  C   UNL     1       6.241   1.831  -1.474  0.00  0.00    +0.101 C 
ATOM     16  C   UNL     1       7.414   0.922  -1.909  0.00  0.00    +0.110 C 
ATOM     17  C   UNL     1       8.599   1.860  -1.992  0.00  0.00    +0.217 C 
ATOM     18  O   UNL     1       9.641   1.613  -2.560  0.00  0.00    -0.276 OA
ATOM     19  N   UNL     1       8.327   3.006  -1.344  0.00  0.00    -0.298 N 
ATOM     20  C   UNL     1       6.981   2.981  -0.757  0.00  0.00    +0.121 C 
BRANCH  19  21
ATOM     21  C   UNL     1       9.255   4.134  -1.236  0.00  0.00    +0.076 C 
ATOM     22  C   UNL     1       9.598   4.647  -2.636  0.00  0.00    +0.022 C 
ATOM     23  C   UNL     1      10.567   5.826  -2.525  0.00  0.00    +0.002 C 
ATOM     24  C   UNL     1      11.847   5.369  -1.821  0.00  0.00    +0.000 C 
ATOM     25  C   UNL     1      11.503   4.857  -0.421  0.00  0.00    +0.002 C 
ATOM     26  C   UNL     1      10.534   3.678  -0.532  0.00  0.00    +0.022 C 
ENDBRANCH  19  21
ENDBRANCH   2  15
TORSDOF 3
