REMARK  Name = ZINC09358395
REMARK  1 active torsions:
REMARK  status: ('A' for Active; 'I' for Inactive)
REMARK    1  A    between atoms: C_5  and  C_7
REMARK                            x       y       z     vdW  Elec       q    Type
REMARK                         _______ _______ _______ _____ _____    ______ ____
ROOT
ATOM      1  C   UNL     1       2.489   1.359  -0.016  0.00  0.00    +0.069 C 
ATOM      2  C   UNL     1       2.342   0.064  -0.817  0.00  0.00    +0.109 C 
ATOM      3  C   UNL     1       1.107  -0.673  -0.374  0.00  0.00    +0.219 C 
ATOM      4  O   UNL     1       1.107  -1.885  -0.357  0.00  0.00    -0.275 OA
ATOM      5  N   UNL     1       0.002  -0.004   0.002  0.00  0.00    -0.270 N 
ATOM      6  C   UNL     1      -0.017   1.380   0.010  0.00  0.00    +0.137 A 
ATOM      7  C   UNL     1       1.173   2.088   0.002  0.00  0.00    +0.065 A 
ATOM      8  C   UNL     1       1.133   3.486   0.011  0.00  0.00    +0.258 A 
ATOM      9  O   UNL     1       2.164   4.139   0.004  0.00  0.00    -0.267 OA
ATOM     10  N   UNL     1      -0.071   4.098   0.027  0.00  0.00    -0.295 N 
ATOM     11  H   UNL     1      -0.129   5.197   0.035  0.00  0.00    +0.172 HD
ATOM     12  C   UNL     1      -1.213   3.358   0.033  0.00  0.00    +0.195 A 
ATOM     13  N   UNL     1      -1.179   2.042   0.030  0.00  0.00    -0.201 NA
ATOM     14  N   UNL     1      -2.424   3.997   0.050  0.00  0.00    -0.329 N 
ATOM     15  H   UNL     1      -0.898  -0.557   0.308  0.00  0.00    +0.156 HD
ATOM     16  H   UNL     1      -3.355   3.410   0.055  0.00  0.00    +0.145 HD
ATOM     17  H   UNL     1      -2.466   5.096   0.057  0.00  0.00    +0.145 HD
ENDROOT
BRANCH   1  22
ATOM     18  C   UNL     1       2.469  -0.061   3.482  0.00  0.00    +0.000 A 
ATOM     19  C   UNL     1       3.658   0.430   3.988  0.00  0.00    +0.003 A 
ATOM     20  C   UNL     1       4.470   1.222   3.199  0.00  0.00    +0.038 A 
ATOM     21  C   UNL     1       4.094   1.520   1.900  0.00  0.00    +0.127 A 
ATOM     22  C   UNL     1       2.901   1.032   1.396  0.00  0.00    -0.004 A 
ATOM     23  C   UNL     1       2.090   0.239   2.187  0.00  0.00    +0.007 A 
ATOM     24  F   UNL     1       4.890   2.290   1.126  0.00  0.00    -0.205 F 
ENDBRANCH   1  22
TORSDOF 1
