REMARK  Name = ZINC02745266
REMARK  10 active torsions:
REMARK  status: ('A' for Active; 'I' for Inactive)
REMARK    1  A    between atoms: C_1  and  C_2
REMARK    2  A    between atoms: C_2  and  C_3
REMARK    3  A    between atoms: C_2  and  C_4
REMARK    4  A    between atoms: C_2  and  C_5
REMARK    5  A    between atoms: C_12  and  N_17
REMARK    6  A    between atoms: C_13  and  C_14
REMARK    7  A    between atoms: C_18  and  C_20
REMARK    8  A    between atoms: C_23  and  C_25
REMARK    9  A    between atoms: C_25  and  O_26
REMARK   10  A    between atoms: O_26  and  C_27
REMARK                            x       y       z     vdW  Elec       q    Type
REMARK                         _______ _______ _______ _____ _____    ______ ____
ROOT
ATOM      1  N   UNL     1      -1.013  -2.220  -0.001  0.00  0.00    -0.273 N 
ATOM      2  C   UNL     1      -1.172  -0.881   0.008  0.00  0.00    +0.284 C 
ATOM      3  O   UNL     1      -2.291  -0.402   0.021  0.00  0.00    -0.266 OA
ATOM      4  H   UNL     1      -0.122  -2.603  -0.011  0.00  0.00    +0.156 HD
ENDROOT
BRANCH   1  11
ATOM      5  C   UNL     1      -6.107  -6.064  -0.355  0.00  0.00    -0.000 C 
ATOM      6  C   UNL     1      -5.106  -6.880   0.469  0.00  0.00    +0.009 C 
ATOM      7  C   UNL     1      -3.680  -6.580   0.001  0.00  0.00    +0.037 C 
ATOM      8  C   UNL     1      -3.470  -5.071   0.007  0.00  0.00    -0.023 A 
ATOM      9  C   UNL     1      -4.521  -4.222   0.021  0.00  0.00    -0.004 A 
ATOM     10  S   UNL     1      -3.798  -2.606   0.031  0.00  0.00    -0.077 S 
ATOM     11  C   UNL     1      -2.123  -3.049   0.005  0.00  0.00    +0.085 A 
ATOM     12  C   UNL     1      -2.163  -4.437  -0.002  0.00  0.00    +0.068 A 
ATOM     13  C   UNL     1      -5.974  -4.584   0.031  0.00  0.00    +0.046 C 
BRANCH  12  14
ATOM     14  C   UNL     1      -0.932  -5.233  -0.017  0.00  0.00    +0.244 C 
ATOM     15  O   UNL     1      -0.411  -5.568   1.031  0.00  0.00    -0.270 OA
ATOM     16  N   UNL     1      -0.377  -5.593  -1.191  0.00  0.00    -0.325 N 
ATOM     17  H   UNL     1      -0.791  -5.325  -2.026  0.00  0.00    +0.145 HD
ATOM     18  H   UNL     1       0.438  -6.119  -1.201  0.00  0.00    +0.145 HD
ENDBRANCH  12  14
BRANCH   5  20
ATOM     19  C   UNL     1      -8.527  -5.718  -0.869  0.00  0.00    +0.011 C 
ATOM     20  C   UNL     1      -7.528  -6.546  -0.058  0.00  0.00    -0.035 C 
ATOM     21  C   UNL     1      -7.657  -8.022  -0.443  0.00  0.00    +0.011 C 
ATOM     22  C   UNL     1      -7.822  -6.381   1.434  0.00  0.00    +0.011 C 
ENDBRANCH   5  20
ENDBRANCH   1  11
BRANCH   2  23
ATOM     23  C   UNL     1       0.002  -0.004   0.002  0.00  0.00    +0.190 A 
ATOM     24  C   UNL     1      -0.016   1.362   0.009  0.00  0.00    +0.055 A 
ATOM     25  C   UNL     1       1.322   1.783  -0.001  0.00  0.00    +0.049 A 
ATOM     26  C   UNL     1       2.090   0.671  -0.014  0.00  0.00    +0.143 A 
ATOM     27  O   UNL     1       1.291  -0.404  -0.012  0.00  0.00    -0.452 OA
BRANCH  26  28
ATOM     28  C   UNL     1       3.596   0.644  -0.029  0.00  0.00    +0.303 C 
BRANCH  28  29
ATOM     29  O   UNL     1       4.086   0.629   1.313  0.00  0.00    -0.484 OA
BRANCH  29  30
ATOM     30  C   UNL     1       5.434   0.605   1.478  0.00  0.00    +0.122 A 
ATOM     31  C   UNL     1       6.267   0.590   0.354  0.00  0.00    +0.046 A 
ATOM     32  C   UNL     1       7.620   0.571   0.487  0.00  0.00    +0.012 A 
ATOM     33  C   UNL     1       8.195   0.554   1.770  0.00  0.00    -0.018 A 
ATOM     34  C   UNL     1       9.589   0.528   1.943  0.00  0.00    +0.008 A 
ATOM     35  C   UNL     1      10.111   0.513   3.199  0.00  0.00    +0.001 A 
ATOM     36  C   UNL     1       9.284   0.521   4.321  0.00  0.00    +0.001 A 
ATOM     37  C   UNL     1       7.930   0.546   4.192  0.00  0.00    +0.008 A 
ATOM     38  C   UNL     1       7.353   0.564   2.910  0.00  0.00    -0.014 A 
ATOM     39  C   UNL     1       5.959   0.589   2.739  0.00  0.00    +0.054 A 
ENDBRANCH  29  30
ENDBRANCH  28  29
ENDBRANCH  26  28
ENDBRANCH   2  23
TORSDOF 7
