REMARK  Name = ZINC39696764
REMARK  8 active torsions:
REMARK  status: ('A' for Active; 'I' for Inactive)
REMARK    1  A    between atoms: C_1  and  N_2
REMARK    2  A    between atoms: C_6  and  C_9
REMARK    3  A    between atoms: C_9  and  N_10
REMARK    4  A    between atoms: C_11  and  C_13
REMARK    5  A    between atoms: C_24  and  C_26
REMARK    6  A    between atoms: C_30  and  N_32
REMARK    7  A    between atoms: N_32  and  C_33
REMARK    8  A    between atoms: N_32  and  C_34
REMARK                            x       y       z     vdW  Elec       q    Type
REMARK                         _______ _______ _______ _____ _____    ______ ____
ROOT
ATOM      1  C   UNL     1       1.868  -6.000   3.548  0.00  0.00    +0.100 C 
ATOM      2  C   UNL     1       0.639  -6.898   3.278  0.00  0.00    +0.121 C 
ATOM      3  N   UNL     1       0.922  -8.150   4.019  0.00  0.00    -0.296 N 
ATOM      4  C   UNL     1       1.549  -7.697   5.283  0.00  0.00    +0.115 C 
ATOM      5  C   UNL     1       2.462  -6.527   4.865  0.00  0.00    -0.004 C 
ATOM      6  C   UNL     1       3.887  -7.023   4.640  0.00  0.00    -0.010 C 
ATOM      7  C   UNL     1       4.476  -7.490   5.974  0.00  0.00    -0.082 C 
ATOM      8  N   UNL     1       4.469  -6.377   6.931  0.00  0.00    +0.379 N 
ATOM      9  C   UNL     1       3.088  -5.966   7.212  0.00  0.00    -0.082 C 
ATOM     10  C   UNL     1       2.440  -5.435   5.930  0.00  0.00    -0.010 C 
ATOM     11  C   UNL     1       0.666  -9.415   3.630  0.00  0.00    +0.247 C 
ATOM     12  O   UNL     1       0.263  -9.635   2.505  0.00  0.00    -0.270 OA
ATOM     13  H   UNL     1       4.912  -6.669   7.788  0.00  0.00    -0.086 HD
ATOM     14  H   UNL     1       4.977  -5.597   6.541  0.00  0.00    -0.086 HD
ENDROOT
BRANCH  11  15
ATOM     15  C   UNL     1       0.876 -10.535   4.573  0.00  0.00    +0.039 A 
ATOM     16  C   UNL     1       0.922 -10.294   5.947  0.00  0.00    +0.013 A 
ATOM     17  C   UNL     1       1.118 -11.340   6.825  0.00  0.00    +0.003 A 
ATOM     18  C   UNL     1       1.269 -12.629   6.348  0.00  0.00    +0.023 A 
ATOM     19  C   UNL     1       1.224 -12.880   4.982  0.00  0.00    +0.030 A 
ATOM     20  C   UNL     1       1.022 -11.836   4.092  0.00  0.00    +0.036 A 
BRANCH  19  21
ATOM     21  N   UNL     1       1.378 -14.184   4.506  0.00  0.00    -0.336 N 
ATOM     22  C   UNL     1       1.728 -15.265   5.430  0.00  0.00    +0.129 C 
ATOM     23  C   UNL     1       1.189 -14.471   3.082  0.00  0.00    +0.129 C 
ENDBRANCH  19  21
ENDBRANCH  11  15
BRANCH   1  25
ATOM     24  N   UNL     1       2.331  -3.570   3.493  0.00  0.00    -0.313 N 
ATOM     25  C   UNL     1       1.443  -4.562   3.703  0.00  0.00    +0.218 C 
ATOM     26  O   UNL     1       0.301  -4.298   4.016  0.00  0.00    -0.275 OA
ATOM     27  H   UNL     1       3.244  -3.782   3.243  0.00  0.00    +0.149 HD
BRANCH  24  28
ATOM     28  C   UNL     1       1.918  -2.173   3.644  0.00  0.00    +0.137 C 
BRANCH  28  34
ATOM     29  C   UNL     1       3.513   2.483   3.569  0.00  0.00    +0.105 C 
ATOM     30  N   UNL     1       3.831   1.081   3.269  0.00  0.00    -0.301 NA
ATOM     31  C   UNL     1       4.197   0.915   1.855  0.00  0.00    +0.112 C 
ATOM     32  C   UNL     1       4.578  -0.546   1.600  0.00  0.00    +0.175 C 
ATOM     33  O   UNL     1       3.489  -1.391   1.980  0.00  0.00    -0.372 OA
ATOM     34  C   UNL     1       3.107  -1.255   3.351  0.00  0.00    +0.149 C 
ATOM     35  C   UNL     1       2.711   0.198   3.624  0.00  0.00    +0.117 C 
ENDBRANCH  28  34
ENDBRANCH  24  28
ENDBRANCH   1  25
TORSDOF 5
