REMARK  Name = ZINC09328106
REMARK  5 active torsions:
REMARK  status: ('A' for Active; 'I' for Inactive)
REMARK    1  A    between atoms: C_1  and  C_2
REMARK    2  A    between atoms: N_5  and  C_7
REMARK    3  A    between atoms: C_14  and  O_28
REMARK    4  A    between atoms: C_17  and  C_19
REMARK    5  A    between atoms: C_22  and  N_25
REMARK                            x       y       z     vdW  Elec       q    Type
REMARK                         _______ _______ _______ _____ _____    ______ ____
ROOT
ATOM      1  C   UNL     1       0.467   1.747  -0.271  0.00  0.00    +0.068 C 
ATOM      2  C   UNL     1       0.523   0.246  -0.138  0.00  0.00    +0.067 A 
ATOM      3  C   UNL     1       0.210  -0.676  -1.153  0.00  0.00    +0.036 A 
ATOM      4  C   UNL     1       0.381  -1.933  -0.639  0.00  0.00    +0.160 A 
ATOM      5  N   UNL     1       0.798  -1.773   0.665  0.00  0.00    -0.243 N 
ATOM      6  N   UNL     1       0.873  -0.406   0.934  0.00  0.00    -0.174 NA
ATOM      7  N   UNL     1       0.205  -3.153  -1.175  0.00  0.00    -0.197 NA
ATOM      8  C   UNL     1      -0.154  -3.618  -2.281  0.00  0.00    +0.199 C 
ATOM      9  C   UNL     1      -0.496  -2.918  -3.537  0.00  0.00    +0.165 C 
ATOM     10  S   UNL     1      -1.396  -1.385  -3.269  0.00  0.00    -0.138 S 
ATOM     11  C   UNL     1      -0.220  -0.249  -2.524  0.00  0.00    +0.112 C 
ENDROOT
BRANCH   5  12
ATOM     12  C   UNL     1       1.113  -2.852   1.606  0.00  0.00    +0.109 C 
ATOM     13  C   UNL     1       2.569  -2.725   2.058  0.00  0.00    +0.027 C 
ATOM     14  C   UNL     1       2.897  -3.852   3.040  0.00  0.00    +0.002 C 
ATOM     15  C   UNL     1       1.975  -3.753   4.256  0.00  0.00    +0.000 C 
ATOM     16  C   UNL     1       0.519  -3.880   3.804  0.00  0.00    +0.002 C 
ATOM     17  C   UNL     1       0.190  -2.753   2.822  0.00  0.00    +0.027 C 
ENDBRANCH   5  12
BRANCH  11  18
ATOM     18  C   UNL     1      -0.852   1.115  -2.432  0.00  0.00    -0.030 A 
ATOM     19  C   UNL     1      -2.064   1.274  -1.787  0.00  0.00    +0.007 A 
ATOM     20  C   UNL     1      -2.644   2.526  -1.703  0.00  0.00    +0.033 A 
ATOM     21  C   UNL     1      -2.012   3.619  -2.264  0.00  0.00    +0.126 A 
ATOM     22  C   UNL     1      -0.800   3.461  -2.909  0.00  0.00    +0.033 A 
ATOM     23  C   UNL     1      -0.218   2.210  -2.989  0.00  0.00    +0.007 A 
BRANCH  21  24
ATOM     24  N   UNL     1      -2.634   4.960  -2.175  0.00  0.00    +0.056 N 
ATOM     25  O   UNL     1      -3.695   5.098  -1.612  0.00  0.00    -0.126 OA
ATOM     26  O   UNL     1      -2.081   5.916  -2.666  0.00  0.00    -0.126 OA
ENDBRANCH  21  24
ENDBRANCH  11  18
BRANCH   8  27
ATOM     27  O   UNL     1      -0.240  -4.963  -2.335  0.00  0.00    -0.495 OA
ATOM     28  H   UNL     1      -0.013  -5.405  -1.506  0.00  0.00    +0.293 HD
ENDBRANCH   8  27
TORSDOF 4
