REMARK  Name = ZINC35370285
REMARK  4 active torsions:
REMARK  status: ('A' for Active; 'I' for Inactive)
REMARK    1  A    between atoms: C_5  and  C_7
REMARK    2  A    between atoms: C_16  and  C_20
REMARK    3  A    between atoms: N_22  and  C_23
REMARK    4  A    between atoms: C_23  and  C_24
REMARK                            x       y       z     vdW  Elec       q    Type
REMARK                         _______ _______ _______ _____ _____    ______ ____
ROOT
ATOM      1  C   UNL     1       1.250  -2.160  -0.022  0.00  0.00    +0.248 C 
ATOM      2  O   UNL     1       1.226  -0.950   0.090  0.00  0.00    -0.270 OA
ATOM      3  N   UNL     1       0.096  -2.851  -0.116  0.00  0.00    -0.298 N 
ATOM      4  C   UNL     1      -1.190  -2.149  -0.216  0.00  0.00    +0.107 C 
ATOM      5  C   UNL     1      -2.118  -2.660   0.892  0.00  0.00    +0.017 C 
ATOM      6  C   UNL     1      -2.201  -4.178   0.824  0.00  0.00    -0.016 C 
ATOM      7  C   UNL     1      -0.831  -4.820   0.988  0.00  0.00    +0.017 C 
ATOM      8  C   UNL     1       0.104  -4.321  -0.126  0.00  0.00    +0.107 C 
ATOM      9  N   UNL     1      -2.849  -4.619  -0.423  0.00  0.00    +0.397 N 
ATOM     10  C   UNL     1      -4.168  -5.241  -0.269  0.00  0.00    +0.028 C 
ATOM     11  C   UNL     1      -4.271  -5.993   1.091  0.00  0.00    +0.061 C 
ATOM     12  S   UNL     1      -3.330  -4.792   2.139  0.00  0.00    -0.174 S 
ATOM     13  H   UNL     1      -2.946  -3.818  -1.028  0.00  0.00    -0.083 HD
ATOM     14  H   UNL     1      -2.239  -5.282  -0.877  0.00  0.00    -0.083 HD
ENDROOT
BRANCH   1  19
ATOM     15  C   UNL     1       4.051  -4.400  -1.134  0.00  0.00    +0.001 A 
ATOM     16  C   UNL     1       4.968  -4.212  -0.115  0.00  0.00    +0.001 A 
ATOM     17  C   UNL     1       4.680  -3.359   0.935  0.00  0.00    +0.016 A 
ATOM     18  C   UNL     1       3.473  -2.688   0.972  0.00  0.00    +0.030 A 
ATOM     19  C   UNL     1       2.543  -2.874  -0.054  0.00  0.00    +0.051 A 
ATOM     20  C   UNL     1       2.842  -3.737  -1.110  0.00  0.00    +0.014 A 
ATOM     21 BR   UNL     1       3.080  -1.522   2.408  0.00  0.00    -0.050 Br
ENDBRANCH   1  19
BRANCH  10  22
ATOM     22  C   UNL     1      -4.388  -6.221  -1.393  0.00  0.00    +0.200 C 
ATOM     23  O   UNL     1      -3.530  -6.381  -2.235  0.00  0.00    -0.278 OA
ATOM     24  N   UNL     1      -5.539  -6.918  -1.463  0.00  0.00    -0.313 N 
ATOM     25  H   UNL     1      -6.226  -6.790  -0.790  0.00  0.00    +0.149 HD
BRANCH  24  26
ATOM     26  C   UNL     1      -5.753  -7.871  -2.555  0.00  0.00    +0.139 C 
BRANCH  26  27
ATOM     27  C   UNL     1      -7.108  -8.513  -2.403  0.00  0.00    -0.027 A 
ATOM     28  C   UNL     1      -7.241  -9.675  -1.666  0.00  0.00    +0.009 A 
ATOM     29  C   UNL     1      -8.482 -10.268  -1.523  0.00  0.00    +0.050 A 
ATOM     30  C   UNL     1      -9.595  -9.699  -2.120  0.00  0.00    +0.166 A 
ATOM     31  C   UNL     1      -9.461  -8.529  -2.863  0.00  0.00    +0.167 A 
ATOM     32  C   UNL     1      -8.215  -7.937  -2.997  0.00  0.00    +0.054 A 
ATOM     33  O   UNL     1     -10.688  -8.173  -3.342  0.00  0.00    -0.453 OA
ATOM     34  C   UNL     1     -11.503  -9.355  -3.228  0.00  0.00    +0.466 C 
ATOM     35  O   UNL     1     -10.907 -10.076  -2.133  0.00  0.00    -0.453 OA
ENDBRANCH  26  27
ENDBRANCH  24  26
ENDBRANCH  10  22
TORSDOF 4
