REMARK  Name = ZINC50376791
REMARK  8 active torsions:
REMARK  status: ('A' for Active; 'I' for Inactive)
REMARK    1  A    between atoms: C_1  and  C_2
REMARK    2  A    between atoms: C_2  and  C_3
REMARK    3  A    between atoms: C_3  and  C_5
REMARK    4  A    between atoms: C_3  and  C_9
REMARK    5  A    between atoms: N_6  and  O_7
REMARK    6  A    between atoms: N_11  and  C_12
REMARK    7  A    between atoms: C_17  and  O_19
REMARK    8  A    between atoms: O_19  and  C_20
REMARK                            x       y       z     vdW  Elec       q    Type
REMARK                         _______ _______ _______ _____ _____    ______ ____
ROOT
ATOM      1  C   UNL     1       2.208  -0.296  -1.092  0.00  0.00    +0.224 C 
ATOM      2  O   UNL     1       3.021  -1.196  -1.125  0.00  0.00    -0.275 OA
ATOM      3  N   UNL     1       2.620   0.980  -0.963  0.00  0.00    -0.309 N 
ATOM      4  H   UNL     1       1.977   1.704  -1.010  0.00  0.00    +0.149 HD
ENDROOT
BRANCH   3   5
ATOM      5  C   UNL     1       4.040   1.274  -0.751  0.00  0.00    +0.102 C 
ATOM      6  C   UNL     1       4.370   1.226   0.755  0.00  0.00    +0.025 C 
ATOM      7  C   UNL     1       5.400   2.365   0.955  0.00  0.00    +0.004 C 
ATOM      8  C   UNL     1       4.872   3.472   0.008  0.00  0.00    +0.033 C 
ATOM      9  C   UNL     1       4.359   2.702  -1.227  0.00  0.00    +0.138 C 
BRANCH   9  10
ATOM     10  O   UNL     1       3.178   3.324  -1.736  0.00  0.00    -0.378 OA
ATOM     11  C   UNL     1       3.424   4.285  -2.765  0.00  0.00    +0.194 C 
ENDBRANCH   9  10
ENDBRANCH   3   5
BRANCH   1  12
ATOM     12  C   UNL     1       0.737  -0.607  -1.196  0.00  0.00    +0.141 C 
BRANCH  12  13
ATOM     13  C   UNL     1       0.538  -1.807  -2.086  0.00  0.00    +0.144 C 
ATOM     14  N   UNL     1       0.435  -2.985  -1.567  0.00  0.00    -0.076 NA
ATOM     15  N   UNL     1       0.466  -1.647  -3.452  0.00  0.00    -0.343 N 
ATOM     16  H   UNL     1       0.543  -0.762  -3.841  0.00  0.00    +0.144 HD
ATOM     17  H   UNL     1       0.338  -2.419  -4.025  0.00  0.00    +0.144 HD
BRANCH  14  18
ATOM     18  O   UNL     1       0.249  -4.113  -2.403  0.00  0.00    -0.408 OA
ATOM     19  H   UNL     1       0.183  -4.951  -1.925  0.00  0.00    +0.328 HD
ENDBRANCH  14  18
ENDBRANCH  12  13
BRANCH  12  21
ATOM     20  C   UNL     1      -1.338  -1.081   0.112  0.00  0.00    +0.005 C 
ATOM     21  C   UNL     1       0.179  -0.907   0.197  0.00  0.00    +0.017 C 
ENDBRANCH  12  21
ENDBRANCH   1  12
TORSDOF 6
