REMARK  Name = ZINC02928730
REMARK  11 active torsions:
REMARK  status: ('A' for Active; 'I' for Inactive)
REMARK    1  A    between atoms: C_1  and  N_2
REMARK    2  A    between atoms: C_6  and  S_12
REMARK    3  A    between atoms: S_12  and  N_15
REMARK    4  A    between atoms: N_15  and  C_16
REMARK    5  A    between atoms: C_16  and  C_18
REMARK    6  A    between atoms: C_16  and  C_22
REMARK    7  A    between atoms: C_18  and  C_19
REMARK    8  A    between atoms: C_19  and  S_20
REMARK    9  A    between atoms: S_20  and  C_21
REMARK   10  A    between atoms: N_24  and  C_25
REMARK   11  A    between atoms: C_25  and  C_26
REMARK                            x       y       z     vdW  Elec       q    Type
REMARK                         _______ _______ _______ _____ _____    ______ ____
ROOT
ATOM      1  C   UNL     1      -0.815   6.175   1.859  0.00  0.00    +0.163 C 
ENDROOT
BRANCH   1   2
ATOM      2  C   UNL     1       0.064   5.556   0.803  0.00  0.00    +0.232 C 
ATOM      3  O   UNL     1       0.485   6.235  -0.109  0.00  0.00    -0.274 OA
ATOM      4  N   UNL     1       0.381   4.248   0.873  0.00  0.00    -0.310 N 
ATOM      5  H   UNL     1       0.044   3.705   1.603  0.00  0.00    +0.149 HD
BRANCH   4   6
ATOM      6  C   UNL     1       1.236   3.646  -0.154  0.00  0.00    +0.152 C 
BRANCH   6   7
ATOM      7  C   UNL     1       1.440   2.162   0.158  0.00  0.00    +0.228 C 
ATOM      8  C   UNL     1       2.410   1.548  -0.860  0.00  0.00    +0.275 C 
ATOM      9  O   UNL     1       2.568   0.160  -0.546  0.00  0.00    -0.485 OA
ATOM     10  C   UNL     1       1.431  -0.543  -0.291  0.00  0.00    +0.162 A 
ATOM     11  C   UNL     1       1.462  -1.929  -0.335  0.00  0.00    +0.049 A 
ATOM     12  C   UNL     1       0.317  -2.656  -0.074  0.00  0.00    +0.004 A 
ATOM     13  C   UNL     1      -0.864  -2.004   0.232  0.00  0.00    +0.004 A 
ATOM     14  C   UNL     1      -0.902  -0.624   0.277  0.00  0.00    +0.049 A 
ATOM     15  C   UNL     1       0.244   0.112   0.015  0.00  0.00    +0.163 A 
ATOM     16  O   UNL     1       0.190   1.472   0.060  0.00  0.00    -0.480 OA
ENDBRANCH   6   7
ENDBRANCH   4   6
ENDBRANCH   1   2
BRANCH   1  17
ATOM     17  N   UNL     1      -1.011   7.596   1.560  0.00  0.00    -0.178 NA
ATOM     18  H   UNL     1      -0.347   8.246   1.839  0.00  0.00    +0.149 HD
BRANCH  17  19
ATOM     19  S   UNL     1      -2.365   8.092   0.746  0.00  0.00    +0.059 S 
ATOM     20  O   UNL     1      -2.283   9.507   0.645  0.00  0.00    -0.153 OA
ATOM     21  O   UNL     1      -2.483   7.253  -0.395  0.00  0.00    -0.153 OA
BRANCH  19  27
ATOM     22  C   UNL     1      -7.958   6.135   4.526  0.00  0.00    +0.156 C 
ATOM     23  N   UNL     1      -6.953   7.183   4.332  0.00  0.00    -0.277 N 
ATOM     24  C   UNL     1      -5.928   7.178   3.386  0.00  0.00    +0.090 A 
ATOM     25  C   UNL     1      -5.543   6.278   2.405  0.00  0.00    +0.031 A 
ATOM     26  C   UNL     1      -4.458   6.564   1.599  0.00  0.00    +0.031 A 
ATOM     27  C   UNL     1      -3.750   7.740   1.775  0.00  0.00    +0.109 A 
ATOM     28  C   UNL     1      -4.128   8.641   2.751  0.00  0.00    +0.077 A 
ATOM     29  C   UNL     1      -5.219   8.366   3.562  0.00  0.00    +0.159 A 
ATOM     30  O   UNL     1      -5.810   9.042   4.577  0.00  0.00    -0.407 OA
ATOM     31  C   UNL     1      -6.850   8.328   5.035  0.00  0.00    +0.421 A 
ATOM     32  O   UNL     1      -7.586   8.663   5.943  0.00  0.00    -0.223 OA
ENDBRANCH  19  27
ENDBRANCH  17  19
ENDBRANCH   1  17
BRANCH   1  33
ATOM     33  C   UNL     1      -0.148   6.029   3.228  0.00  0.00    +0.040 C 
BRANCH  33  34
ATOM     34  C   UNL     1      -1.083   6.569   4.312  0.00  0.00    +0.071 C 
BRANCH  34  35
ATOM     35  S   UNL     1      -0.237   6.529   5.916  0.00  0.00    -0.164 S 
ATOM     36  C   UNL     1      -1.512   7.048   7.097  0.00  0.00    +0.084 C 
ENDBRANCH  34  35
ENDBRANCH  33  34
ENDBRANCH   1  33
TORSDOF 9
