REMARK  Name = ZINC14255367
REMARK  9 active torsions:
REMARK  status: ('A' for Active; 'I' for Inactive)
REMARK    1  A    between atoms: C_1  and  C_2
REMARK    2  A    between atoms: C_2  and  O_3
REMARK    3  A    between atoms: O_3  and  C_4
REMARK    4  A    between atoms: C_7  and  N_10
REMARK    5  A    between atoms: C_11  and  C_13
REMARK    6  A    between atoms: C_13  and  C_14
REMARK    7  A    between atoms: C_14  and  C_15
REMARK    8  A    between atoms: C_16  and  C_27
REMARK    9  A    between atoms: C_20  and  C_26
REMARK                            x       y       z     vdW  Elec       q    Type
REMARK                         _______ _______ _______ _____ _____    ______ ____
ROOT
ATOM      1  C   UNL     1      -1.417   0.246   2.942  0.00  0.00    +0.101 C 
ENDROOT
BRANCH   1   3
ATOM      2  N   UNL     1      -2.581   1.270   4.870  0.00  0.00    -0.285 N 
ATOM      3  C   UNL     1      -1.415   0.962   4.268  0.00  0.00    +0.218 C 
ATOM      4  O   UNL     1      -0.363   1.260   4.795  0.00  0.00    -0.275 OA
ATOM      5  H   UNL     1      -3.421   1.093   4.419  0.00  0.00    +0.155 HD
BRANCH   2   9
ATOM      6  C   UNL     1      -2.577   2.991   8.668  0.00  0.00    +0.121 A 
ATOM      7  C   UNL     1      -1.575   3.307   7.763  0.00  0.00    +0.047 A 
ATOM      8  C   UNL     1      -1.575   2.738   6.505  0.00  0.00    +0.027 A 
ATOM      9  C   UNL     1      -2.579   1.848   6.146  0.00  0.00    +0.034 A 
ATOM     10  C   UNL     1      -3.585   1.536   7.051  0.00  0.00    +0.027 A 
ATOM     11  C   UNL     1      -3.580   2.102   8.310  0.00  0.00    +0.047 A 
BRANCH   6  12
ATOM     12  O   UNL     1      -2.576   3.552   9.906  0.00  0.00    -0.492 OA
BRANCH  12  14
ATOM     13  C   UNL     1      -3.470   3.908  12.123  0.00  0.00    +0.048 C 
ATOM     14  C   UNL     1      -3.639   3.181  10.788  0.00  0.00    +0.225 C 
ENDBRANCH  12  14
ENDBRANCH   6  12
ENDBRANCH   2   9
ENDBRANCH   1   3
BRANCH   1  15
ATOM     15  C   UNL     1       0.024   0.018   2.483  0.00  0.00    +0.052 C 
BRANCH  15  16
ATOM     16  C   UNL     1       0.022  -0.698   1.157  0.00  0.00    +0.041 A 
ATOM     17  C   UNL     1       0.007   0.012   0.000  0.00  0.00    -0.030 A 
ATOM     18  C   UNL     1      -0.001  -0.727  -1.266  0.00  0.00    +0.021 A 
ATOM     19  C   UNL     1      -0.011  -0.056  -2.493  0.00  0.00    +0.012 A 
ATOM     20  C   UNL     1      -0.012  -0.772  -3.656  0.00  0.00    +0.004 A 
ATOM     21  C   UNL     1       0.001  -2.159  -3.630  0.00  0.00    -0.047 A 
ATOM     22  C   UNL     1       0.016  -2.840  -2.430  0.00  0.00    +0.050 A 
ATOM     23  C   UNL     1       0.018  -2.132  -1.235  0.00  0.00    +0.140 A 
ATOM     24  O   UNL     1       0.033  -2.778  -0.050  0.00  0.00    -0.422 OA
ATOM     25  C   UNL     1       0.035  -2.109   1.114  0.00  0.00    +0.341 A 
ATOM     26  O   UNL     1       0.048  -2.734   2.158  0.00  0.00    -0.245 OA
ATOM     27  C   UNL     1      -0.002  -2.930  -4.925  0.00  0.00    +0.044 C 
ATOM     28  C   UNL     1      -0.007   1.519   0.017  0.00  0.00    +0.045 C 
ENDBRANCH  15  16
ENDBRANCH   1  15
TORSDOF 6
