REMARK  Name = ZINC66235340
REMARK  9 active torsions:
REMARK  status: ('A' for Active; 'I' for Inactive)
REMARK    1  A    between atoms: C_1  and  C_2
REMARK    2  A    between atoms: C_2  and  C_3
REMARK    3  A    between atoms: C_3  and  C_4
REMARK    4  A    between atoms: C_4  and  C_6
REMARK    5  A    between atoms: C_4  and  N_15
REMARK    6  A    between atoms: N_18  and  C_19
REMARK    7  A    between atoms: C_19  and  C_20
REMARK    8  A    between atoms: C_20  and  C_21
REMARK    9  A    between atoms: C_25  and  O_27
REMARK                            x       y       z     vdW  Elec       q    Type
REMARK                         _______ _______ _______ _____ _____    ______ ____
ROOT
ATOM      1  N   UNL     1       1.548  -2.511  -0.144  0.00  0.00    -0.290 N 
ATOM      2  C   UNL     1       0.993  -2.654   1.076  0.00  0.00    +0.300 C 
ATOM      3  O   UNL     1      -0.179  -2.381   1.246  0.00  0.00    -0.253 OA
ATOM      4  N   UNL     1       1.738  -3.099   2.107  0.00  0.00    -0.299 N 
ATOM      5  H   UNL     1       2.484  -2.728  -0.280  0.00  0.00    +0.151 HD
ATOM      6  H   UNL     1       2.674  -3.316   1.972  0.00  0.00    +0.150 HD
ENDROOT
BRANCH   1   7
ATOM      7  C   UNL     1       0.739  -2.027  -1.265  0.00  0.00    +0.143 C 
BRANCH   7   8
ATOM      8  C   UNL     1       1.334  -2.514  -2.561  0.00  0.00    +0.158 A 
ATOM      9  N   UNL     1       2.602  -2.501  -2.884  0.00  0.00    -0.132 NA
ATOM     10  N   UNL     1       2.767  -2.990  -4.062  0.00  0.00    -0.129 NA
ATOM     11  C   UNL     1       1.595  -3.346  -4.561  0.00  0.00    +0.161 A 
ATOM     12  N   UNL     1       0.651  -3.054  -3.607  0.00  0.00    -0.285 N 
ATOM     13  C   UNL     1      -0.667  -3.318  -3.835  0.00  0.00    +0.094 A 
ATOM     14  C   UNL     1      -1.063  -3.873  -5.000  0.00  0.00    +0.018 A 
ATOM     15  C   UNL     1      -0.121  -4.186  -5.994  0.00  0.00    +0.005 A 
ATOM     16  C   UNL     1       1.196  -3.921  -5.784  0.00  0.00    +0.048 A 
ENDBRANCH   7   8
BRANCH   7  17
ATOM     17  C   UNL     1       0.718  -0.497  -1.257  0.00  0.00    +0.030 C 
BRANCH  17  19
ATOM     18  C   UNL     1      -0.019   1.526   0.010  0.00  0.00    +0.004 C 
ATOM     19  C   UNL     1       0.002  -0.004   0.002  0.00  0.00    -0.001 C 
ENDBRANCH  17  19
ENDBRANCH   7  17
ENDBRANCH   1   7
BRANCH   4  20
ATOM     20  C   UNL     1       1.135  -3.254   3.433  0.00  0.00    +0.110 C 
BRANCH  20  21
ATOM     21  C   UNL     1       2.188  -3.770   4.416  0.00  0.00    +0.054 C 
BRANCH  21  22
ATOM     22  C   UNL     1       1.567  -3.930   5.779  0.00  0.00    -0.042 A 
ATOM     23  C   UNL     1       1.579  -2.873   6.672  0.00  0.00    +0.004 A 
ATOM     24  C   UNL     1       1.010  -3.017   7.924  0.00  0.00    +0.004 A 
ATOM     25  C   UNL     1       0.429  -4.217   8.287  0.00  0.00    +0.045 A 
ATOM     26  C   UNL     1       0.416  -5.278   7.393  0.00  0.00    +0.117 A 
ATOM     27  C   UNL     1       0.982  -5.129   6.135  0.00  0.00    +0.049 A 
BRANCH  26  28
ATOM     28  O   UNL     1      -0.154  -6.459   7.748  0.00  0.00    -0.507 OA
ATOM     29  H   UNL     1      -1.095  -6.522   7.530  0.00  0.00    +0.292 HD
ENDBRANCH  26  28
ENDBRANCH  21  22
ENDBRANCH  20  21
ENDBRANCH   4  20
TORSDOF 8
