REMARK  Name = ZINC04267728
REMARK  4 active torsions:
REMARK  status: ('A' for Active; 'I' for Inactive)
REMARK    1  A    between atoms: C_1  and  C_2
REMARK    2  A    between atoms: C_3  and  C_16
REMARK    3  A    between atoms: C_4  and  C_10
REMARK    4  A    between atoms: C_16  and  C_18
REMARK                            x       y       z     vdW  Elec       q    Type
REMARK                         _______ _______ _______ _____ _____    ______ ____
ROOT
ATOM      1  C   UNL     1      -2.245   3.960  -0.830  0.00  0.00    +0.061 C 
ATOM      2  C   UNL     1      -1.091   3.252  -0.169  0.00  0.00    +0.015 C 
ATOM      3  C   UNL     1      -0.026   3.963   0.248  0.00  0.00    +0.024 C 
ATOM      4  C   UNL     1       1.137   3.273   0.911  0.00  0.00    +0.063 C 
ATOM      5  C   UNL     1       1.320   1.883   0.298  0.00  0.00    +0.109 C 
ATOM      6  C   UNL     1      -0.015   1.188   0.229  0.00  0.00    +0.218 C 
ATOM      7  O   UNL     1      -0.078  -0.014   0.377  0.00  0.00    -0.275 OA
ATOM      8  N   UNL     1      -1.138   1.893  -0.003  0.00  0.00    -0.289 N 
ATOM      9  H   UNL     1      -1.991   1.434  -0.051  0.00  0.00    +0.154 HD
ENDROOT
BRANCH   4  10
ATOM     10  C   UNL     1       0.867   3.139   2.388  0.00  0.00    -0.039 A 
ATOM     11  C   UNL     1      -0.240   2.438   2.827  0.00  0.00    +0.004 A 
ATOM     12  C   UNL     1      -0.485   2.311   4.182  0.00  0.00    +0.000 A 
ATOM     13  C   UNL     1       0.371   2.895   5.097  0.00  0.00    +0.000 A 
ATOM     14  C   UNL     1       1.476   3.601   4.657  0.00  0.00    +0.000 A 
ATOM     15  C   UNL     1       1.724   3.723   3.303  0.00  0.00    +0.004 A 
ENDBRANCH   4  10
BRANCH   3  16
ATOM     16  C   UNL     1       0.002   5.366   0.062  0.00  0.00    +0.191 C 
ATOM     17  O   UNL     1      -0.778   6.077   0.671  0.00  0.00    -0.287 OA
BRANCH  16  18
ATOM     18  C   UNL     1       0.977   5.970  -0.873  0.00  0.00    +0.022 A 
ATOM     19  C   UNL     1       1.788   5.154  -1.663  0.00  0.00    +0.012 A 
ATOM     20  C   UNL     1       2.691   5.722  -2.537  0.00  0.00    +0.001 A 
ATOM     21  C   UNL     1       2.803   7.099  -2.623  0.00  0.00    +0.000 A 
ATOM     22  C   UNL     1       2.005   7.914  -1.838  0.00  0.00    +0.001 A 
ATOM     23  C   UNL     1       1.094   7.357  -0.965  0.00  0.00    +0.012 A 
ENDBRANCH  16  18
ENDBRANCH   3  16
TORSDOF 3
