REMARK  Name = ZINC65248322
REMARK  3 active torsions:
REMARK  status: ('A' for Active; 'I' for Inactive)
REMARK    1  A    between atoms: C_8  and  C_14
REMARK    2  A    between atoms: C_10  and  O_13
REMARK    3  A    between atoms: C_17  and  C_20
REMARK                            x       y       z     vdW  Elec       q    Type
REMARK                         _______ _______ _______ _____ _____    ______ ____
ROOT
ATOM      1  C   UNL     1      -0.016   1.357   0.009  0.00  0.00    +0.001 A 
ATOM      2  C   UNL     1       1.162   2.096   0.002  0.00  0.00    +0.002 A 
ATOM      3  C   UNL     1       2.386   1.497  -0.013  0.00  0.00    +0.024 A 
ATOM      4  C   UNL     1       2.480   0.095  -0.021  0.00  0.00    +0.044 A 
ATOM      5  N   UNL     1       3.684  -0.492  -0.035  0.00  0.00    -0.284 N 
ATOM      6  C   UNL     1       3.857  -1.798  -0.044  0.00  0.00    +0.233 C 
ATOM      7  O   UNL     1       4.982  -2.263  -0.057  0.00  0.00    -0.274 OA
ATOM      8  C   UNL     1       2.659  -2.721  -0.038  0.00  0.00    +0.202 C 
ATOM      9  C   UNL     1       1.286  -2.078  -0.022  0.00  0.00    +0.120 C 
ATOM     10  C   UNL     1       1.238  -0.682  -0.013  0.00  0.00    +0.034 A 
ATOM     11  C   UNL     1       0.002  -0.004   0.002  0.00  0.00    +0.013 A 
ATOM     12  H   UNL     1       4.471   0.075  -0.039  0.00  0.00    +0.155 HD
ENDROOT
BRANCH   8  13
ATOM     13  C   UNL     1       2.769  -3.625   1.191  0.00  0.00    +0.311 C 
ATOM     14  N   UNL     1       4.044  -4.358   1.177  0.00  0.00    -0.289 N 
ATOM     15  C   UNL     1       3.731  -5.704   1.132  0.00  0.00    +0.168 C 
ATOM     16  N   UNL     1       2.451  -5.886   1.116  0.00  0.00    -0.067 NA
ATOM     17  O   UNL     1       1.762  -4.648   1.152  0.00  0.00    -0.368 OA
ATOM     18  H   UNL     1       4.934  -3.972   1.196  0.00  0.00    +0.151 HD
BRANCH  15  19
ATOM     19  C   UNL     1       4.731  -6.796   1.104  0.00  0.00    +0.019 A 
ATOM     20  C   UNL     1       6.093  -6.497   1.130  0.00  0.00    +0.011 A 
ATOM     21  C   UNL     1       7.021  -7.518   1.104  0.00  0.00    +0.002 A 
ATOM     22  C   UNL     1       6.603  -8.836   1.052  0.00  0.00    +0.020 A 
ATOM     23  C   UNL     1       5.253  -9.139   1.026  0.00  0.00    +0.042 A 
ATOM     24  C   UNL     1       4.314  -8.126   1.058  0.00  0.00    +0.031 A 
ATOM     25 CL   UNL     1       4.737 -10.795   0.960  0.00  0.00    -0.084 Cl
ENDBRANCH  15  19
ENDBRANCH   8  13
BRANCH   9  26
ATOM     26  O   UNL     1       0.170  -2.815  -0.016  0.00  0.00    -0.509 OA
ATOM     27  H   UNL     1      -0.645  -2.295  -0.005  0.00  0.00    +0.292 HD
ENDBRANCH   9  26
TORSDOF 3
