REMARK  Name = ZINC05137232
REMARK  4 active torsions:
REMARK  status: ('A' for Active; 'I' for Inactive)
REMARK    1  A    between atoms: C_1  and  O_2
REMARK    2  A    between atoms: O_2  and  C_3
REMARK    3  A    between atoms: C_6  and  C_9
REMARK    4  A    between atoms: C_14  and  C_24
REMARK                            x       y       z     vdW  Elec       q    Type
REMARK                         _______ _______ _______ _____ _____    ______ ____
ROOT
ATOM      1  C   UNL     1      -0.571  -3.187  -3.466  0.00  0.00    +0.032 C 
ATOM      2  C   UNL     1      -1.991  -2.631  -3.375  0.00  0.00    +0.059 C 
ATOM      3  C   UNL     1      -2.074  -1.597  -2.264  0.00  0.00    +0.017 C 
ATOM      4  C   UNL     1      -1.305  -1.711  -1.167  0.00  0.00    +0.038 C 
ATOM      5  C   UNL     1      -1.298  -0.767   0.010  0.00  0.00    +0.155 C 
ATOM      6  N   UNL     1      -2.388   0.186   0.026  0.00  0.00    -0.330 N 
ATOM      7  C   UNL     1      -2.503   1.159  -0.965  0.00  0.00    +0.049 A 
ATOM      8  C   UNL     1      -2.385   2.509  -0.672  0.00  0.00    +0.025 A 
ATOM      9  C   UNL     1      -2.460   3.436  -1.697  0.00  0.00    +0.002 A 
ATOM     10  C   UNL     1      -2.647   3.022  -3.003  0.00  0.00    +0.002 A 
ATOM     11  C   UNL     1      -2.783   1.675  -3.297  0.00  0.00    +0.025 A 
ATOM     12  C   UNL     1      -2.731   0.749  -2.270  0.00  0.00    +0.052 A 
ATOM     13  N   UNL     1      -2.974  -0.604  -2.477  0.00  0.00    -0.316 N 
ATOM     14  C   UNL     1      -0.398  -2.790  -1.042  0.00  0.00    +0.163 C 
ATOM     15  O   UNL     1       0.271  -2.879  -0.032  0.00  0.00    -0.292 OA
ATOM     16  C   UNL     1      -0.234  -3.826  -2.113  0.00  0.00    +0.088 C 
ATOM     17  H   UNL     1      -3.140   0.147   0.827  0.00  0.00    +0.147 HD
ATOM     18  H   UNL     1      -3.984  -0.845  -2.840  0.00  0.00    +0.152 HD
ENDROOT
BRANCH   1  22
ATOM     19  C   UNL     1      -0.366  -6.136  -6.552  0.00  0.00    +0.120 A 
ATOM     20  C   UNL     1       0.455  -5.019  -6.603  0.00  0.00    +0.046 A 
ATOM     21  C   UNL     1       0.387  -4.067  -5.604  0.00  0.00    +0.007 A 
ATOM     22  C   UNL     1      -0.499  -4.227  -4.554  0.00  0.00    -0.043 A 
ATOM     23  C   UNL     1      -1.314  -5.342  -4.498  0.00  0.00    +0.007 A 
ATOM     24  C   UNL     1      -1.254  -6.294  -5.498  0.00  0.00    +0.046 A 
BRANCH  19  26
ATOM     25  C   UNL     1      -1.176  -8.197  -7.416  0.00  0.00    +0.277 C 
ATOM     26  O   UNL     1      -0.301  -7.074  -7.534  0.00  0.00    -0.495 OA
ENDBRANCH  19  26
ENDBRANCH   1  22
BRANCH   5  27
ATOM     27  C   UNL     1       0.002  -0.004   0.002  0.00  0.00    +0.066 A 
ATOM     28  C   UNL     1       0.780   0.032   1.144  0.00  0.00    +0.025 A 
ATOM     29  C   UNL     1       1.974   0.736   1.125  0.00  0.00    +0.003 A 
ATOM     30  C   UNL     1       2.342   1.381  -0.045  0.00  0.00    +0.020 A 
ATOM     31  C   UNL     1       1.513   1.300  -1.148  0.00  0.00    +0.111 A 
ATOM     32  N   UNL     1       0.384   0.621  -1.094  0.00  0.00    -0.258 NA
ENDBRANCH   5  27
TORSDOF 3
