REMARK  Name = ZINC63487007
REMARK  5 active torsions:
REMARK  status: ('A' for Active; 'I' for Inactive)
REMARK    1  A    between atoms: C_4  and  C_7
REMARK    2  A    between atoms: C_9  and  C_12
REMARK    3  A    between atoms: C_12  and  N_13
REMARK    4  A    between atoms: C_14  and  C_16
REMARK    5  A    between atoms: C_17  and  C_18
REMARK                            x       y       z     vdW  Elec       q    Type
REMARK                         _______ _______ _______ _____ _____    ______ ____
ROOT
ATOM      1  C   UNL     1       5.728  -3.684  -0.083  0.00  0.00    +0.184 C 
ENDROOT
BRANCH   1   4
ATOM      2  C   UNL     1       3.695  -0.684  -0.038  0.00  0.00    +0.259 A 
ATOM      3  N   UNL     1       3.854  -1.989  -0.052  0.00  0.00    -0.190 NA
ATOM      4  C   UNL     1       5.154  -2.291  -0.065  0.00  0.00    +0.189 A 
ATOM      5  N   UNL     1       5.848  -1.188  -0.060  0.00  0.00    -0.059 NA
ATOM      6  O   UNL     1       4.914  -0.118  -0.048  0.00  0.00    -0.333 OA
BRANCH   2  10
ATOM      7  C   UNL     1      -0.017   1.379   0.010  0.00  0.00    +0.000 A 
ATOM      8  C   UNL     1       1.168   2.094   0.002  0.00  0.00    +0.001 A 
ATOM      9  C   UNL     1       2.377   1.429  -0.013  0.00  0.00    +0.013 A 
ATOM     10  C   UNL     1       2.403   0.034  -0.021  0.00  0.00    +0.039 A 
ATOM     11  C   UNL     1       1.204  -0.681  -0.013  0.00  0.00    +0.013 A 
ATOM     12  C   UNL     1       0.002  -0.004   0.002  0.00  0.00    +0.001 A 
ENDBRANCH   2  10
ENDBRANCH   1   4
BRANCH   1  13
ATOM     13  N   UNL     1       5.902  -4.122  -1.470  0.00  0.00    -0.305 N 
ATOM     14  C   UNL     1       6.405  -5.345  -1.732  0.00  0.00    +0.237 C 
ATOM     15  O   UNL     1       6.714  -6.086  -0.816  0.00  0.00    -0.271 OA
ATOM     16  H   UNL     1       5.657  -3.532  -2.200  0.00  0.00    +0.149 HD
BRANCH  14  17
ATOM     17  C   UNL     1       6.574  -5.768  -3.072  0.00  0.00    +0.071 C 
ATOM     18  C   UNL     1       7.080  -6.999  -3.336  0.00  0.00    +0.051 C 
BRANCH  18  19
ATOM     19  C   UNL     1       7.249  -7.422  -4.676  0.00  0.00    +0.128 A 
ATOM     20  C   UNL     1       7.744  -8.643  -5.087  0.00  0.00    +0.049 A 
ATOM     21  C   UNL     1       7.734  -8.626  -6.490  0.00  0.00    +0.042 A 
ATOM     22  C   UNL     1       7.245  -7.426  -6.872  0.00  0.00    +0.195 A 
ATOM     23  O   UNL     1       6.949  -6.707  -5.780  0.00  0.00    -0.464 OA
ENDBRANCH  18  19
ENDBRANCH  14  17
ENDBRANCH   1  13
TORSDOF 5
