REMARK  Name = ZINC49194392
REMARK  8 active torsions:
REMARK  status: ('A' for Active; 'I' for Inactive)
REMARK    1  A    between atoms: C_1  and  C_2
REMARK    2  A    between atoms: C_2  and  C_3
REMARK    3  A    between atoms: C_3  and  N_4
REMARK    4  A    between atoms: C_5  and  C_7
REMARK    5  A    between atoms: C_7  and  C_9
REMARK    6  A    between atoms: C_7  and  N_10
REMARK    7  A    between atoms: N_10  and  C_11
REMARK    8  A    between atoms: C_16  and  N_17
REMARK                            x       y       z     vdW  Elec       q    Type
REMARK                         _______ _______ _______ _____ _____    ______ ____
ROOT
ATOM      1  C   UNL     1       1.818  -5.917   3.921  0.00  0.00    +0.049 A 
ATOM      2  C   UNL     1       0.879  -6.724   3.296  0.00  0.00    +0.030 A 
ATOM      3  C   UNL     1       0.607  -7.984   3.796  0.00  0.00    -0.024 A 
ATOM      4  C   UNL     1       1.272  -8.445   4.924  0.00  0.00    +0.038 A 
ATOM      5  C   UNL     1       2.214  -7.641   5.553  0.00  0.00    +0.048 A 
ATOM      6  C   UNL     1       2.492  -6.380   5.051  0.00  0.00    +0.047 A 
ATOM      7  N   UNL     1       0.993  -9.722   5.426  0.00  0.00    -0.285 N 
ATOM      8  C   UNL     1       0.387 -10.642   4.652  0.00  0.00    +0.218 C 
ATOM      9  O   UNL     1       0.138 -11.738   5.107  0.00  0.00    -0.275 OA
ATOM     10  C   UNL     1       0.014 -10.324   3.229  0.00  0.00    +0.101 C 
ATOM     11  C   UNL     1      -0.413  -8.861   3.117  0.00  0.00    +0.046 C 
ATOM     12  H   UNL     1       1.236  -9.946   6.338  0.00  0.00    +0.155 HD
ENDROOT
BRANCH   6  13
ATOM     13  N   UNL     1       3.445  -5.569   5.680  0.00  0.00    -0.356 N 
ATOM     14  H   UNL     1       3.636  -4.685   5.330  0.00  0.00    +0.142 HD
ATOM     15  H   UNL     1       3.913  -5.892   6.465  0.00  0.00    +0.142 HD
ENDBRANCH   6  13
BRANCH   1  16
ATOM     16  N   UNL     1       2.093  -4.639   3.414  0.00  0.00    -0.332 N 
ATOM     17  H   UNL     1       2.753  -4.076   3.849  0.00  0.00    +0.147 HD
BRANCH  16  18
ATOM     18  C   UNL     1       1.385  -4.154   2.227  0.00  0.00    +0.154 C 
ATOM     19  C   UNL     1       2.101  -4.647   0.968  0.00  0.00    +0.038 C 
BRANCH  18  21
ATOM     20  N   UNL     1       0.762  -1.976   1.234  0.00  0.00    -0.314 N 
ATOM     21  C   UNL     1       1.364  -2.647   2.235  0.00  0.00    +0.233 C 
ATOM     22  O   UNL     1       1.890  -2.038   3.143  0.00  0.00    -0.274 OA
ATOM     23  H   UNL     1       0.342  -2.462   0.507  0.00  0.00    +0.149 HD
BRANCH  20  24
ATOM     24  C   UNL     1       0.742  -0.511   1.242  0.00  0.00    +0.104 C 
BRANCH  24  26
ATOM     25  C   UNL     1      -0.019   1.526   0.010  0.00  0.00    +0.005 C 
ATOM     26  C   UNL     1       0.002  -0.004   0.002  0.00  0.00    +0.015 C 
ENDBRANCH  24  26
ENDBRANCH  20  24
ENDBRANCH  18  21
ENDBRANCH  16  18
ENDBRANCH   1  16
TORSDOF 6
