REMARK  Name = ZINC36365704
REMARK  3 active torsions:
REMARK  status: ('A' for Active; 'I' for Inactive)
REMARK    1  A    between atoms: C_1  and  C_2
REMARK    2  A    between atoms: C_10  and  C_13
REMARK    3  A    between atoms: C_21  and  C_31
REMARK                            x       y       z     vdW  Elec       q    Type
REMARK                         _______ _______ _______ _____ _____    ______ ____
ROOT
ATOM      1  C   UNL     1       0.088  -5.156   3.538  0.00  0.00    +0.070 C 
ATOM      2  C   UNL     1      -1.153  -4.870   4.388  0.00  0.00    +0.109 C 
ATOM      3  C   UNL     1      -1.018  -3.569   5.127  0.00  0.00    +0.219 C 
ATOM      4  O   UNL     1      -1.993  -2.856   5.244  0.00  0.00    -0.275 OA
ATOM      5  N   UNL     1       0.153  -3.168   5.665  0.00  0.00    -0.270 N 
ATOM      6  C   UNL     1       1.301  -3.897   5.354  0.00  0.00    +0.134 A 
ATOM      7  C   UNL     1       1.311  -4.843   4.362  0.00  0.00    +0.023 A 
ATOM      8  C   UNL     1       2.585  -5.388   4.301  0.00  0.00    +0.066 A 
ATOM      9  N   UNL     1       3.330  -4.796   5.205  0.00  0.00    -0.168 NA
ATOM     10  N   UNL     1       2.544  -3.842   5.877  0.00  0.00    -0.198 N 
ATOM     11  C   UNL     1       2.973  -2.991   6.901  0.00  0.00    +0.178 A 
ATOM     12  C   UNL     1       4.063  -3.346   7.694  0.00  0.00    +0.055 A 
ATOM     13  C   UNL     1       4.451  -2.470   8.694  0.00  0.00    +0.077 A 
ATOM     14  C   UNL     1       3.727  -1.289   8.845  0.00  0.00    +0.289 A 
ATOM     15  O   UNL     1       4.070  -0.400   9.812  0.00  0.00    -0.264 OA
ATOM     16  N   UNL     1       2.705  -1.036   8.045  0.00  0.00    -0.105 NA
ATOM     17  N   UNL     1       2.349  -1.845   7.114  0.00  0.00    -0.126 NA
ATOM     18  C   UNL     1       3.036  -6.474   3.359  0.00  0.00    +0.068 C 
ATOM     19  H   UNL     1       0.196  -2.396   6.251  0.00  0.00    +0.156 HD
ENDROOT
BRANCH   1  29
ATOM     20  C   UNL     1      -0.018   1.503   0.010  0.00  0.00    +0.044 C 
ATOM     21  C   UNL     1       0.002  -0.004   0.002  0.00  0.00    -0.050 A 
ATOM     22  C   UNL     1       0.006  -0.688  -1.205  0.00  0.00    +0.007 A 
ATOM     23  C   UNL     1       0.024  -2.066  -1.234  0.00  0.00    +0.047 A 
ATOM     24  C   UNL     1       0.039  -2.784  -0.043  0.00  0.00    +0.138 A 
ATOM     25  C   UNL     1       0.036  -2.090   1.178  0.00  0.00    +0.064 A 
ATOM     26  C   UNL     1       0.023  -0.696   1.193  0.00  0.00    +0.018 A 
ATOM     27  C   UNL     1       0.052  -2.874   2.428  0.00  0.00    +0.196 A 
ATOM     28  O   UNL     1       0.050  -2.331   3.519  0.00  0.00    -0.287 OA
ATOM     29  C   UNL     1       0.070  -4.289   2.305  0.00  0.00    +0.043 A 
ATOM     30  C   UNL     1       0.072  -4.850   1.083  0.00  0.00    +0.203 A 
ATOM     31  O   UNL     1       0.057  -4.132  -0.045  0.00  0.00    -0.462 OA
ENDBRANCH   1  29
TORSDOF 1
