REMARK  Name = ZINC21735684
REMARK  7 active torsions:
REMARK  status: ('A' for Active; 'I' for Inactive)
REMARK    1  A    between atoms: C_1  and  C_2
REMARK    2  A    between atoms: C_2  and  C_21
REMARK    3  A    between atoms: N_5  and  C_9
REMARK    4  A    between atoms: C_9  and  C_10
REMARK    5  A    between atoms: N_12  and  C_13
REMARK    6  A    between atoms: C_14  and  C_18
REMARK    7  A    between atoms: C_24  and  C_27
REMARK                            x       y       z     vdW  Elec       q    Type
REMARK                         _______ _______ _______ _____ _____    ______ ____
ROOT
ATOM      1  C   UNL     1      -0.791   2.022   1.224  0.00  0.00    +0.047 C 
ATOM      2  C   UNL     1      -0.018   1.503   0.010  0.00  0.00    +0.135 C 
ATOM      3  C   UNL     1      -0.619   2.035  -1.276  0.00  0.00    +0.251 C 
ATOM      4  O   UNL     1      -1.742   1.847  -1.692  0.00  0.00    -0.272 OA
ATOM      5  N   UNL     1       0.355   2.760  -1.860  0.00  0.00    -0.215 N 
ATOM      6  C   UNL     1       1.476   2.759  -1.130  0.00  0.00    +0.310 C 
ATOM      7  O   UNL     1       2.492   3.344  -1.451  0.00  0.00    -0.252 OA
ATOM      8  N   UNL     1       1.353   2.040   0.000  0.00  0.00    -0.281 N 
ATOM      9  H   UNL     1       2.039   1.812   0.829  0.00  0.00    +0.152 HD
ENDROOT
BRANCH   2  10
ATOM     10  C   UNL     1       0.002  -0.004   0.002  0.00  0.00    -0.015 A 
ATOM     11  C   UNL     1      -1.021  -0.703  -0.613  0.00  0.00    +0.007 A 
ATOM     12  C   UNL     1      -1.006  -2.083  -0.629  0.00  0.00    +0.019 A 
ATOM     13  C   UNL     1       0.039  -2.773  -0.012  0.00  0.00    +0.052 A 
ATOM     14  C   UNL     1       1.066  -2.061   0.611  0.00  0.00    +0.019 A 
ATOM     15  C   UNL     1       1.041  -0.682   0.615  0.00  0.00    +0.007 A 
BRANCH  13  16
ATOM     16  C   UNL     1       0.059  -4.205  -0.020  0.00  0.00    +0.099 C 
ATOM     17  N   UNL     1       0.074  -5.341  -0.026  0.00  0.00    -0.191 NA
ENDBRANCH  13  16
ENDBRANCH   2  10
BRANCH   5  18
ATOM     18  C   UNL     1       0.206   3.461  -3.138  0.00  0.00    +0.214 C 
BRANCH  18  19
ATOM     19  C   UNL     1       0.603   2.542  -4.264  0.00  0.00    +0.236 C 
ATOM     20  O   UNL     1       0.975   1.413  -4.024  0.00  0.00    -0.274 OA
ATOM     21  N   UNL     1       0.546   2.975  -5.539  0.00  0.00    -0.278 N 
ATOM     22  H   UNL     1       0.209   3.999  -5.758  0.00  0.00    +0.155 HD
BRANCH  21  23
ATOM     23  C   UNL     1       0.911   2.130  -6.576  0.00  0.00    +0.084 A 
ATOM     24  C   UNL     1       0.914   2.389  -7.941  0.00  0.00    +0.065 A 
ATOM     25  C   UNL     1       1.350   1.318  -8.805  0.00  0.00    +0.022 A 
ATOM     26  C   UNL     1       1.706   0.161  -8.217  0.00  0.00    +0.048 A 
ATOM     27  S   UNL     1       1.468   0.493  -6.483  0.00  0.00    -0.081 S 
BRANCH  24  28
ATOM     28  C   UNL     1       0.498   3.689  -8.478  0.00  0.00    +0.244 C 
ATOM     29  O   UNL     1       0.139   4.572  -7.723  0.00  0.00    -0.270 OA
ATOM     30  N   UNL     1       0.514   3.904  -9.809  0.00  0.00    -0.325 N 
ATOM     31  H   UNL     1       0.202   4.879 -10.211  0.00  0.00    +0.145 HD
ATOM     32  H   UNL     1       0.839   3.106 -10.492  0.00  0.00    +0.145 HD
ENDBRANCH  24  28
ENDBRANCH  21  23
ENDBRANCH  18  19
ENDBRANCH   5  18
TORSDOF 6
