REMARK  Name = ZINC30542551
REMARK  6 active torsions:
REMARK  status: ('A' for Active; 'I' for Inactive)
REMARK    1  A    between atoms: C_1  and  C_2
REMARK    2  A    between atoms: C_2  and  N_3
REMARK    3  A    between atoms: C_4  and  C_15
REMARK    4  A    between atoms: C_18  and  C_21
REMARK    5  A    between atoms: C_21  and  C_22
REMARK    6  A    between atoms: C_21  and  C_23
REMARK                            x       y       z     vdW  Elec       q    Type
REMARK                         _______ _______ _______ _____ _____    ______ ____
ROOT
ATOM      1  N   UNL     1      -1.372  -0.511   0.012  0.00  0.00    -0.275 N 
ATOM      2  C   UNL     1      -2.036  -0.761   1.292  0.00  0.00    +0.192 C 
ATOM      3  N   UNL     1      -3.482  -0.539   1.167  0.00  0.00    -0.321 N 
ATOM      4  C   UNL     1      -4.138  -1.051   0.053  0.00  0.00    +0.041 A 
ATOM      5  C   UNL     1      -5.466  -1.437   0.099  0.00  0.00    +0.024 A 
ATOM      6  C   UNL     1      -6.071  -1.942  -1.037  0.00  0.00    +0.002 A 
ATOM      7  C   UNL     1      -5.357  -2.064  -2.219  0.00  0.00    +0.001 A 
ATOM      8  C   UNL     1      -4.033  -1.683  -2.282  0.00  0.00    +0.015 A 
ATOM      9  C   UNL     1      -3.412  -1.171  -1.145  0.00  0.00    +0.058 A 
ATOM     10  C   UNL     1      -2.005  -0.734  -1.158  0.00  0.00    +0.250 C 
ATOM     11  O   UNL     1      -1.419  -0.580  -2.213  0.00  0.00    -0.270 OA
ATOM     12  H   UNL     1      -3.968  -0.047   1.847  0.00  0.00    +0.148 HD
ENDROOT
BRANCH   2  13
ATOM     13  C   UNL     1      -1.787  -2.186   1.713  0.00  0.00    -0.009 A 
ATOM     14  C   UNL     1      -0.618  -2.823   1.341  0.00  0.00    +0.007 A 
ATOM     15  C   UNL     1      -0.390  -4.130   1.728  0.00  0.00    +0.004 A 
ATOM     16  C   UNL     1      -1.331  -4.801   2.486  0.00  0.00    -0.045 A 
ATOM     17  C   UNL     1      -2.500  -4.165   2.858  0.00  0.00    +0.004 A 
ATOM     18  C   UNL     1      -2.726  -2.856   2.476  0.00  0.00    +0.007 A 
BRANCH  16  19
ATOM     19  C   UNL     1      -1.083  -6.227   2.906  0.00  0.00    +0.013 C 
ATOM     20  C   UNL     1      -1.081  -6.316   4.434  0.00  0.00    +0.012 C 
ATOM     21  C   UNL     1      -2.188  -7.124   2.345  0.00  0.00    +0.012 C 
ENDBRANCH  16  19
ENDBRANCH   2  13
BRANCH   1  23
ATOM     22  C   UNL     1      -0.019   1.526   0.010  0.00  0.00    +0.024 C 
ATOM     23  C   UNL     1       0.002  -0.004   0.002  0.00  0.00    +0.107 C 
ENDBRANCH   1  23
TORSDOF 3
