REMARK  Name = ZINC04222554
REMARK  10 active torsions:
REMARK  status: ('A' for Active; 'I' for Inactive)
REMARK    1  A    between atoms: C_1  and  C_2
REMARK    2  A    between atoms: C_5  and  O_32
REMARK    3  A    between atoms: C_7  and  C_29
REMARK    4  A    between atoms: C_7  and  C_30
REMARK    5  A    between atoms: N_16  and  C_17
REMARK    6  A    between atoms: C_17  and  C_18
REMARK    7  A    between atoms: C_20  and  C_22
REMARK    8  A    between atoms: C_22  and  C_23
REMARK    9  A    between atoms: N_25  and  C_26
REMARK   10  A    between atoms: C_30  and  O_31
REMARK                            x       y       z     vdW  Elec       q    Type
REMARK                         _______ _______ _______ _____ _____    ______ ____
ROOT
ATOM      1  C   UNL     1       0.021   3.640  -0.458  0.00  0.00    +0.012 C 
ATOM      2  C   UNL     1      -1.264   2.839  -0.670  0.00  0.00    -0.019 C 
ATOM      3  C   UNL     1      -2.005   3.372  -1.901  0.00  0.00    +0.010 C 
ATOM      4  C   UNL     1      -1.154   3.184  -3.156  0.00  0.00    +0.032 C 
ATOM      5  C   UNL     1      -0.888   1.689  -3.352  0.00  0.00    +0.123 C 
ATOM      6  C   UNL     1      -0.108   1.168  -2.147  0.00  0.00    +0.021 C 
ATOM      7  C   UNL     1      -0.921   1.360  -0.863  0.00  0.00    +0.011 C 
ATOM      8  C   UNL     1      -0.036   0.895   0.311  0.00  0.00    +0.049 C 
ATOM      9  C   UNL     1      -0.628   1.377   1.587  0.00  0.00    +0.015 A 
ATOM     10  C   UNL     1      -1.593   2.319   1.749  0.00  0.00    +0.058 A 
ATOM     11  N   UNL     1      -1.954   2.575   3.006  0.00  0.00    -0.229 NA
ATOM     12  C   UNL     1      -1.406   1.950   4.034  0.00  0.00    +0.159 A 
ATOM     13  S   UNL     1      -0.273   0.887   3.254  0.00  0.00    -0.057 S 
ATOM     14  N   UNL     1      -1.669   2.103   5.386  0.00  0.00    -0.320 N 
ATOM     15  C   UNL     1      -2.195   3.013   0.537  0.00  0.00    +0.054 C 
ATOM     16  C   UNL     1       0.188  -0.321  -2.340  0.00  0.00    +0.016 C 
ATOM     17  H   UNL     1      -2.335   2.742   5.682  0.00  0.00    +0.148 HD
ENDROOT
BRANCH   5  18
ATOM     18  O   UNL     1      -0.121   1.491  -4.541  0.00  0.00    -0.391 OA
ATOM     19  H   UNL     1      -0.552   1.810  -5.345  0.00  0.00    +0.210 HD
ENDBRANCH   5  18
BRANCH  14  20
ATOM     20  C   UNL     1      -0.940   1.297   6.370  0.00  0.00    +0.130 C 
BRANCH  20  21
ATOM     21  C   UNL     1      -1.409   1.652   7.757  0.00  0.00    -0.016 C 
ATOM     22  C   UNL     1      -1.853   0.715   8.558  0.00  0.00    +0.005 C 
ENDBRANCH  20  21
ENDBRANCH  14  20
BRANCH  15  23
ATOM     23  C   UNL     1      -2.366   4.504   0.837  0.00  0.00    +0.106 C 
BRANCH  23  24
ATOM     24  C   UNL     1      -3.431   4.686   1.888  0.00  0.00    +0.214 C 
ATOM     25  O   UNL     1      -3.997   3.718   2.352  0.00  0.00    -0.276 OA
ATOM     26  N   UNL     1      -3.754   5.923   2.312  0.00  0.00    -0.312 N 
ATOM     27  H   UNL     1      -3.302   6.697   1.942  0.00  0.00    +0.149 HD
BRANCH  26  28
ATOM     28  C   UNL     1      -4.789   6.100   3.334  0.00  0.00    +0.073 C 
ATOM     29  C   UNL     1      -5.811   7.218   3.119  0.00  0.00    +0.024 C 
ATOM     30  C   UNL     1      -4.728   7.367   4.189  0.00  0.00    +0.024 C 
ENDBRANCH  26  28
ENDBRANCH  23  24
ENDBRANCH  15  23
BRANCH   6  31
ATOM     31  C   UNL     1       1.212   1.931  -2.029  0.00  0.00    +0.165 C 
BRANCH  31  32
ATOM     32  O   UNL     1       2.039   1.630  -3.155  0.00  0.00    -0.394 OA
ATOM     33  H   UNL     1       2.895   2.081  -3.147  0.00  0.00    +0.209 HD
ENDBRANCH  31  32
ENDBRANCH   6  31
TORSDOF 8
