REMARK  Name = ZINC15416954
REMARK  7 active torsions:
REMARK  status: ('A' for Active; 'I' for Inactive)
REMARK    1  A    between atoms: C_1  and  C_2
REMARK    2  A    between atoms: C_11  and  C_12
REMARK    3  A    between atoms: C_11  and  N_54
REMARK    4  A    between atoms: N_14  and  C_15
REMARK    5  A    between atoms: C_15  and  C_16
REMARK    6  A    between atoms: C_16  and  N_17
REMARK    7  A    between atoms: C_21  and  C_22
REMARK                            x       y       z     vdW  Elec       q    Type
REMARK                         _______ _______ _______ _____ _____    ______ ____
ROOT
ATOM      1  C   UNL     1       2.822   1.415  -1.482  0.00  0.00    +0.123 C 
ENDROOT
BRANCH   1   4
ATOM      2  C   UNL     1       4.266   0.133  -2.969  0.00  0.00    +0.197 C 
ATOM      3  O   UNL     1       3.723   0.670  -3.911  0.00  0.00    -0.278 OA
ATOM      4  N   UNL     1       3.888   0.437  -1.711  0.00  0.00    -0.315 N 
ATOM      5  H   UNL     1       4.323   0.008  -0.957  0.00  0.00    +0.149 HD
BRANCH   2   6
ATOM      6  C   UNL     1       5.363  -0.873  -3.204  0.00  0.00    +0.020 C 
BRANCH   6  16
ATOM      7  C   UNL     1       7.949  -1.006  -4.612  0.00  0.00    -0.007 C 
ATOM      8  C   UNL     1       6.731  -1.872  -4.939  0.00  0.00    -0.023 C 
ATOM      9  C   UNL     1       6.729  -2.218  -6.408  0.00  0.00    +0.005 A 
ATOM     10  C   UNL     1       7.758  -2.628  -7.165  0.00  0.00    +0.021 A 
ATOM     11  C   UNL     1       7.266  -2.820  -8.473  0.00  0.00    +0.019 A 
ATOM     12  C   UNL     1       5.950  -2.518  -8.461  0.00  0.00    +0.086 A 
ATOM     13  N   UNL     1       5.612  -2.149  -7.199  0.00  0.00    -0.354 N 
ATOM     14  C   UNL     1       4.295  -1.737  -6.699  0.00  0.00    +0.103 C 
ATOM     15  C   UNL     1       4.314  -1.825  -5.168  0.00  0.00    -0.055 C 
ATOM     16  N   UNL     1       5.497  -1.098  -4.658  0.00  0.00    +0.392 N 
ATOM     17  H   UNL     1       5.559  -0.189  -5.132  0.00  0.00    -0.080 HD
ENDBRANCH   6  16
ENDBRANCH   2   6
ENDBRANCH   1   4
BRANCH   1  18
ATOM     18  C   UNL     1       2.590   1.575   0.021  0.00  0.00    +0.136 C 
BRANCH  18  19
ATOM     19  N   UNL     1       1.524   2.553   0.250  0.00  0.00    -0.227 N 
ATOM     20  C   UNL     1       0.270   2.138   0.320  0.00  0.00    +0.260 C 
ATOM     21  O   UNL     1      -0.022   0.963   0.200  0.00  0.00    -0.269 OA
ATOM     22  C   UNL     1      -0.758   3.175   0.546  0.00  0.00    +0.080 C 
ATOM     23  C   UNL     1      -2.104   3.048   0.655  0.00  0.00    +0.029 C 
ATOM     24  S   UNL     1       0.260   4.642   0.638  0.00  0.00    -0.026 S 
ATOM     25  C   UNL     1       1.843   3.857   0.384  0.00  0.00    +0.286 C 
ATOM     26  O   UNL     1       2.944   4.373   0.342  0.00  0.00    -0.262 OA
BRANCH  23  27
ATOM     27  C   UNL     1      -2.952   4.247   0.716  0.00  0.00    -0.005 A 
ATOM     28  C   UNL     1      -2.456   5.483   0.285  0.00  0.00    +0.009 A 
ATOM     29  C   UNL     1      -3.260   6.601   0.340  0.00  0.00    +0.001 A 
ATOM     30  C   UNL     1      -4.551   6.507   0.830  0.00  0.00    +0.001 A 
ATOM     31  C   UNL     1      -5.049   5.291   1.263  0.00  0.00    +0.020 A 
ATOM     32  C   UNL     1      -4.260   4.160   1.210  0.00  0.00    +0.048 A 
ATOM     33 CL   UNL     1      -4.885   2.635   1.754  0.00  0.00    -0.083 Cl
ENDBRANCH  23  27
ENDBRANCH  18  19
ENDBRANCH   1  18
TORSDOF 6
