REMARK  Name = ZINC20054557
REMARK  9 active torsions:
REMARK  status: ('A' for Active; 'I' for Inactive)
REMARK    1  A    between atoms: C_1  and  C_2
REMARK    2  A    between atoms: C_3  and  N_9
REMARK    3  A    between atoms: C_10  and  C_12
REMARK    4  A    between atoms: C_12  and  N_13
REMARK    5  A    between atoms: C_14  and  C_16
REMARK    6  A    between atoms: C_16  and  O_17
REMARK    7  A    between atoms: O_17  and  C_18
REMARK    8  A    between atoms: C_18  and  C_20
REMARK    9  A    between atoms: C_22  and  N_28
REMARK                            x       y       z     vdW  Elec       q    Type
REMARK                         _______ _______ _______ _____ _____    ______ ____
ROOT
ATOM      1  N   UNL     1      -1.406   6.124  -0.264  0.00  0.00    -0.304 N 
ATOM      2  C   UNL     1      -1.662   7.443  -0.365  0.00  0.00    +0.251 C 
ATOM      3  O   UNL     1      -0.747   8.238  -0.389  0.00  0.00    -0.272 OA
ATOM      4  H   UNL     1      -2.236   5.402  -0.242  0.00  0.00    +0.149 HD
ENDROOT
BRANCH   1   5
ATOM      5  C   UNL     1      -0.022   5.650  -0.183  0.00  0.00    +0.200 C 
BRANCH   5   7
ATOM      6  N   UNL     1       1.161   3.486   0.010  0.00  0.00    -0.284 N 
ATOM      7  C   UNL     1      -0.011   4.147  -0.077  0.00  0.00    +0.234 C 
ATOM      8  O   UNL     1      -1.056   3.531  -0.071  0.00  0.00    -0.274 OA
ATOM      9  H   UNL     1       2.103   4.046   0.095  0.00  0.00    +0.155 HD
BRANCH   6  12
ATOM     10  C   UNL     1       3.359   2.153   1.228  0.00  0.00    +0.047 C 
ATOM     11  C   UNL     1       2.232   1.396   0.575  0.00  0.00    -0.011 A 
ATOM     12  C   UNL     1       1.178   2.087  -0.009  0.00  0.00    +0.038 A 
ATOM     13  C   UNL     1       0.141   1.387  -0.611  0.00  0.00    +0.023 A 
ATOM     14  C   UNL     1       0.160   0.005  -0.628  0.00  0.00    +0.003 A 
ATOM     15  C   UNL     1       1.210  -0.680  -0.047  0.00  0.00    +0.020 A 
ATOM     16  C   UNL     1       2.246   0.015   0.554  0.00  0.00    +0.046 A 
ATOM     17 CL   UNL     1       3.563  -0.850   1.283  0.00  0.00    -0.083 Cl
ENDBRANCH   6  12
ENDBRANCH   5   7
ENDBRANCH   1   5
BRANCH   2  18
ATOM     18  C   UNL     1      -3.086   7.930  -0.449  0.00  0.00    +0.328 C 
BRANCH  18  19
ATOM     19  O   UNL     1      -3.096   9.379  -0.550  0.00  0.00    -0.451 OA
BRANCH  19  20
ATOM     20  C   UNL     1      -4.300   9.977  -0.634  0.00  0.00    +0.360 C 
ATOM     21  O   UNL     1      -5.313   9.307  -0.623  0.00  0.00    -0.243 OA
BRANCH  20  22
ATOM     22  C   UNL     1      -4.389  11.450  -0.740  0.00  0.00    +0.169 A 
ATOM     23  C   UNL     1      -5.636  12.061  -0.832  0.00  0.00    +0.095 A 
ATOM     24  C   UNL     1      -5.702  13.451  -0.926  0.00  0.00    +0.067 A 
ATOM     25  C   UNL     1      -4.509  14.171  -0.935  0.00  0.00    +0.100 A 
ATOM     26  C   UNL     1      -3.306  13.490  -0.845  0.00  0.00    +0.150 A 
ATOM     27  N   UNL     1      -3.276  12.177  -0.752  0.00  0.00    -0.226 NA
ATOM     28 CL   UNL     1      -1.815  14.380  -0.855  0.00  0.00    -0.060 Cl
ATOM     29 CL   UNL     1      -4.530  15.903  -1.057  0.00  0.00    -0.078 Cl
ATOM     30 CL   UNL     1      -7.087  11.108  -0.823  0.00  0.00    -0.079 Cl
BRANCH  24  31
ATOM     31  N   UNL     1      -6.931  14.104  -1.014  0.00  0.00    -0.356 N 
ATOM     32  H   UNL     1      -6.967  15.200  -1.088  0.00  0.00    +0.142 HD
ATOM     33  H   UNL     1      -7.864  13.521  -1.011  0.00  0.00    +0.142 HD
ENDBRANCH  24  31
ENDBRANCH  20  22
ENDBRANCH  19  20
ENDBRANCH  18  19
ENDBRANCH   2  18
TORSDOF 8
