REMARK  Name = ZINC37638536
REMARK  3 active torsions:
REMARK  status: ('A' for Active; 'I' for Inactive)
REMARK    1  A    between atoms: C_4  and  N_7
REMARK    2  A    between atoms: C_8  and  C_19
REMARK    3  A    between atoms: C_24  and  N_25
REMARK                            x       y       z     vdW  Elec       q    Type
REMARK                         _______ _______ _______ _____ _____    ______ ____
ROOT
ATOM      1  N   UNL     1       3.695  -0.650  -0.093  0.00  0.00    -0.197 N 
ATOM      2  C   UNL     1       3.633  -2.108   0.062  0.00  0.00    +0.235 C 
ATOM      3  N   UNL     1       4.900  -2.857   0.105  0.00  0.00    -0.220 NA
ATOM      4  C   UNL     1       6.023  -2.166   0.002  0.00  0.00    +0.079 C 
ATOM      5  C   UNL     1       7.276  -2.810   0.035  0.00  0.00    +0.052 C 
ATOM      6  C   UNL     1       8.424  -2.060  -0.076  0.00  0.00    +0.035 C 
ATOM      7  C   UNL     1       8.373  -0.662  -0.220  0.00  0.00    +0.027 C 
ATOM      8  C   UNL     1       7.200   0.009  -0.258  0.00  0.00    +0.033 C 
ATOM      9  C   UNL     1       5.975  -0.699  -0.150  0.00  0.00    +0.105 C 
ATOM     10  N   UNL     1       4.830  -0.054  -0.191  0.00  0.00    -0.176 NA
ATOM     11  N   UNL     1       9.658  -2.696  -0.043  0.00  0.00    -0.398 N 
ATOM     12  H   UNL     1       9.704  -3.660   0.056  0.00  0.00    +0.156 HD
ATOM     13  H   UNL     1      10.474  -2.177  -0.120  0.00  0.00    +0.156 HD
ENDROOT
BRANCH   1  17
ATOM     14  C   UNL     1       0.175   1.566  -0.232  0.00  0.00    +0.000 A 
ATOM     15  C   UNL     1       1.385   2.175  -0.509  0.00  0.00    +0.002 A 
ATOM     16  C   UNL     1       2.555   1.444  -0.464  0.00  0.00    +0.025 A 
ATOM     17  C   UNL     1       2.515   0.093  -0.139  0.00  0.00    +0.054 A 
ATOM     18  C   UNL     1       1.297  -0.516   0.140  0.00  0.00    +0.025 A 
ATOM     19  C   UNL     1       0.132   0.222   0.093  0.00  0.00    +0.002 A 
ENDBRANCH   1  17
BRANCH   2  20
ATOM     20  C   UNL     1       2.817  -2.656  -1.081  0.00  0.00    +0.015 A 
ATOM     21  C   UNL     1       2.736  -1.958  -2.270  0.00  0.00    +0.009 A 
ATOM     22  C   UNL     1       1.988  -2.459  -3.318  0.00  0.00    +0.000 A 
ATOM     23  C   UNL     1       1.318  -3.661  -3.181  0.00  0.00    +0.002 A 
ATOM     24  C   UNL     1       1.395  -4.365  -1.996  0.00  0.00    +0.023 A 
ATOM     25  C   UNL     1       2.151  -3.866  -0.942  0.00  0.00    +0.031 A 
BRANCH  25  26
ATOM     26  N   UNL     1       2.235  -4.578   0.257  0.00  0.00    -0.358 N 
ATOM     27  H   UNL     1       2.701  -4.195   1.017  0.00  0.00    +0.142 HD
ATOM     28  H   UNL     1       1.828  -5.455   0.330  0.00  0.00    +0.142 HD
ENDBRANCH  25  26
ENDBRANCH   2  20
TORSDOF 3
