REMARK  Name = ZINC05633478
REMARK  11 active torsions:
REMARK  status: ('A' for Active; 'I' for Inactive)
REMARK    1  A    between atoms: C_1  and  C_2
REMARK    2  A    between atoms: C_2  and  C_3
REMARK    3  A    between atoms: C_2  and  C_4
REMARK    4  A    between atoms: C_11  and  N_28
REMARK    5  A    between atoms: C_12  and  C_26
REMARK    6  A    between atoms: C_13  and  C_15
REMARK    7  A    between atoms: C_17  and  O_24
REMARK    8  A    between atoms: C_18  and  O_23
REMARK    9  A    between atoms: C_19  and  O_21
REMARK   10  A    between atoms: O_21  and  C_22
REMARK   11  A    between atoms: O_24  and  C_25
REMARK                            x       y       z     vdW  Elec       q    Type
REMARK                         _______ _______ _______ _____ _____    ______ ____
ROOT
ATOM      1  C   UNL     1      -2.015   4.583   0.672  0.00  0.00    +0.073 A 
ATOM      2  C   UNL     1      -1.105   3.591   0.333  0.00  0.00    +0.050 A 
ATOM      3  C   UNL     1       0.143   4.150   0.310  0.00  0.00    +0.222 A 
ATOM      4  N   UNL     1       0.011   5.449   0.623  0.00  0.00    -0.246 N 
ATOM      5  H   UNL     1       0.752   6.118   0.685  0.00  0.00    +0.192 HD
ATOM      6  N   UNL     1      -1.351   5.702   0.847  0.00  0.00    -0.175 NA
ATOM      7  O   UNL     1       1.259   3.439   0.012  0.00  0.00    -0.423 OA
ATOM      8  C   UNL     1       1.158   2.095   0.002  0.00  0.00    +0.200 C 
ATOM      9  C   UNL     1      -0.017   1.428   0.010  0.00  0.00    +0.098 C 
ATOM     10  C   UNL     1      -1.349   2.136   0.020  0.00  0.00    +0.102 C 
ENDROOT
BRANCH  10  11
ATOM     11  C   UNL     1      -2.005   2.005  -1.330  0.00  0.00    -0.027 A 
ATOM     12  C   UNL     1      -1.377   2.507  -2.454  0.00  0.00    +0.054 A 
ATOM     13  C   UNL     1      -1.974   2.384  -3.699  0.00  0.00    +0.165 A 
ATOM     14  C   UNL     1      -3.213   1.764  -3.814  0.00  0.00    +0.201 A 
ATOM     15  C   UNL     1      -3.844   1.264  -2.682  0.00  0.00    +0.165 A 
ATOM     16  C   UNL     1      -3.237   1.387  -1.441  0.00  0.00    +0.054 A 
BRANCH  15  17
ATOM     17  O   UNL     1      -5.056   0.657  -2.789  0.00  0.00    -0.491 OA
ATOM     18  C   UNL     1      -5.646   0.168  -1.583  0.00  0.00    +0.277 C 
ENDBRANCH  15  17
BRANCH  14  19
ATOM     19  O   UNL     1      -3.805   1.646  -5.034  0.00  0.00    -0.501 OA
ATOM     20  H   UNL     1      -4.378   2.390  -5.266  0.00  0.00    +0.292 HD
ENDBRANCH  14  19
BRANCH  13  21
ATOM     21  O   UNL     1      -1.352   2.873  -4.804  0.00  0.00    -0.491 OA
ATOM     22  C   UNL     1      -0.082   3.498  -4.611  0.00  0.00    +0.277 C 
ENDBRANCH  13  21
ENDBRANCH  10  11
BRANCH   1  24
ATOM     23  C   UNL     1      -3.928   4.767   2.238  0.00  0.00    +0.014 C 
ATOM     24  C   UNL     1      -3.505   4.406   0.813  0.00  0.00    +0.034 C 
ATOM     25  C   UNL     1      -4.223   5.322  -0.180  0.00  0.00    +0.014 C 
ENDBRANCH   1  24
BRANCH   8  26
ATOM     26  N   UNL     1       2.318   1.360  -0.017  0.00  0.00    -0.328 N 
ATOM     27  H   UNL     1       2.278   0.391  -0.025  0.00  0.00    +0.145 HD
ATOM     28  H   UNL     1       3.177   1.810  -0.023  0.00  0.00    +0.145 HD
ENDBRANCH   8  26
BRANCH   9  29
ATOM     29  C   UNL     1       0.002  -0.004   0.002  0.00  0.00    +0.101 C 
ATOM     30  N   UNL     1       0.018  -1.140  -0.004  0.00  0.00    -0.191 NA
ENDBRANCH   9  29
TORSDOF 7
