REMARK  Name = ZINC41728592
REMARK  9 active torsions:
REMARK  status: ('A' for Active; 'I' for Inactive)
REMARK    1  A    between atoms: C_1  and  C_2
REMARK    2  A    between atoms: C_2  and  C_4
REMARK    3  A    between atoms: C_2  and  N_7
REMARK    4  A    between atoms: C_4  and  C_5
REMARK    5  A    between atoms: C_4  and  C_6
REMARK    6  A    between atoms: N_7  and  C_8
REMARK    7  A    between atoms: C_8  and  C_9
REMARK    8  A    between atoms: C_8  and  C_10
REMARK    9  A    between atoms: C_8  and  C_20
REMARK                            x       y       z     vdW  Elec       q    Type
REMARK                         _______ _______ _______ _____ _____    ______ ____
ROOT
ATOM      1  C   UNL     1      -0.018  -0.001  -2.526  0.00  0.00    +0.092 C 
ATOM      2  C   UNL     1      -0.586  -0.063  -1.107  0.00  0.00    +0.010 C 
ENDROOT
BRANCH   1   3
ATOM      3  C   UNL     1      -0.549  -1.158  -3.331  0.00  0.00    +0.106 A 
ATOM      4  C   UNL     1      -1.735  -1.178  -3.956  0.00  0.00    +0.052 A 
ATOM      5  C   UNL     1      -1.832  -2.491  -4.607  0.00  0.00    +0.021 A 
ATOM      6  C   UNL     1      -2.796  -3.118  -5.394  0.00  0.00    +0.027 A 
ATOM      7  C   UNL     1      -2.568  -4.395  -5.860  0.00  0.00    +0.019 A 
ATOM      8  C   UNL     1      -1.386  -5.053  -5.547  0.00  0.00    +0.019 A 
ATOM      9  C   UNL     1      -0.426  -4.443  -4.769  0.00  0.00    +0.048 A 
ATOM     10  C   UNL     1      -0.636  -3.156  -4.290  0.00  0.00    +0.135 A 
ATOM     11  O   UNL     1       0.100  -2.319  -3.531  0.00  0.00    -0.461 OA
ATOM     12 BR   UNL     1      -3.870  -5.254  -6.929  0.00  0.00    -0.050 Br
ENDBRANCH   1   3
BRANCH   1  13
ATOM     13  N   UNL     1       1.448  -0.075  -2.470  0.00  0.00    +0.396 N 
ATOM     14  H   UNL     1       1.727  -0.992  -2.154  0.00  0.00    -0.083 HD
ATOM     15  H   UNL     1       1.796   0.622  -1.829  0.00  0.00    -0.083 HD
BRANCH  13  17
ATOM     16  C   UNL     1       1.675  -1.013  -4.721  0.00  0.00    -0.013 C 
ATOM     17  C   UNL     1       2.002   0.171  -3.808  0.00  0.00    -0.070 C 
BRANCH  17  18
ATOM     18  C   UNL     1       3.520   0.334  -3.710  0.00  0.00    -0.031 C 
ATOM     19  C   UNL     1       4.146  -0.983  -3.248  0.00  0.00    +0.005 C 
ATOM     20  C   UNL     1       4.082   0.713  -5.082  0.00  0.00    +0.005 C 
ENDBRANCH  17  18
ENDBRANCH  13  17
ENDBRANCH   1  13
BRANCH   1  21
ATOM     21  C   UNL     1      -0.431   1.295  -3.176  0.00  0.00    +0.352 C 
ATOM     22  O   UNL     1       0.104   2.340  -2.848  0.00  0.00    -0.247 OA
ATOM     23  O   UNL     1      -1.301   1.298  -4.030  0.00  0.00    -0.247 OA
ENDBRANCH   1  21
TORSDOF 5
