REMARK  Name = ZINC43475310
REMARK  8 active torsions:
REMARK  status: ('A' for Active; 'I' for Inactive)
REMARK    1  A    between atoms: C_1  and  C_2
REMARK    2  A    between atoms: C_2  and  C_4
REMARK    3  A    between atoms: C_2  and  N_21
REMARK    4  A    between atoms: C_4  and  C_6
REMARK    5  A    between atoms: C_4  and  O_12
REMARK    6  A    between atoms: O_12  and  C_13
REMARK    7  A    between atoms: C_17  and  C_19
REMARK    8  A    between atoms: C_19  and  O_20
REMARK                            x       y       z     vdW  Elec       q    Type
REMARK                         _______ _______ _______ _____ _____    ______ ____
ROOT
ATOM      1  C   UNL     1       0.749  -0.511   1.252  0.00  0.00    +0.196 C 
ENDROOT
BRANCH   1   2
ATOM      2  C   UNL     1       2.165   0.003   1.302  0.00  0.00    +0.029 A 
ATOM      3  C   UNL     1       2.672   1.040   2.012  0.00  0.00    +0.030 A 
ATOM      4  C   UNL     1       4.018   1.334   1.902  0.00  0.00    +0.025 A 
ATOM      5  C   UNL     1       4.792   0.576   1.086  0.00  0.00    +0.060 A 
ATOM      6  S   UNL     1       3.611  -0.601   0.447  0.00  0.00    -0.097 S 
ATOM      7 BR   UNL     1       4.770   2.772   2.873  0.00  0.00    -0.050 Br
ENDBRANCH   1   2
BRANCH   1   9
ATOM      8  C   UNL     1       0.050   1.539   0.006  0.00  0.00    -0.010 C 
ATOM      9  C   UNL     1       0.063   0.009  -0.013  0.00  0.00    -0.032 C 
BRANCH   9  10
ATOM     10  N   UNL     1      -1.317  -0.492  -0.062  0.00  0.00    +0.382 N 
ATOM     11  H   UNL     1      -1.770  -0.149  -0.896  0.00  0.00    -0.089 HD
ATOM     12  H   UNL     1      -1.309  -1.501  -0.075  0.00  0.00    -0.089 HD
ATOM     13  H   UNL     1      -1.821  -0.170   0.751  0.00  0.00    -0.089 HD
ENDBRANCH   9  10
ENDBRANCH   1   9
BRANCH   1  14
ATOM     14  O   UNL     1       0.761  -1.940   1.234  0.00  0.00    -0.485 OA
BRANCH  14  15
ATOM     15  C   UNL     1      -0.215  -2.574   1.934  0.00  0.00    +0.122 A 
ATOM     16  C   UNL     1      -1.235  -1.841   2.524  0.00  0.00    +0.046 A 
ATOM     17  C   UNL     1      -2.227  -2.488   3.235  0.00  0.00    +0.004 A 
ATOM     18  C   UNL     1      -2.204  -3.865   3.359  0.00  0.00    +0.006 A 
ATOM     19  C   UNL     1      -1.189  -4.597   2.773  0.00  0.00    -0.019 A 
ATOM     20  C   UNL     1      -0.198  -3.955   2.056  0.00  0.00    +0.051 A 
BRANCH  19  21
ATOM     21  C   UNL     1      -1.167  -6.098   2.911  0.00  0.00    +0.191 C 
BRANCH  21  22
ATOM     22  O   UNL     1      -1.892  -6.686   1.829  0.00  0.00    -0.390 OA
ATOM     23  H   UNL     1      -1.919  -7.653   1.854  0.00  0.00    +0.210 HD
ENDBRANCH  21  22
ENDBRANCH  19  21
ENDBRANCH  14  15
ENDBRANCH   1  14
TORSDOF 7
