REMARK  Name = ZINC01471266
REMARK  12 active torsions:
REMARK  status: ('A' for Active; 'I' for Inactive)
REMARK    1  A    between atoms: C_1  and  C_2
REMARK    2  A    between atoms: C_2  and  O_3
REMARK    3  A    between atoms: O_3  and  C_4
REMARK    4  A    between atoms: C_6  and  C_18
REMARK    5  A    between atoms: C_9  and  O_10
REMARK    6  A    between atoms: O_10  and  C_11
REMARK    7  A    between atoms: C_11  and  C_12
REMARK    8  A    between atoms: C_23  and  C_34
REMARK    9  A    between atoms: N_24  and  C_27
REMARK   10  A    between atoms: C_27  and  C_28
REMARK   11  A    between atoms: C_36  and  N_40
REMARK   12  A    between atoms: C_37  and  C_38
REMARK                            x       y       z     vdW  Elec       q    Type
REMARK                         _______ _______ _______ _____ _____    ______ ____
ROOT
ATOM      1  C   UNL     1       1.306  -2.189  -0.128  0.00  0.00    +0.103 C 
ATOM      2  C   UNL     1       1.254  -0.687  -0.066  0.00  0.00    +0.072 A 
ATOM      3  C   UNL     1       2.398   0.066  -0.231  0.00  0.00    +0.141 A 
ATOM      4  C   UNL     1       2.306   1.471  -0.164  0.00  0.00    +0.068 A 
ATOM      5  C   UNL     1       1.109   2.055   0.058  0.00  0.00    +0.023 A 
ATOM      6  N   UNL     1      -0.014   1.307   0.219  0.00  0.00    -0.308 N 
ATOM      7  C   UNL     1       0.034  -0.037   0.162  0.00  0.00    +0.259 A 
ATOM      8  O   UNL     1      -0.987  -0.691   0.310  0.00  0.00    -0.267 OA
ATOM      9  C   UNL     1       1.017   3.558   0.128  0.00  0.00    +0.064 C 
ATOM     10  O   UNL     1       3.593  -0.522  -0.453  0.00  0.00    -0.441 OA
ATOM     11  C   UNL     1       3.645  -1.792  -0.890  0.00  0.00    +0.199 C 
ATOM     12  C   UNL     1       2.593  -2.636  -0.765  0.00  0.00    +0.098 C 
ENDROOT
BRANCH   1  15
ATOM     13  C   UNL     1       0.105  -4.112   2.894  0.00  0.00    +0.162 A 
ATOM     14  C   UNL     1       0.183  -3.595   1.611  0.00  0.00    +0.054 A 
ATOM     15  C   UNL     1       1.222  -2.750   1.268  0.00  0.00    -0.031 A 
ATOM     16  C   UNL     1       2.188  -2.422   2.203  0.00  0.00    +0.008 A 
ATOM     17  C   UNL     1       2.112  -2.929   3.486  0.00  0.00    +0.050 A 
ATOM     18  C   UNL     1       1.073  -3.777   3.836  0.00  0.00    +0.162 A 
BRANCH  13  19
ATOM     19  O   UNL     1      -0.916  -4.944   3.232  0.00  0.00    -0.489 OA
BRANCH  19  21
ATOM     20  C   UNL     1      -2.938  -6.187   2.777  0.00  0.00    +0.048 C 
ATOM     21  C   UNL     1      -1.873  -5.243   2.214  0.00  0.00    +0.226 C 
ENDBRANCH  19  21
ENDBRANCH  13  19
BRANCH  18  22
ATOM     22  O   UNL     1       1.000  -4.282   5.097  0.00  0.00    -0.484 OA
BRANCH  22  23
ATOM     23  C   UNL     1       2.029  -3.896   6.010  0.00  0.00    +0.264 C 
BRANCH  23  24
ATOM     24  C   UNL     1       1.784  -4.548   7.347  0.00  0.00    -0.010 A 
ATOM     25  C   UNL     1       1.021  -3.902   8.302  0.00  0.00    +0.007 A 
ATOM     26  C   UNL     1       0.792  -4.502   9.525  0.00  0.00    +0.000 A 
ATOM     27  C   UNL     1       1.336  -5.743   9.799  0.00  0.00    +0.000 A 
ATOM     28  C   UNL     1       2.103  -6.387   8.846  0.00  0.00    +0.000 A 
ATOM     29  C   UNL     1       2.328  -5.789   7.620  0.00  0.00    +0.007 A 
ENDBRANCH  23  24
ENDBRANCH  22  23
ENDBRANCH  18  22
ENDBRANCH   1  15
BRANCH  11  30
ATOM     30  N   UNL     1       4.798  -2.248  -1.478  0.00  0.00    -0.328 N 
ATOM     31  H   UNL     1       4.851  -3.163  -1.798  0.00  0.00    +0.145 HD
ATOM     32  H   UNL     1       5.560  -1.656  -1.574  0.00  0.00    +0.145 HD
ENDBRANCH  11  30
BRANCH  12  33
ATOM     33  C   UNL     1       2.708  -3.979  -1.249  0.00  0.00    +0.101 C 
ATOM     34  N   UNL     1       2.799  -5.044  -1.633  0.00  0.00    -0.191 NA
ENDBRANCH  12  33
BRANCH   6  35
ATOM     35  C   UNL     1      -1.298   1.973   0.451  0.00  0.00    +0.161 C 
BRANCH  35  36
ATOM     36  C   UNL     1      -1.546   2.082   1.933  0.00  0.00    -0.010 A 
ATOM     37  C   UNL     1      -2.220   1.076   2.608  0.00  0.00    +0.008 A 
ATOM     38  C   UNL     1      -2.422   1.217   3.972  0.00  0.00    +0.020 A 
ATOM     39  C   UNL     1      -1.957   2.352   4.608  0.00  0.00    +0.111 A 
ATOM     40  N   UNL     1      -1.324   3.292   3.933  0.00  0.00    -0.263 NA
ATOM     41  C   UNL     1      -1.110   3.189   2.636  0.00  0.00    +0.116 A 
ENDBRANCH  35  36
ENDBRANCH   6  35
TORSDOF 10
