REMARK  Name = ZINC02207709
REMARK  4 active torsions:
REMARK  status: ('A' for Active; 'I' for Inactive)
REMARK    1  A    between atoms: C_4  and  N_7
REMARK    2  A    between atoms: C_15  and  C_19
REMARK    3  A    between atoms: C_15  and  N_23
REMARK    4  A    between atoms: C_24  and  C_26
REMARK                            x       y       z     vdW  Elec       q    Type
REMARK                         _______ _______ _______ _____ _____    ______ ____
ROOT
ATOM      1  N   UNL     1       3.570  -0.689   0.105  0.00  0.00    -0.249 N 
ATOM      2  C   UNL     1       3.612  -2.068   0.159  0.00  0.00    +0.125 A 
ATOM      3  C   UNL     1       4.829  -2.681   0.097  0.00  0.00    +0.097 A 
ATOM      4  C   UNL     1       5.997  -1.917  -0.019  0.00  0.00    +0.262 A 
ATOM      5  N   UNL     1       5.906  -0.572  -0.069  0.00  0.00    -0.274 N 
ATOM      6  C   UNL     1       4.702   0.026  -0.011  0.00  0.00    +0.335 A 
ATOM      7  O   UNL     1       4.637   1.239  -0.062  0.00  0.00    -0.246 OA
ATOM      8  O   UNL     1       7.086  -2.463  -0.073  0.00  0.00    -0.267 OA
ATOM      9  C   UNL     1       4.568  -4.166   0.178  0.00  0.00    +0.240 C 
ATOM     10  C   UNL     1       3.059  -4.256   0.290  0.00  0.00    +0.256 C 
ATOM     11  O   UNL     1       2.397  -5.267   0.380  0.00  0.00    -0.272 OA
ATOM     12  N   UNL     1       2.602  -2.992   0.270  0.00  0.00    -0.269 N 
ATOM     13  H   UNL     1       6.710  -0.035  -0.149  0.00  0.00    +0.173 HD
ATOM     14  H   UNL     1       1.662  -2.758   0.328  0.00  0.00    +0.156 HD
ENDROOT
BRANCH   1  18
ATOM     15  C   UNL     1      -0.102   1.275   0.285  0.00  0.00    +0.000 A 
ATOM     16  C   UNL     1       0.812   1.426   1.311  0.00  0.00    +0.002 A 
ATOM     17  C   UNL     1       2.030   0.777   1.254  0.00  0.00    +0.026 A 
ATOM     18  C   UNL     1       2.335  -0.029   0.166  0.00  0.00    +0.053 A 
ATOM     19  C   UNL     1       1.414  -0.180  -0.863  0.00  0.00    +0.026 A 
ATOM     20  C   UNL     1       0.199   0.472  -0.800  0.00  0.00    +0.002 A 
ENDBRANCH   1  18
BRANCH   9  21
ATOM     21  C   UNL     1       5.057  -4.869  -1.090  0.00  0.00    +0.424 C 
ATOM     22  F   UNL     1       6.449  -4.758  -1.178  0.00  0.00    -0.167 F 
ATOM     23  F   UNL     1       4.699  -6.220  -1.042  0.00  0.00    -0.167 F 
ATOM     24  F   UNL     1       4.470  -4.270  -2.210  0.00  0.00    -0.167 F 
ENDBRANCH   9  21
BRANCH   9  25
ATOM     25  N   UNL     1       5.209  -4.738   1.365  0.00  0.00    -0.286 N 
ATOM     26  C   UNL     1       4.806  -4.362   2.595  0.00  0.00    +0.252 C 
ATOM     27  O   UNL     1       3.981  -3.476   2.721  0.00  0.00    -0.270 OA
ATOM     28  H   UNL     1       5.922  -5.388   1.266  0.00  0.00    +0.151 HD
BRANCH  26  29
ATOM     29  C   UNL     1       5.362  -5.019   3.781  0.00  0.00    +0.074 A 
ATOM     30  C   UNL     1       5.082  -4.789   5.120  0.00  0.00    +0.021 A 
ATOM     31  C   UNL     1       5.769  -5.572   6.016  0.00  0.00    +0.008 A 
ATOM     32  C   UNL     1       6.650  -6.492   5.549  0.00  0.00    +0.046 A 
ATOM     33  S   UNL     1       6.568  -6.329   3.879  0.00  0.00    -0.092 S 
ENDBRANCH  26  29
ENDBRANCH   9  25
TORSDOF 4
