REMARK  Name = ZINC09173671
REMARK  9 active torsions:
REMARK  status: ('A' for Active; 'I' for Inactive)
REMARK    1  A    between atoms: C_1  and  C_2
REMARK    2  A    between atoms: C_2  and  C_3
REMARK    3  A    between atoms: N_5  and  C_6
REMARK    4  A    between atoms: C_9  and  S_13
REMARK    5  A    between atoms: C_10  and  C_12
REMARK    6  A    between atoms: S_13  and  N_16
REMARK    7  A    between atoms: N_16  and  C_17
REMARK    8  A    between atoms: C_26  and  C_29
REMARK    9  A    between atoms: C_26  and  C_30
REMARK                            x       y       z     vdW  Elec       q    Type
REMARK                         _______ _______ _______ _____ _____    ______ ____
ROOT
ATOM      1  N   UNL     1      -3.200   4.399  -2.682  0.00  0.00    -0.216 N 
ATOM      2  H   UNL     1      -3.241   4.942  -1.879  0.00  0.00    +0.174 HD
ENDROOT
BRANCH   1   3
ATOM      3  C   UNL     1      -2.552   3.160  -2.657  0.00  0.00    +0.050 A 
ATOM      4  C   UNL     1      -1.661   2.821  -3.667  0.00  0.00    +0.028 A 
ATOM      5  C   UNL     1      -1.016   1.598  -3.644  0.00  0.00    +0.049 A 
ATOM      6  C   UNL     1      -1.257   0.707  -2.612  0.00  0.00    +0.142 A 
ATOM      7  C   UNL     1      -2.154   1.043  -1.599  0.00  0.00    +0.077 A 
ATOM      8  C   UNL     1      -2.799   2.268  -1.621  0.00  0.00    +0.051 A 
ATOM      9  N   UNL     1      -2.395   0.128  -0.565  0.00  0.00    -0.282 N 
ATOM     10  C   UNL     1      -1.349  -0.448   0.067  0.00  0.00    +0.226 C 
ATOM     11  O   UNL     1      -1.540  -1.288   0.921  0.00  0.00    -0.275 OA
ATOM     12  C   UNL     1       0.057  -0.042  -0.293  0.00  0.00    +0.076 C 
ATOM     13  C   UNL     1       0.443  -0.640  -1.645  0.00  0.00    +0.244 C 
ATOM     14  O   UNL     1      -0.621  -0.495  -2.578  0.00  0.00    -0.489 OA
ATOM     15  C   UNL     1       0.140   1.483  -0.371  0.00  0.00    +0.024 C 
ATOM     16  C   UNL     1       1.023  -0.549   0.780  0.00  0.00    +0.024 C 
ATOM     17  H   UNL     1      -3.304  -0.089  -0.306  0.00  0.00    +0.155 HD
ENDBRANCH   1   3
BRANCH   1  18
ATOM     18  S   UNL     1      -3.897   4.940  -4.084  0.00  0.00    +0.073 S 
ATOM     19  O   UNL     1      -4.539   6.169  -3.770  0.00  0.00    -0.150 OA
ATOM     20  O   UNL     1      -2.906   4.835  -5.097  0.00  0.00    -0.150 OA
BRANCH  18  24
ATOM     21  C   UNL     1      -7.173   2.007  -5.168  0.00  0.00    +0.034 A 
ATOM     22  C   UNL     1      -6.072   2.161  -6.001  0.00  0.00    +0.025 A 
ATOM     23  C   UNL     1      -5.075   3.056  -5.668  0.00  0.00    +0.031 A 
ATOM     24  C   UNL     1      -5.172   3.800  -4.506  0.00  0.00    +0.111 A 
ATOM     25  C   UNL     1      -6.263   3.645  -3.671  0.00  0.00    -0.022 A 
ATOM     26  C   UNL     1      -7.267   2.755  -4.002  0.00  0.00    +0.028 A 
ATOM     27  C   UNL     1      -6.362   4.453  -2.403  0.00  0.00    +0.046 C 
BRANCH  21  30
ATOM     28  C   UNL     1      -7.881  -0.037  -6.157  0.00  0.00    +0.217 C 
ATOM     29  O   UNL     1      -6.722  -0.318  -6.380  0.00  0.00    -0.275 OA
ATOM     30  N   UNL     1      -8.185   1.101  -5.503  0.00  0.00    -0.285 N 
ATOM     31  H   UNL     1      -9.105   1.292  -5.263  0.00  0.00    +0.155 HD
BRANCH  28  33
ATOM     32  C   UNL     1      -8.369  -2.170  -7.325  0.00  0.00    +0.013 C 
ATOM     33  C   UNL     1      -8.981  -0.961  -6.613  0.00  0.00    +0.093 C 
ENDBRANCH  28  33
ENDBRANCH  21  30
ENDBRANCH  18  24
ENDBRANCH   1  18
TORSDOF 5
