REMARK  Name = ZINC67286899
REMARK  10 active torsions:
REMARK  status: ('A' for Active; 'I' for Inactive)
REMARK    1  A    between atoms: C_1  and  C_2
REMARK    2  A    between atoms: C_2  and  O_3
REMARK    3  A    between atoms: O_3  and  C_4
REMARK    4  A    between atoms: C_4  and  C_6
REMARK    5  A    between atoms: C_7  and  C_22
REMARK    6  A    between atoms: C_12  and  C_14
REMARK    7  A    between atoms: C_17  and  S_20
REMARK    8  A    between atoms: S_20  and  C_21
REMARK    9  A    between atoms: C_22  and  N_23
REMARK   10  A    between atoms: C_26  and  N_29
REMARK                            x       y       z     vdW  Elec       q    Type
REMARK                         _______ _______ _______ _____ _____    ______ ____
ROOT
ATOM      1  C   UNL     1       1.547  -2.360   2.383  0.00  0.00    +0.079 C 
ATOM      2  C   UNL     1       1.513  -3.685   2.645  0.00  0.00    +0.038 C 
ATOM      3  N   UNL     1       2.087  -4.195   3.774  0.00  0.00    -0.271 N 
ATOM      4  C   UNL     1       2.714  -3.447   4.691  0.00  0.00    +0.304 C 
ATOM      5  O   UNL     1       3.195  -3.992   5.665  0.00  0.00    -0.252 OA
ATOM      6  N   UNL     1       2.829  -2.110   4.569  0.00  0.00    -0.288 N 
ATOM      7  C   UNL     1       2.248  -1.462   3.381  0.00  0.00    +0.144 C 
ATOM      8  H   UNL     1       2.038  -5.152   3.920  0.00  0.00    +0.156 HD
ATOM      9  H   UNL     1       3.287  -1.587   5.245  0.00  0.00    +0.151 HD
ENDROOT
BRANCH   7  10
ATOM     10  C   UNL     1       1.255  -0.433   3.858  0.00  0.00    -0.022 A 
ATOM     11  C   UNL     1       0.334  -0.765   4.834  0.00  0.00    +0.007 A 
ATOM     12  C   UNL     1      -0.578   0.175   5.273  0.00  0.00    +0.015 A 
ATOM     13  C   UNL     1      -0.568   1.455   4.733  0.00  0.00    +0.008 A 
ATOM     14  C   UNL     1       0.360   1.785   3.752  0.00  0.00    +0.015 A 
ATOM     15  C   UNL     1       1.272   0.842   3.322  0.00  0.00    +0.007 A 
BRANCH  13  16
ATOM     16  S   UNL     1      -1.730   2.657   5.290  0.00  0.00    -0.129 S 
ATOM     17  C   UNL     1      -1.333   4.135   4.316  0.00  0.00    +0.090 C 
ENDBRANCH  13  16
ENDBRANCH   7  10
BRANCH   1  18
ATOM     18  C   UNL     1       0.953  -1.831   1.213  0.00  0.00    +0.339 C 
ATOM     19  O   UNL     1       1.648  -1.533   0.259  0.00  0.00    -0.245 OA
BRANCH  18  20
ATOM     20  O   UNL     1      -0.384  -1.656   1.155  0.00  0.00    -0.462 OA
BRANCH  20  22
ATOM     21  C   UNL     1      -2.436  -0.992   0.065  0.00  0.00    +0.048 C 
ATOM     22  C   UNL     1      -0.915  -1.117  -0.057  0.00  0.00    +0.229 C 
ENDBRANCH  20  22
ENDBRANCH  18  20
ENDBRANCH   1  18
BRANCH   2  23
ATOM     23  C   UNL     1       0.830  -4.615   1.676  0.00  0.00    +0.135 C 
BRANCH  23  24
ATOM     24  N   UNL     1       1.820  -5.534   1.099  0.00  0.00    -0.297 NA
ATOM     25  C   UNL     1       2.792  -4.809   0.270  0.00  0.00    +0.083 C 
ATOM     26  C   UNL     1       3.888  -5.772  -0.193  0.00  0.00    +0.000 C 
ATOM     27  C   UNL     1       3.253  -6.911  -0.996  0.00  0.00    -0.066 C 
ATOM     28  C   UNL     1       2.211  -7.619  -0.126  0.00  0.00    +0.000 C 
ATOM     29  C   UNL     1       1.164  -6.603   0.336  0.00  0.00    +0.083 C 
BRANCH  27  30
ATOM     30  N   UNL     1       4.293  -7.869  -1.394  0.00  0.00    +0.382 N 
ATOM     31  C   UNL     1       5.300  -7.184  -2.214  0.00  0.00    -0.078 C 
ATOM     32  C   UNL     1       6.427  -8.158  -2.564  0.00  0.00    -0.019 C 
ATOM     33  C   UNL     1       5.848  -9.341  -3.346  0.00  0.00    -0.004 C 
ATOM     34  C   UNL     1       4.748 -10.003  -2.511  0.00  0.00    -0.019 C 
ATOM     35  C   UNL     1       3.683  -8.960  -2.163  0.00  0.00    -0.078 C 
ATOM     36  H   UNL     1       4.735  -8.247  -0.569  0.00  0.00    -0.081 HD
ENDBRANCH  27  30
ENDBRANCH  23  24
ENDBRANCH   2  23
TORSDOF 8
