REMARK  Name = ZINC49042840
REMARK  10 active torsions:
REMARK  status: ('A' for Active; 'I' for Inactive)
REMARK    1  A    between atoms: C_1  and  C_2
REMARK    2  A    between atoms: C_2  and  C_3
REMARK    3  A    between atoms: C_2  and  N_4
REMARK    4  A    between atoms: N_4  and  C_5
REMARK    5  A    between atoms: N_4  and  S_6
REMARK    6  A    between atoms: S_6  and  N_9
REMARK    7  A    between atoms: N_9  and  C_10
REMARK    8  A    between atoms: C_10  and  C_17
REMARK    9  A    between atoms: N_13  and  C_16
REMARK   10  A    between atoms: N_18  and  O_19
REMARK                            x       y       z     vdW  Elec       q    Type
REMARK                         _______ _______ _______ _____ _____    ______ ____
ROOT
ATOM      1  C   UNL     1      -2.094  -3.584   0.756  0.00  0.00    +0.096 C 
ATOM      2  C   UNL     1      -3.619  -3.685   0.854  0.00  0.00    +0.013 C 
ATOM      3  C   UNL     1      -4.144  -4.536  -0.305  0.00  0.00    -0.077 C 
ATOM      4  N   UNL     1      -3.558  -5.880  -0.233  0.00  0.00    +0.378 N 
ATOM      5  C   UNL     1      -2.101  -5.798  -0.398  0.00  0.00    -0.077 C 
ATOM      6  C   UNL     1      -1.498  -4.995   0.757  0.00  0.00    +0.013 C 
ATOM      7  C   UNL     1      -4.123  -6.717  -1.300  0.00  0.00    -0.096 C 
ATOM      8  H   UNL     1      -3.771  -6.292   0.663  0.00  0.00    -0.082 HD
ENDROOT
BRANCH   1   9
ATOM      9  C   UNL     1      -1.562  -2.812   1.936  0.00  0.00    +0.153 C 
ATOM     10  N   UNL     1      -0.823  -3.404   2.815  0.00  0.00    -0.075 NA
ATOM     11  N   UNL     1      -1.865  -1.476   2.077  0.00  0.00    -0.342 N 
ATOM     12  H   UNL     1      -2.482  -1.051   1.462  0.00  0.00    +0.144 HD
ATOM     13  H   UNL     1      -1.460  -0.960   2.792  0.00  0.00    +0.144 HD
BRANCH  10  14
ATOM     14  O   UNL     1      -0.323  -2.678   3.923  0.00  0.00    -0.408 OA
ATOM     15  H   UNL     1       0.220  -3.205   4.526  0.00  0.00    +0.328 HD
ENDBRANCH  10  14
ENDBRANCH   1   9
BRANCH   1  16
ATOM     16  N   UNL     1      -1.727  -2.898  -0.484  0.00  0.00    -0.167 NA
ATOM     17  H   UNL     1      -2.373  -2.817  -1.204  0.00  0.00    +0.150 HD
BRANCH  16  18
ATOM     18  S   UNL     1      -0.209  -2.260  -0.659  0.00  0.00    +0.098 S 
ATOM     19  O   UNL     1       0.099  -1.603   0.563  0.00  0.00    -0.141 OA
ATOM     20  O   UNL     1      -0.193  -1.587  -1.911  0.00  0.00    -0.141 OA
BRANCH  18  21
ATOM     21  N   UNL     1       0.844  -3.531  -0.792  0.00  0.00    -0.167 NA
ATOM     22  C   UNL     1       1.548  -4.026   0.393  0.00  0.00    +0.133 C 
BRANCH  21  24
ATOM     23  C   UNL     1       2.551  -4.042  -2.468  0.00  0.00    +0.025 C 
ATOM     24  C   UNL     1       1.072  -4.160  -2.095  0.00  0.00    +0.074 C 
ATOM     25  C   UNL     1       0.681  -5.638  -2.023  0.00  0.00    +0.025 C 
ENDBRANCH  21  24
ENDBRANCH  18  21
ENDBRANCH  16  18
ENDBRANCH   1  16
TORSDOF 6
