REMARK  Name = ZINC63096950
REMARK  8 active torsions:
REMARK  status: ('A' for Active; 'I' for Inactive)
REMARK    1  A    between atoms: C_1  and  C_2
REMARK    2  A    between atoms: C_5  and  N_11
REMARK    3  A    between atoms: C_6  and  C_8
REMARK    4  A    between atoms: N_14  and  C_15
REMARK    5  A    between atoms: N_14  and  C_16
REMARK    6  A    between atoms: C_16  and  C_18
REMARK    7  A    between atoms: C_16  and  C_19
REMARK    8  A    between atoms: C_19  and  C_20
REMARK                            x       y       z     vdW  Elec       q    Type
REMARK                         _______ _______ _______ _____ _____    ______ ____
ROOT
ATOM      1  N   UNL     1       0.054  -4.118  -0.045  0.00  0.00    -0.269 N 
ATOM      2  C   UNL     1      -0.033  -4.764  -1.224  0.00  0.00    +0.306 C 
ATOM      3  O   UNL     1      -0.032  -4.134  -2.264  0.00  0.00    -0.252 OA
ATOM      4  N   UNL     1      -0.120  -6.109  -1.251  0.00  0.00    -0.285 N 
ATOM      5  C   UNL     1      -0.121  -6.868   0.002  0.00  0.00    +0.134 C 
ATOM      6  H   UNL     1       0.118  -4.622   0.781  0.00  0.00    +0.156 HD
ENDROOT
BRANCH   1  11
ATOM      7  C   UNL     1       0.049   1.558   0.074  0.00  0.00    +0.044 C 
ATOM      8  C   UNL     1       0.046   0.051   0.051  0.00  0.00    -0.050 A 
ATOM      9  C   UNL     1       0.665  -0.624  -0.990  0.00  0.00    +0.005 A 
ATOM     10  C   UNL     1       0.669  -2.003  -1.024  0.00  0.00    +0.024 A 
ATOM     11  C   UNL     1       0.051  -2.727  -0.012  0.00  0.00    +0.049 A 
ATOM     12  C   UNL     1      -0.577  -2.046   1.044  0.00  0.00    +0.085 A 
ATOM     13  C   UNL     1      -0.568  -0.648   1.066  0.00  0.00    +0.020 A 
BRANCH  12  14
ATOM     14  C   UNL     1      -1.235  -2.800   2.122  0.00  0.00    +0.388 C 
ATOM     15  O   UNL     1      -1.858  -2.206   2.992  0.00  0.00    -0.241 OA
ATOM     16  O   UNL     1      -1.161  -4.021   2.149  0.00  0.00    -0.241 OA
ENDBRANCH  12  14
ENDBRANCH   1  11
BRANCH   4  17
ATOM     17  C   UNL     1      -0.214  -6.812  -2.533  0.00  0.00    +0.088 C 
ATOM     18  C   UNL     1      -1.520  -7.607  -2.584  0.00  0.00    +0.029 C 
BRANCH  17  19
ATOM     19  C   UNL     1       0.971  -7.768  -2.679  0.00  0.00    +0.140 C 
BRANCH  19  20
ATOM     20  C   UNL     1       2.221  -6.992  -2.750  0.00  0.00    +0.064 C 
ATOM     21  N   UNL     1       3.185  -6.394  -2.805  0.00  0.00    -0.197 NA
ENDBRANCH  19  20
ENDBRANCH  17  19
ENDBRANCH   4  17
TORSDOF 5
