REMARK  Name = ZINC20745157
REMARK  10 active torsions:
REMARK  status: ('A' for Active; 'I' for Inactive)
REMARK    1  A    between atoms: C_1  and  C_2
REMARK    2  A    between atoms: C_8  and  C_10
REMARK    3  A    between atoms: C_10  and  C_12
REMARK    4  A    between atoms: C_10  and  N_13
REMARK    5  A    between atoms: C_14  and  C_16
REMARK    6  A    between atoms: N_20  and  C_21
REMARK    7  A    between atoms: C_23  and  O_28
REMARK    8  A    between atoms: C_25  and  O_26
REMARK    9  A    between atoms: O_26  and  C_27
REMARK   10  A    between atoms: O_28  and  C_29
REMARK                            x       y       z     vdW  Elec       q    Type
REMARK                         _______ _______ _______ _____ _____    ______ ____
ROOT
ATOM      1  N   UNL     1      -0.275  -7.384   4.898  0.00  0.00    -0.299 N 
ATOM      2  C   UNL     1       0.061  -7.619   3.614  0.00  0.00    +0.261 C 
ATOM      3  O   UNL     1       0.463  -6.708   2.915  0.00  0.00    -0.269 OA
ATOM      4  H   UNL     1      -0.671  -8.090   5.433  0.00  0.00    +0.150 HD
ENDROOT
BRANCH   2   5
ATOM      5  C   UNL     1      -0.058  -8.972   3.060  0.00  0.00    +0.105 A 
ATOM      6  C   UNL     1      -0.569 -10.050   3.713  0.00  0.00    +0.044 A 
ATOM      7  C   UNL     1      -0.505 -11.156   2.835  0.00  0.00    +0.042 A 
ATOM      8  C   UNL     1       0.063 -10.697   1.631  0.00  0.00    +0.056 A 
ATOM      9  N   UNL     1       0.325  -9.355   1.785  0.00  0.00    -0.339 N 
ATOM     10  C   UNL     1       0.915  -8.478   0.771  0.00  0.00    +0.149 C 
ATOM     11  C   UNL     1       0.247 -11.583   0.575  0.00  0.00    +0.072 A 
ATOM     12  C   UNL     1      -0.128 -12.908   0.710  0.00  0.00    +0.126 A 
ATOM     13  C   UNL     1      -0.691 -13.367   1.898  0.00  0.00    +0.092 A 
ATOM     14  C   UNL     1      -0.881 -12.506   2.958  0.00  0.00    +0.133 A 
BRANCH  14  15
ATOM     15  O   UNL     1      -1.429 -12.959   4.115  0.00  0.00    -0.494 OA
ATOM     16  C   UNL     1      -1.786 -14.342   4.166  0.00  0.00    +0.277 C 
ENDBRANCH  14  15
BRANCH  12  17
ATOM     17  O   UNL     1       0.055 -13.767  -0.326  0.00  0.00    -0.495 OA
ATOM     18  C   UNL     1      -0.353 -15.122  -0.124  0.00  0.00    +0.277 C 
ENDBRANCH  12  17
ENDBRANCH   2   5
BRANCH   1  19
ATOM     19  C   UNL     1      -0.041  -6.063   5.487  0.00  0.00    +0.156 C 
ATOM     20  C   UNL     1      -1.222  -5.145   5.165  0.00  0.00    +0.038 C 
BRANCH  19  28
ATOM     21  C   UNL     1       1.007  -3.487  12.317  0.00  0.00    +0.066 C 
ATOM     22  C   UNL     1       0.760  -4.564  11.292  0.00  0.00    +0.047 A 
ATOM     23  C   UNL     1       0.628  -5.865  11.649  0.00  0.00    +0.071 A 
ATOM     24  S   UNL     1       0.363  -6.623  10.055  0.00  0.00    -0.060 S 
ATOM     25  C   UNL     1       0.446  -5.228   9.117  0.00  0.00    +0.165 A 
ATOM     26  N   UNL     1       0.657  -4.281  10.007  0.00  0.00    -0.230 NA
ATOM     27  N   UNL     1       0.319  -5.104   7.739  0.00  0.00    -0.263 N 
ATOM     28  C   UNL     1       0.098  -6.197   6.982  0.00  0.00    +0.239 C 
ATOM     29  O   UNL     1       0.010  -7.288   7.504  0.00  0.00    -0.273 OA
ATOM     30  H   UNL     1       0.389  -4.231   7.321  0.00  0.00    +0.157 HD
ENDBRANCH  19  28
ENDBRANCH   1  19
TORSDOF 5
