REMARK  Name = ZINC25155952
REMARK  13 active torsions:
REMARK  status: ('A' for Active; 'I' for Inactive)
REMARK    1  A    between atoms: C_1  and  C_2
REMARK    2  A    between atoms: C_4  and  C_33
REMARK    3  A    between atoms: C_6  and  S_8
REMARK    4  A    between atoms: S_8  and  C_9
REMARK    5  A    between atoms: C_9  and  C_10
REMARK    6  A    between atoms: C_13  and  C_16
REMARK    7  A    between atoms: N_18  and  N_19
REMARK    8  A    between atoms: C_20  and  C_22
REMARK    9  A    between atoms: C_24  and  C_29
REMARK   10  A    between atoms: C_26  and  C_27
REMARK   11  A    between atoms: C_26  and  C_28
REMARK   12  A    between atoms: C_30  and  C_31
REMARK   13  A    between atoms: C_30  and  C_32
REMARK                            x       y       z     vdW  Elec       q    Type
REMARK                         _______ _______ _______ _____ _____    ______ ____
ROOT
ATOM      1  C   UNL     1       0.660  -0.942   2.787  0.00  0.00    +0.260 C 
ATOM      2  O   UNL     1       0.248   0.150   3.127  0.00  0.00    -0.269 OA
ATOM      3  N   UNL     1       1.771  -1.038   2.030  0.00  0.00    -0.230 N 
ATOM      4  H   UNL     1       2.146  -2.027   1.726  0.00  0.00    +0.173 HD
ENDROOT
BRANCH   1   8
ATOM      5  C   UNL     1      -1.405  -4.457   3.983  0.00  0.00    -0.037 A 
ATOM      6  C   UNL     1      -1.876  -3.215   4.372  0.00  0.00    +0.005 A 
ATOM      7  C   UNL     1      -1.210  -2.070   3.987  0.00  0.00    +0.013 A 
ATOM      8  C   UNL     1      -0.059  -2.166   3.203  0.00  0.00    +0.038 A 
ATOM      9  C   UNL     1       0.408  -3.421   2.810  0.00  0.00    +0.013 A 
ATOM     10  C   UNL     1      -0.264  -4.559   3.207  0.00  0.00    +0.005 A 
BRANCH   5  11
ATOM     11  C   UNL     1      -2.137  -5.703   4.407  0.00  0.00    +0.112 C 
BRANCH  11  12
ATOM     12  S   UNL     1      -3.385  -6.123   3.165  0.00  0.00    -0.081 S 
BRANCH  12  18
ATOM     13  C   UNL     1      -3.525  -9.570   6.945  0.00  0.00    +0.066 C 
ATOM     14  C   UNL     1      -4.077  -9.089   5.628  0.00  0.00    +0.043 A 
ATOM     15  C   UNL     1      -5.104  -9.780   5.003  0.00  0.00    +0.046 A 
ATOM     16  C   UNL     1      -5.583  -9.304   3.792  0.00  0.00    +0.043 A 
ATOM     17  N   UNL     1      -5.049  -8.211   3.272  0.00  0.00    -0.227 NA
ATOM     18  C   UNL     1      -4.067  -7.574   3.895  0.00  0.00    +0.189 A 
ATOM     19  N   UNL     1      -3.583  -8.006   5.051  0.00  0.00    -0.227 NA
ATOM     20  C   UNL     1      -6.699 -10.022   3.078  0.00  0.00    +0.066 C 
ENDBRANCH  12  18
ENDBRANCH  11  12
ENDBRANCH   5  11
ENDBRANCH   1   8
BRANCH   3  21
ATOM     21  N   UNL     1       2.449   0.121   1.631  0.00  0.00    -0.234 N 
ATOM     22  C   UNL     1       3.557   0.026   0.870  0.00  0.00    +0.233 C 
ATOM     23  O   UNL     1       3.967  -1.064   0.530  0.00  0.00    -0.274 OA
ATOM     24  H   UNL     1       2.076   1.110   1.938  0.00  0.00    +0.173 HD
BRANCH  22  25
ATOM     25  C   UNL     1       4.285   1.273   0.440  0.00  0.00    +0.090 C 
ATOM     26  C   UNL     1       3.567   2.212  -0.531  0.00  0.00    +0.030 C 
ATOM     27  C   UNL     1       4.740   1.358  -1.018  0.00  0.00    -0.016 C 
ATOM     28  C   UNL     1       6.062   2.073  -1.306  0.00  0.00    +0.012 C 
ATOM     29  C   UNL     1       4.420   0.171  -1.929  0.00  0.00    +0.012 C 
BRANCH  26  30
ATOM     30  C   UNL     1       2.185   1.819  -0.985  0.00  0.00    -0.023 C 
ATOM     31  C   UNL     1       1.459   2.660  -1.678  0.00  0.00    -0.079 C 
ATOM     32  C   UNL     1       2.006   4.022  -2.022  0.00  0.00    +0.038 C 
ATOM     33  C   UNL     1       0.077   2.267  -2.132  0.00  0.00    +0.038 C 
ENDBRANCH  26  30
ENDBRANCH  22  25
ENDBRANCH   3  21
TORSDOF 7
