REMARK  Name = ZINC36755536
REMARK  4 active torsions:
REMARK  status: ('A' for Active; 'I' for Inactive)
REMARK    1  A    between atoms: C_1  and  C_2
REMARK    2  A    between atoms: C_2  and  C_3
REMARK    3  A    between atoms: C_3  and  C_4
REMARK    4  A    between atoms: C_10  and  C_12
REMARK                            x       y       z     vdW  Elec       q    Type
REMARK                         _______ _______ _______ _____ _____    ______ ____
ROOT
ATOM      1  C   UNL     1       0.739  -2.004  -1.265  0.00  0.00    +0.049 A 
ATOM      2  C   UNL     1      -0.224  -2.694  -1.943  0.00  0.00    +0.093 A 
ATOM      3  C   UNL     1      -0.186  -4.102  -1.937  0.00  0.00    +0.252 A 
ATOM      4  O   UNL     1      -1.031  -4.749  -2.533  0.00  0.00    -0.268 OA
ATOM      5  N   UNL     1       0.804  -4.721  -1.260  0.00  0.00    -0.304 N 
ATOM      6  H   UNL     1       0.851  -5.690  -1.243  0.00  0.00    +0.170 HD
ATOM      7  C   UNL     1       1.741  -3.977  -0.600  0.00  0.00    +0.177 A 
ATOM      8  N   UNL     1       1.698  -2.658  -0.616  0.00  0.00    -0.231 NA
ENDROOT
BRANCH   7   9
ATOM      9  C   UNL     1       2.816  -4.656   0.136  0.00  0.00    +0.171 A 
ATOM     10  C   UNL     1       3.800  -4.033   0.834  0.00  0.00    +0.061 A 
ATOM     11  C   UNL     1       4.634  -5.095   1.395  0.00  0.00    +0.021 A 
ATOM     12  C   UNL     1       5.780  -5.114   2.194  0.00  0.00    +0.011 A 
ATOM     13  C   UNL     1       6.333  -6.310   2.556  0.00  0.00    +0.001 A 
ATOM     14  C   UNL     1       5.764  -7.505   2.136  0.00  0.00    +0.004 A 
ATOM     15  C   UNL     1       4.633  -7.507   1.347  0.00  0.00    +0.047 A 
ATOM     16  C   UNL     1       4.053  -6.303   0.966  0.00  0.00    +0.136 A 
ATOM     17  O   UNL     1       2.971  -5.994   0.224  0.00  0.00    -0.452 OA
ENDBRANCH   7   9
BRANCH   1  18
ATOM     18  C   UNL     1       0.718  -0.497  -1.257  0.00  0.00    +0.055 C 
BRANCH  18  20
ATOM     19  C   UNL     1      -0.019   1.526   0.010  0.00  0.00    +0.004 C 
ATOM     20  C   UNL     1       0.002  -0.004   0.002  0.00  0.00    +0.003 C 
ENDBRANCH  18  20
ENDBRANCH   1  18
TORSDOF 3
