REMARK  Name = ZINC42352288
REMARK  7 active torsions:
REMARK  status: ('A' for Active; 'I' for Inactive)
REMARK    1  A    between atoms: C_1  and  C_2
REMARK    2  A    between atoms: C_2  and  C_4
REMARK    3  A    between atoms: C_2  and  N_12
REMARK    4  A    between atoms: C_7  and  O_11
REMARK    5  A    between atoms: C_9  and  O_10
REMARK    6  A    between atoms: N_12  and  C_13
REMARK    7  A    between atoms: C_13  and  C_14
REMARK                            x       y       z     vdW  Elec       q    Type
REMARK                         _______ _______ _______ _____ _____    ______ ____
ROOT
ATOM      1  C   UNL     1      -0.019   1.526   0.010  0.00  0.00    -0.009 C 
ATOM      2  C   UNL     1       0.002  -0.004   0.002  0.00  0.00    -0.040 C 
ENDROOT
BRANCH   2   3
ATOM      3  C   UNL     1       0.707  -0.490  -1.238  0.00  0.00    -0.020 A 
ATOM      4  C   UNL     1      -0.023  -0.817  -2.365  0.00  0.00    +0.009 A 
ATOM      5  C   UNL     1       0.621  -1.263  -3.503  0.00  0.00    +0.046 A 
ATOM      6  C   UNL     1       2.003  -1.383  -3.517  0.00  0.00    +0.120 A 
ATOM      7  C   UNL     1       2.738  -1.056  -2.388  0.00  0.00    +0.091 A 
ATOM      8  C   UNL     1       2.090  -0.604  -1.249  0.00  0.00    +0.122 A 
BRANCH   8   9
ATOM      9  O   UNL     1       2.809  -0.276  -0.143  0.00  0.00    -0.506 OA
ATOM     10  H   UNL     1       2.950  -1.014   0.466  0.00  0.00    +0.292 HD
ENDBRANCH   8   9
BRANCH   6  11
ATOM     11  O   UNL     1       2.636  -1.823  -4.637  0.00  0.00    -0.507 OA
ATOM     12  H   UNL     1       2.889  -1.117  -5.248  0.00  0.00    +0.292 HD
ENDBRANCH   6  11
ENDBRANCH   2   3
BRANCH   2  13
ATOM     13  N   UNL     1      -1.376  -0.512   0.012  0.00  0.00    +0.386 N 
ATOM     14  H   UNL     1      -1.888  -0.113  -0.760  0.00  0.00    -0.085 HD
ATOM     15  H   UNL     1      -1.364  -1.518  -0.076  0.00  0.00    -0.085 HD
BRANCH  13  16
ATOM     16  C   UNL     1      -2.026  -0.140   1.276  0.00  0.00    -0.046 C 
BRANCH  16  17
ATOM     17  C   UNL     1      -3.440  -0.661   1.287  0.00  0.00    -0.064 A 
ATOM     18  C   UNL     1      -4.468   0.118   0.789  0.00  0.00    +0.003 A 
ATOM     19  C   UNL     1      -5.764  -0.360   0.799  0.00  0.00    +0.015 A 
ATOM     20  C   UNL     1      -6.034  -1.619   1.305  0.00  0.00    +0.018 A 
ATOM     21  C   UNL     1      -5.005  -2.398   1.803  0.00  0.00    +0.015 A 
ATOM     22  C   UNL     1      -3.708  -1.921   1.788  0.00  0.00    +0.003 A 
ATOM     23 BR   UNL     1      -7.808  -2.273   1.319  0.00  0.00    -0.050 Br
ENDBRANCH  16  17
ENDBRANCH  13  16
ENDBRANCH   2  13
TORSDOF 6
