REMARK  Name = ZINC13702980
REMARK  7 active torsions:
REMARK  status: ('A' for Active; 'I' for Inactive)
REMARK    1  A    between atoms: C_1  and  C_2
REMARK    2  A    between atoms: C_2  and  N_3
REMARK    3  A    between atoms: C_4  and  C_23
REMARK    4  A    between atoms: C_6  and  C_8
REMARK    5  A    between atoms: N_10  and  C_11
REMARK    6  A    between atoms: C_12  and  C_20
REMARK    7  A    between atoms: C_19  and  N_45
REMARK                            x       y       z     vdW  Elec       q    Type
REMARK                         _______ _______ _______ _____ _____    ______ ____
ROOT
ATOM      1  C   UNL     1      -4.761  -0.303   4.543  0.00  0.00    +0.085 A 
ATOM      2  C   UNL     1      -5.544  -1.450   4.540  0.00  0.00    +0.068 A 
ATOM      3  C   UNL     1      -6.526  -1.592   5.597  0.00  0.00    -0.027 A 
ATOM      4  C   UNL     1      -6.572  -0.572   6.484  0.00  0.00    -0.021 A 
ATOM      5  S   UNL     1      -5.327   0.559   5.936  0.00  0.00    -0.079 S 
ATOM      6  C   UNL     1      -7.487  -0.460   7.663  0.00  0.00    -0.036 C 
ATOM      7  C   UNL     1      -8.013  -2.776   7.182  0.00  0.00    -0.074 C 
ATOM      8  C   UNL     1      -7.465  -2.783   5.752  0.00  0.00    +0.018 C 
ATOM      9  C   UNL     1      -9.407  -1.514   8.709  0.00  0.00    -0.096 C 
ATOM     10  N   UNL     1      -8.581  -1.446   7.484  0.00  0.00    +0.381 N 
ATOM     11  H   UNL     1      -9.172  -1.149   6.699  0.00  0.00    -0.082 HD
ENDROOT
BRANCH   2  12
ATOM     12  C   UNL     1      -5.383  -2.478   3.507  0.00  0.00    +0.244 C 
ATOM     13  O   UNL     1      -4.600  -3.395   3.678  0.00  0.00    -0.270 OA
ATOM     14  N   UNL     1      -6.101  -2.409   2.369  0.00  0.00    -0.325 N 
ATOM     15  H   UNL     1      -6.725  -1.679   2.233  0.00  0.00    +0.145 HD
ATOM     16  H   UNL     1      -5.995  -3.090   1.686  0.00  0.00    +0.145 HD
ENDBRANCH   2  12
BRANCH   1  19
ATOM     17  C   UNL     1      -3.106   1.226   3.817  0.00  0.00    +0.269 C 
ATOM     18  O   UNL     1      -3.386   1.956   4.748  0.00  0.00    -0.268 OA
ATOM     19  N   UNL     1      -3.765   0.062   3.652  0.00  0.00    -0.274 N 
ATOM     20  H   UNL     1      -3.541  -0.520   2.909  0.00  0.00    +0.156 HD
BRANCH  17  24
ATOM     21  N   UNL     1      -0.698   1.558   1.213  0.00  0.00    -0.268 N 
ATOM     22  C   UNL     1      -0.429   2.718   1.851  0.00  0.00    +0.037 A 
ATOM     23  C   UNL     1      -1.269   2.798   2.909  0.00  0.00    +0.057 A 
ATOM     24  C   UNL     1      -2.045   1.615   2.867  0.00  0.00    +0.148 A 
ATOM     25  N   UNL     1      -1.639   0.926   1.819  0.00  0.00    -0.166 NA
ATOM     26  C   UNL     1       0.610   3.735   1.455  0.00  0.00    +0.065 C 
BRANCH  21  28
ATOM     27  C   UNL     1      -0.753   1.593  -1.232  0.00  0.00    +0.029 C 
ATOM     28  C   UNL     1      -0.013   1.086   0.008  0.00  0.00    +0.140 C 
ENDBRANCH  21  28
ENDBRANCH  17  24
ENDBRANCH   1  19
TORSDOF 4
