REMARK  Name = ZINC67065804
REMARK  9 active torsions:
REMARK  status: ('A' for Active; 'I' for Inactive)
REMARK    1  A    between atoms: C_1  and  C_2
REMARK    2  A    between atoms: C_2  and  C_4
REMARK    3  A    between atoms: C_2  and  C_21
REMARK    4  A    between atoms: C_4  and  N_5
REMARK    5  A    between atoms: N_5  and  C_6
REMARK    6  A    between atoms: N_9  and  C_10
REMARK    7  A    between atoms: C_10  and  C_12
REMARK    8  A    between atoms: C_10  and  C_13
REMARK    9  A    between atoms: C_16  and  C_19
REMARK                            x       y       z     vdW  Elec       q    Type
REMARK                         _______ _______ _______ _____ _____    ______ ____
ROOT
ATOM      1  N   UNL     1      -2.105  -0.148  -1.230  0.00  0.00    -0.288 N 
ATOM      2  C   UNL     1      -2.049  -1.032  -2.398  0.00  0.00    +0.133 C 
ATOM      3  C   UNL     1      -2.776   1.019  -1.300  0.00  0.00    +0.302 C 
ATOM      4  O   UNL     1      -2.823   1.752  -0.332  0.00  0.00    -0.253 OA
ATOM      5  N   UNL     1      -3.394   1.373  -2.444  0.00  0.00    -0.293 N 
ATOM      6  H   UNL     1      -3.357   0.788  -3.217  0.00  0.00    +0.151 HD
ENDROOT
BRANCH   5   7
ATOM      7  C   UNL     1      -4.123   2.642  -2.520  0.00  0.00    +0.102 C 
ATOM      8  C   UNL     1      -3.150   3.769  -2.869  0.00  0.00    +0.033 C 
BRANCH   7   9
ATOM      9  C   UNL     1      -5.185   2.548  -3.585  0.00  0.00    -0.027 A 
ATOM     10  C   UNL     1      -4.913   1.893  -4.773  0.00  0.00    +0.007 A 
ATOM     11  C   UNL     1      -5.881   1.803  -5.752  0.00  0.00    +0.019 A 
ATOM     12  C   UNL     1      -7.138   2.375  -5.542  0.00  0.00    +0.052 A 
ATOM     13  C   UNL     1      -7.405   3.034  -4.340  0.00  0.00    +0.019 A 
ATOM     14  C   UNL     1      -6.430   3.112  -3.368  0.00  0.00    +0.007 A 
BRANCH  12  15
ATOM     15  C   UNL     1      -8.147   2.286  -6.553  0.00  0.00    +0.099 C 
ATOM     16  N   UNL     1      -8.948   2.215  -7.356  0.00  0.00    -0.191 NA
ENDBRANCH  12  15
ENDBRANCH   7   9
ENDBRANCH   5   7
BRANCH   1  17
ATOM     17  C   UNL     1      -1.433  -0.534   0.013  0.00  0.00    +0.117 C 
BRANCH  17  19
ATOM     18  C   UNL     1      -0.019   1.526   0.010  0.00  0.00    +0.014 C 
ATOM     19  C   UNL     1       0.002  -0.004   0.002  0.00  0.00    +0.033 C 
BRANCH  19  20
ATOM     20  C   UNL     1       0.731  -0.503   1.223  0.00  0.00    -0.043 A 
ATOM     21  C   UNL     1       0.263  -0.187   2.485  0.00  0.00    +0.004 A 
ATOM     22  C   UNL     1       0.931  -0.645   3.605  0.00  0.00    +0.000 A 
ATOM     23  C   UNL     1       2.068  -1.419   3.463  0.00  0.00    +0.000 A 
ATOM     24  C   UNL     1       2.535  -1.736   2.201  0.00  0.00    +0.000 A 
ATOM     25  C   UNL     1       1.864  -1.282   1.081  0.00  0.00    +0.004 A 
ENDBRANCH  19  20
ENDBRANCH  17  19
ENDBRANCH   1  17
TORSDOF 6
