REMARK  Name = ZINC59459453
REMARK  6 active torsions:
REMARK  status: ('A' for Active; 'I' for Inactive)
REMARK    1  A    between atoms: C_1  and  C_2
REMARK    2  A    between atoms: C_2  and  O_3
REMARK    3  A    between atoms: O_3  and  C_4
REMARK    4  A    between atoms: C_6  and  C_11
REMARK    5  A    between atoms: C_9  and  O_10
REMARK    6  A    between atoms: N_19  and  C_20
REMARK                            x       y       z     vdW  Elec       q    Type
REMARK                         _______ _______ _______ _____ _____    ______ ____
ROOT
ATOM      1  C   UNL     1      -0.195  -3.978  -1.299  0.00  0.00    +0.191 C 
ATOM      2  N   UNL     1      -0.423  -5.429  -1.316  0.00  0.00    -0.307 N 
ATOM      3  C   UNL     1      -1.748  -5.860  -1.393  0.00  0.00    +0.125 A 
ATOM      4  C   UNL     1      -2.722  -4.999  -0.920  0.00  0.00    +0.115 A 
ATOM      5  S   UNL     1      -4.213  -5.902  -1.183  0.00  0.00    -0.055 S 
ATOM      6  C   UNL     1      -3.541  -7.288  -1.867  0.00  0.00    +0.132 A 
ATOM      7  S   UNL     1      -4.350  -8.691  -2.421  0.00  0.00    -0.024 S 
ATOM      8  N   UNL     1      -2.215  -7.032  -1.877  0.00  0.00    -0.285 N 
ATOM      9  C   UNL     1      -2.463  -3.736  -0.390  0.00  0.00    +0.256 C 
ATOM     10  O   UNL     1      -3.341  -3.071   0.132  0.00  0.00    -0.269 OA
ATOM     11  N   UNL     1      -1.188  -3.283  -0.482  0.00  0.00    -0.289 N 
ATOM     12  H   UNL     1       0.314  -6.059  -1.275  0.00  0.00    +0.150 HD
ATOM     13  H   UNL     1      -0.931  -2.483   0.003  0.00  0.00    +0.151 HD
ENDROOT
BRANCH   1  16
ATOM     14  C   UNL     1      -0.742  -1.670  -4.239  0.00  0.00    +0.162 A 
ATOM     15  C   UNL     1      -0.676  -2.154  -2.943  0.00  0.00    +0.056 A 
ATOM     16  C   UNL     1      -0.265  -3.453  -2.710  0.00  0.00    -0.006 A 
ATOM     17  C   UNL     1       0.083  -4.272  -3.768  0.00  0.00    +0.011 A 
ATOM     18  C   UNL     1       0.020  -3.795  -5.064  0.00  0.00    +0.049 A 
ATOM     19  C   UNL     1      -0.397  -2.496  -5.305  0.00  0.00    +0.158 A 
BRANCH  19  20
ATOM     20  O   UNL     1      -0.465  -2.027  -6.580  0.00  0.00    -0.503 OA
ATOM     21  H   UNL     1       0.353  -1.616  -6.892  0.00  0.00    +0.292 HD
ENDBRANCH  19  20
BRANCH  14  22
ATOM     22  O   UNL     1      -1.147  -0.393  -4.470  0.00  0.00    -0.489 OA
BRANCH  22  24
ATOM     23  C   UNL     1      -1.913   1.794  -3.783  0.00  0.00    +0.048 C 
ATOM     24  C   UNL     1      -1.484   0.397  -3.328  0.00  0.00    +0.226 C 
ENDBRANCH  22  24
ENDBRANCH  14  22
ENDBRANCH   1  16
BRANCH   8  25
ATOM     25  C   UNL     1      -1.323  -7.983  -2.389  0.00  0.00    +0.049 A 
ATOM     26  C   UNL     1      -1.009  -7.984  -3.742  0.00  0.00    +0.026 A 
ATOM     27  C   UNL     1      -0.129  -8.922  -4.245  0.00  0.00    +0.002 A 
ATOM     28  C   UNL     1       0.440  -9.860  -3.402  0.00  0.00    +0.000 A 
ATOM     29  C   UNL     1       0.129  -9.862  -2.055  0.00  0.00    +0.002 A 
ATOM     30  C   UNL     1      -0.746  -8.922  -1.545  0.00  0.00    +0.026 A 
ENDBRANCH   8  25
TORSDOF 5
