REMARK  Name = ZINC04960413
REMARK  6 active torsions:
REMARK  status: ('A' for Active; 'I' for Inactive)
REMARK    1  A    between atoms: C_3  and  O_10
REMARK    2  A    between atoms: C_6  and  N_7
REMARK    3  A    between atoms: O_10  and  C_11
REMARK    4  A    between atoms: C_11  and  C_12
REMARK    5  A    between atoms: N_14  and  C_15
REMARK    6  A    between atoms: C_16  and  C_23
REMARK                            x       y       z     vdW  Elec       q    Type
REMARK                         _______ _______ _______ _____ _____    ______ ____
ROOT
ATOM      1  C   UNL     1       2.211   5.600   0.012  0.00  0.00    +0.255 C 
ATOM      2  O   UNL     1       1.085   6.051   0.025  0.00  0.00    -0.272 OA
ATOM      3  N   UNL     1       3.270   6.433   0.006  0.00  0.00    -0.277 N 
ATOM      4  H   UNL     1       4.171   6.073  -0.004  0.00  0.00    +0.155 HD
ENDROOT
BRANCH   3   5
ATOM      5  C   UNL     1       3.072   7.806   0.016  0.00  0.00    +0.084 A 
ATOM      6  C   UNL     1       4.023   8.812   0.018  0.00  0.00    +0.068 A 
ATOM      7  C   UNL     1       3.546  10.194   0.025  0.00  0.00    -0.023 A 
ATOM      8  C   UNL     1       2.209  10.337   0.039  0.00  0.00    -0.004 A 
ATOM      9  S   UNL     1       1.577   8.677   0.036  0.00  0.00    -0.077 S 
ATOM     10  C   UNL     1       1.796  11.784   0.048  0.00  0.00    +0.043 C 
ATOM     11  C   UNL     1       3.060  12.552  -0.398  0.00  0.00    +0.010 C 
ATOM     12  C   UNL     1       4.182  11.585   0.029  0.00  0.00    +0.037 C 
BRANCH   6  13
ATOM     13  C   UNL     1       5.457   8.503   0.010  0.00  0.00    +0.244 C 
ATOM     14  O   UNL     1       6.047   8.382  -1.048  0.00  0.00    -0.270 OA
ATOM     15  N   UNL     1       6.121   8.353   1.173  0.00  0.00    -0.325 N 
ATOM     16  H   UNL     1       5.650   8.449   2.016  0.00  0.00    +0.145 HD
ATOM     17  H   UNL     1       7.069   8.148   1.167  0.00  0.00    +0.145 HD
ENDBRANCH   6  13
ENDBRANCH   3   5
BRANCH   1  18
ATOM     18  C   UNL     1       2.426   4.108   0.001  0.00  0.00    +0.324 C 
BRANCH  18  19
ATOM     19  O   UNL     1       1.160   3.445   0.010  0.00  0.00    -0.483 OA
BRANCH  19  22
ATOM     20  C   UNL     1       0.002  -0.004   0.002  0.00  0.00    +0.036 A 
ATOM     21  C   UNL     1      -0.017   1.377   0.010  0.00  0.00    +0.048 A 
ATOM     22  C   UNL     1       1.176   2.086   0.002  0.00  0.00    +0.121 A 
ATOM     23  C   UNL     1       2.385   1.405  -0.012  0.00  0.00    +0.048 A 
ATOM     24  C   UNL     1       2.398   0.024  -0.020  0.00  0.00    +0.036 A 
ATOM     25  C   UNL     1       1.208  -0.680  -0.013  0.00  0.00    +0.126 A 
BRANCH  25  26
ATOM     26  N   UNL     1       1.225  -2.160  -0.021  0.00  0.00    +0.056 N 
ATOM     27  O   UNL     1       0.178  -2.781  -0.015  0.00  0.00    -0.126 OA
ATOM     28  O   UNL     1       2.287  -2.757  -0.035  0.00  0.00    -0.126 OA
ENDBRANCH  25  26
ENDBRANCH  19  22
ENDBRANCH  18  19
ENDBRANCH   1  18
TORSDOF 6
