REMARK  Name = ZINC37299064
REMARK  6 active torsions:
REMARK  status: ('A' for Active; 'I' for Inactive)
REMARK    1  A    between atoms: C_1  and  C_2
REMARK    2  A    between atoms: C_2  and  C_4
REMARK    3  A    between atoms: C_2  and  N_12
REMARK    4  A    between atoms: C_8  and  C_10
REMARK    5  A    between atoms: N_12  and  C_13
REMARK    6  A    between atoms: C_15  and  N_20
REMARK                            x       y       z     vdW  Elec       q    Type
REMARK                         _______ _______ _______ _____ _____    ______ ____
ROOT
ATOM      1  N   UNL     1      -1.372  -0.511   0.012  0.00  0.00    -0.336 N 
ATOM      2  H   UNL     1      -1.794  -0.752   0.852  0.00  0.00    +0.147 HD
ENDROOT
BRANCH   1   3
ATOM      3  C   UNL     1      -2.076  -0.648  -1.187  0.00  0.00    +0.048 A 
ATOM      4  C   UNL     1      -1.472  -0.308  -2.391  0.00  0.00    +0.057 A 
ATOM      5  C   UNL     1      -2.170  -0.445  -3.575  0.00  0.00    +0.128 A 
ATOM      6  C   UNL     1      -3.469  -0.918  -3.564  0.00  0.00    +0.034 A 
ATOM      7  C   UNL     1      -4.074  -1.257  -2.368  0.00  0.00    +0.024 A 
ATOM      8  C   UNL     1      -3.380  -1.129  -1.179  0.00  0.00    +0.062 A 
ATOM      9 CL   UNL     1      -4.138  -1.560   0.322  0.00  0.00    -0.082 Cl
BRANCH   5  10
ATOM     10  N   UNL     1      -1.526  -0.083  -4.858  0.00  0.00    +0.056 N 
ATOM     11  O   UNL     1      -0.390   0.331  -4.869  0.00  0.00    -0.126 OA
ATOM     12  O   UNL     1      -2.136  -0.202  -5.895  0.00  0.00    -0.126 OA
ENDBRANCH   5  10
ENDBRANCH   1   3
BRANCH   1  14
ATOM     13  C   UNL     1      -0.019   1.526   0.010  0.00  0.00    +0.033 C 
ATOM     14  C   UNL     1       0.002  -0.004   0.002  0.00  0.00    +0.098 C 
BRANCH  14  15
ATOM     15  C   UNL     1       0.731  -0.503   1.223  0.00  0.00    -0.026 A 
ATOM     16  C   UNL     1       0.079  -0.558   2.442  0.00  0.00    +0.005 A 
ATOM     17  C   UNL     1       0.740  -1.015   3.568  0.00  0.00    +0.002 A 
ATOM     18  C   UNL     1       2.056  -1.420   3.482  0.00  0.00    +0.019 A 
ATOM     19  C   UNL     1       2.720  -1.368   2.255  0.00  0.00    +0.052 A 
ATOM     20  C   UNL     1       2.045  -0.910   1.121  0.00  0.00    +0.024 A 
BRANCH  19  21
ATOM     21  C   UNL     1       4.086  -1.787   2.158  0.00  0.00    +0.099 C 
ATOM     22  N   UNL     1       5.170  -2.119   2.081  0.00  0.00    -0.191 NA
ENDBRANCH  19  21
ENDBRANCH  14  15
ENDBRANCH   1  14
TORSDOF 5
