REMARK  Name = ZINC54402222
REMARK  6 active torsions:
REMARK  status: ('A' for Active; 'I' for Inactive)
REMARK    1  A    between atoms: C_1  and  C_2
REMARK    2  A    between atoms: C_2  and  C_3
REMARK    3  A    between atoms: C_3  and  C_4
REMARK    4  A    between atoms: C_3  and  C_5
REMARK    5  A    between atoms: C_3  and  C_6
REMARK    6  A    between atoms: C_6  and  C_8
REMARK                            x       y       z     vdW  Elec       q    Type
REMARK                         _______ _______ _______ _____ _____    ______ ____
ROOT
ATOM      1  C   UNL     1       1.348  -2.638  -2.439  0.00  0.00    +0.034 A 
ATOM      2  C   UNL     1       1.619  -1.903  -3.600  0.00  0.00    +0.040 A 
ATOM      3  C   UNL     1       2.104  -2.548  -4.720  0.00  0.00    +0.068 A 
ATOM      4  C   UNL     1       2.324  -3.930  -4.695  0.00  0.00    +0.068 A 
ATOM      5  C   UNL     1       2.054  -4.659  -3.542  0.00  0.00    +0.043 A 
ATOM      6  C   UNL     1       1.576  -4.021  -2.419  0.00  0.00    +0.030 A 
ATOM      7 BR   UNL     1       1.218  -5.014  -0.850  0.00  0.00    -0.050 Br
ATOM      8  N   UNL     1       2.805  -4.283  -5.947  0.00  0.00    -0.306 N 
ATOM      9  H   UNL     1       3.048  -5.179  -6.229  0.00  0.00    +0.170 HD
ATOM     10  C   UNL     1       2.879  -3.173  -6.705  0.00  0.00    +0.325 A 
ATOM     11  O   UNL     1       3.264  -3.137  -7.859  0.00  0.00    -0.247 OA
ATOM     12  N   UNL     1       2.463  -2.108  -5.994  0.00  0.00    -0.306 N 
ATOM     13  H   UNL     1       2.419  -1.193  -6.313  0.00  0.00    +0.170 HD
ENDROOT
BRANCH   1  14
ATOM     14  C   UNL     1       0.832  -1.960  -1.244  0.00  0.00    +0.170 C 
ATOM     15  O   UNL     1       0.495  -2.609  -0.276  0.00  0.00    -0.291 OA
BRANCH  14  16
ATOM     16  C   UNL     1       0.721  -0.457  -1.218  0.00  0.00    +0.028 C 
ATOM     17  C   UNL     1      -0.306  -0.004  -2.258  0.00  0.00    +0.019 C 
ATOM     18  C   UNL     1       2.082   0.161  -1.544  0.00  0.00    +0.019 C 
BRANCH  16  20
ATOM     19  C   UNL     1       0.162   1.524   0.198  0.00  0.00    +0.005 C 
ATOM     20  C   UNL     1       0.274  -0.002   0.172  0.00  0.00    +0.011 C 
ENDBRANCH  16  20
ENDBRANCH  14  16
ENDBRANCH   1  14
TORSDOF 3
