REMARK  Name = ZINC03264654
REMARK  5 active torsions:
REMARK  status: ('A' for Active; 'I' for Inactive)
REMARK    1  A    between atoms: C_4  and  O_7
REMARK    2  A    between atoms: O_7  and  C_8
REMARK    3  A    between atoms: C_12  and  C_14
REMARK    4  A    between atoms: C_20  and  S_27
REMARK    5  A    between atoms: S_27  and  N_30
REMARK                            x       y       z     vdW  Elec       q    Type
REMARK                         _______ _______ _______ _____ _____    ______ ____
ROOT
ATOM      1  C   UNL     1      -2.255  -2.982  -0.054  0.00  0.00    +0.191 C 
ATOM      2  N   UNL     1      -3.253  -2.311   0.774  0.00  0.00    -0.322 N 
ATOM      3  C   UNL     1      -3.133  -2.169   2.153  0.00  0.00    +0.057 A 
ATOM      4  C   UNL     1      -3.851  -1.158   2.790  0.00  0.00    +0.047 A 
ATOM      5  C   UNL     1      -3.767  -1.001   4.158  0.00  0.00    +0.069 A 
ATOM      6  C   UNL     1      -2.969  -1.848   4.909  0.00  0.00    +0.125 A 
ATOM      7  C   UNL     1      -2.249  -2.849   4.283  0.00  0.00    +0.060 A 
ATOM      8  C   UNL     1      -2.325  -3.002   2.915  0.00  0.00    +0.128 A 
ATOM      9  S   UNL     1      -1.371  -4.258   2.116  0.00  0.00    +0.062 S 
ATOM     10  O   UNL     1      -0.032  -3.788   2.057  0.00  0.00    -0.153 OA
ATOM     11  O   UNL     1      -1.726  -5.495   2.718  0.00  0.00    -0.153 OA
ATOM     12  N   UNL     1      -1.943  -4.296   0.545  0.00  0.00    -0.166 NA
ATOM     13 CL   UNL     1      -4.664   0.262   4.942  0.00  0.00    -0.081 Cl
ATOM     14  H   UNL     1      -4.040  -1.945   0.340  0.00  0.00    +0.148 HD
ATOM     15  H   UNL     1      -2.066  -5.126   0.059  0.00  0.00    +0.150 HD
ENDROOT
BRANCH   1  20
ATOM     16  C   UNL     1       0.065   0.001  -0.080  0.00  0.00    +0.129 A 
ATOM     17  C   UNL     1       1.300  -0.613  -0.228  0.00  0.00    +0.046 A 
ATOM     18  C   UNL     1       1.380  -1.989  -0.318  0.00  0.00    +0.004 A 
ATOM     19  C   UNL     1       0.229  -2.754  -0.262  0.00  0.00    +0.007 A 
ATOM     20  C   UNL     1      -1.003  -2.145  -0.116  0.00  0.00    -0.008 A 
ATOM     21  C   UNL     1      -1.088  -0.769  -0.020  0.00  0.00    +0.053 A 
BRANCH  16  22
ATOM     22  O   UNL     1      -0.016   1.355   0.009  0.00  0.00    -0.456 OA
BRANCH  22  26
ATOM     23  C   UNL     1       0.962   3.579  -3.324  0.00  0.00    +0.000 A 
ATOM     24  C   UNL     1       0.690   4.214  -2.127  0.00  0.00    +0.004 A 
ATOM     25  C   UNL     1       0.361   3.471  -1.009  0.00  0.00    +0.046 A 
ATOM     26  C   UNL     1       0.306   2.087  -1.089  0.00  0.00    +0.128 A 
ATOM     27  C   UNL     1       0.585   1.452  -2.290  0.00  0.00    +0.046 A 
ATOM     28  C   UNL     1       0.907   2.200  -3.406  0.00  0.00    +0.004 A 
ENDBRANCH  22  26
ENDBRANCH  16  22
ENDBRANCH   1  20
BRANCH   6  29
ATOM     29  S   UNL     1      -2.873  -1.651   6.657  0.00  0.00    +0.057 S 
ATOM     30  O   UNL     1      -4.210  -1.557   7.130  0.00  0.00    -0.153 OA
ATOM     31  O   UNL     1      -1.967  -2.640   7.128  0.00  0.00    -0.153 OA
BRANCH  29  32
ATOM     32  N   UNL     1      -2.164  -0.183   6.946  0.00  0.00    -0.203 NA
ATOM     33  H   UNL     1      -1.893   0.379   6.204  0.00  0.00    +0.144 HD
ATOM     34  H   UNL     1      -2.019   0.115   7.858  0.00  0.00    +0.144 HD
ENDBRANCH  29  32
ENDBRANCH   6  29
TORSDOF 5
