REMARK  Name = ZINC08886446
REMARK  7 active torsions:
REMARK  status: ('A' for Active; 'I' for Inactive)
REMARK    1  A    between atoms: C_1  and  C_2
REMARK    2  A    between atoms: C_5  and  O_8
REMARK    3  A    between atoms: O_8  and  C_9
REMARK    4  A    between atoms: C_9  and  C_10
REMARK    5  A    between atoms: C_10  and  N_11
REMARK    6  A    between atoms: C_14  and  C_18
REMARK    7  A    between atoms: C_14  and  C_19
REMARK                            x       y       z     vdW  Elec       q    Type
REMARK                         _______ _______ _______ _____ _____    ______ ____
ROOT
ATOM      1  N   UNL     1      -4.818   0.110   1.278  0.00  0.00    -0.221 N 
ATOM      2  C   UNL     1      -4.208  -1.081   1.444  0.00  0.00    +0.251 C 
ATOM      3  O   UNL     1      -3.566  -1.695   0.619  0.00  0.00    -0.272 OA
ATOM      4  C   UNL     1      -4.489  -1.490   2.876  0.00  0.00    +0.135 C 
ATOM      5  N   UNL     1      -5.307  -0.382   3.398  0.00  0.00    -0.281 N 
ATOM      6  C   UNL     1      -5.445   0.502   2.393  0.00  0.00    +0.310 C 
ATOM      7  O   UNL     1      -6.069   1.540   2.488  0.00  0.00    -0.252 OA
ATOM      8  C   UNL     1      -5.274  -2.803   2.912  0.00  0.00    +0.047 C 
ATOM      9  H   UNL     1      -5.676  -0.305   4.292  0.00  0.00    +0.152 HD
ENDROOT
BRANCH   4  10
ATOM     10  C   UNL     1      -3.206  -1.616   3.657  0.00  0.00    -0.015 A 
ATOM     11  C   UNL     1      -2.055  -2.073   3.018  0.00  0.00    +0.007 A 
ATOM     12  C   UNL     1      -0.881  -2.198   3.694  0.00  0.00    +0.009 A 
ATOM     13  C   UNL     1      -0.825  -1.862   5.058  0.00  0.00    -0.018 A 
ATOM     14  C   UNL     1       0.370  -1.977   5.789  0.00  0.00    +0.008 A 
ATOM     15  C   UNL     1       0.387  -1.642   7.108  0.00  0.00    +0.001 A 
ATOM     16  C   UNL     1      -0.764  -1.185   7.747  0.00  0.00    +0.001 A 
ATOM     17  C   UNL     1      -1.939  -1.061   7.071  0.00  0.00    +0.008 A 
ATOM     18  C   UNL     1      -1.995  -1.397   5.708  0.00  0.00    -0.018 A 
ATOM     19  C   UNL     1      -3.188  -1.276   4.975  0.00  0.00    +0.014 A 
ENDBRANCH   4  10
BRANCH   1  20
ATOM     20  C   UNL     1      -4.801   0.877   0.030  0.00  0.00    +0.159 C 
BRANCH  20  21
ATOM     21  C   UNL     1      -3.599   1.824   0.029  0.00  0.00    +0.248 C 
BRANCH  21  22
ATOM     22  O   UNL     1      -2.392   1.060   0.020  0.00  0.00    -0.490 OA
BRANCH  22  27
ATOM     23  C   UNL     1       2.452   3.935  -0.001  0.00  0.00    +0.044 C 
ATOM     24  C   UNL     1       1.156   3.166   0.007  0.00  0.00    -0.050 A 
ATOM     25  C   UNL     1       1.174   1.783   0.000  0.00  0.00    +0.007 A 
ATOM     26  C   UNL     1      -0.013   1.076   0.008  0.00  0.00    +0.046 A 
ATOM     27  C   UNL     1      -1.223   1.754   0.017  0.00  0.00    +0.121 A 
ATOM     28  C   UNL     1      -1.238   3.141   0.029  0.00  0.00    +0.046 A 
ATOM     29  C   UNL     1      -0.049   3.844   0.022  0.00  0.00    +0.007 A 
ENDBRANCH  22  27
ENDBRANCH  21  22
ENDBRANCH  20  21
ENDBRANCH   1  20
TORSDOF 5
