REMARK  Name = ZINC00884620
REMARK  7 active torsions:
REMARK  status: ('A' for Active; 'I' for Inactive)
REMARK    1  A    between atoms: C_1  and  C_2
REMARK    2  A    between atoms: C_3  and  C_8
REMARK    3  A    between atoms: N_6  and  C_7
REMARK    4  A    between atoms: C_8  and  N_9
REMARK    5  A    between atoms: C_10  and  C_12
REMARK    6  A    between atoms: C_17  and  C_28
REMARK    7  A    between atoms: C_20  and  C_23
REMARK                            x       y       z     vdW  Elec       q    Type
REMARK                         _______ _______ _______ _____ _____    ______ ____
ROOT
ATOM      1  C   UNL     1       2.941   0.932  -4.570  0.00  0.00    +0.149 A 
ATOM      2  C   UNL     1       3.321   1.431  -5.836  0.00  0.00    +0.078 A 
ATOM      3  C   UNL     1       4.645   1.678  -5.796  0.00  0.00    +0.119 A 
ATOM      4  N   UNL     1       5.101   1.352  -4.550  0.00  0.00    -0.238 N 
ATOM      5  N   UNL     1       4.017   0.893  -3.803  0.00  0.00    -0.164 NA
ATOM      6  C   UNL     1       6.499   1.493  -4.133  0.00  0.00    +0.215 C 
ATOM      7  C   UNL     1       7.204   2.467  -5.083  0.00  0.00    +0.066 C 
ATOM      8  C   UNL     1       6.936   2.064  -6.537  0.00  0.00    +0.140 C 
ATOM      9  N   UNL     1       5.487   2.175  -6.795  0.00  0.00    -0.319 N 
ATOM     10  H   UNL     1       5.139   2.569  -7.610  0.00  0.00    +0.148 HD
ENDROOT
BRANCH   8  11
ATOM     11  C   UNL     1       7.386   0.643  -6.760  0.00  0.00    +0.125 A 
ATOM     12  C   UNL     1       8.544   0.266  -7.331  0.00  0.00    +0.046 A 
ATOM     13  C   UNL     1       8.556  -1.148  -7.338  0.00  0.00    +0.041 A 
ATOM     14  C   UNL     1       7.404  -1.550  -6.771  0.00  0.00    +0.195 A 
ATOM     15  O   UNL     1       6.702  -0.461  -6.418  0.00  0.00    -0.466 OA
ENDBRANCH   8  11
BRANCH   1  17
ATOM     16  N   UNL     1       1.347   0.073  -2.923  0.00  0.00    -0.306 N 
ATOM     17  C   UNL     1       1.577   0.529  -4.170  0.00  0.00    +0.264 C 
ATOM     18  O   UNL     1       0.662   0.610  -4.966  0.00  0.00    -0.268 OA
ATOM     19  H   UNL     1       2.077   0.008  -2.288  0.00  0.00    +0.149 HD
BRANCH  16  20
ATOM     20  C   UNL     1      -0.006  -0.327  -2.527  0.00  0.00    +0.143 C 
BRANCH  20  23
ATOM     21  C   UNL     1      -0.018   1.503   0.010  0.00  0.00    +0.065 C 
ATOM     22  C   UNL     1       0.002  -0.004   0.002  0.00  0.00    +0.040 A 
ATOM     23  C   UNL     1       0.008  -0.796  -1.095  0.00  0.00    +0.010 A 
ATOM     24  C   UNL     1       0.028  -2.127  -0.666  0.00  0.00    +0.139 A 
ATOM     25  N   UNL     1       0.035  -2.134   0.643  0.00  0.00    -0.179 NA
ATOM     26  N   UNL     1       0.024  -0.805   1.088  0.00  0.00    -0.271 N 
ATOM     27  C   UNL     1       0.031  -0.364   2.485  0.00  0.00    +0.172 C 
ENDBRANCH  20  23
ENDBRANCH  16  20
ENDBRANCH   1  17
BRANCH   6  28
ATOM     28  C   UNL     1       6.555   2.036  -2.704  0.00  0.00    +0.412 C 
ATOM     29  F   UNL     1       5.900   1.151  -1.842  0.00  0.00    -0.168 F 
ATOM     30  F   UNL     1       7.891   2.170  -2.308  0.00  0.00    -0.168 F 
ATOM     31  F   UNL     1       5.927   3.285  -2.655  0.00  0.00    -0.168 F 
ENDBRANCH   6  28
TORSDOF 5
