REMARK  Name = ZINC49563046
REMARK  9 active torsions:
REMARK  status: ('A' for Active; 'I' for Inactive)
REMARK    1  A    between atoms: C_1  and  C_2
REMARK    2  A    between atoms: C_2  and  C_4
REMARK    3  A    between atoms: C_2  and  N_13
REMARK    4  A    between atoms: C_7  and  O_12
REMARK    5  A    between atoms: C_8  and  O_10
REMARK    6  A    between atoms: O_10  and  C_11
REMARK    7  A    between atoms: N_13  and  C_14
REMARK    8  A    between atoms: C_19  and  O_20
REMARK    9  A    between atoms: O_20  and  C_21
REMARK                            x       y       z     vdW  Elec       q    Type
REMARK                         _______ _______ _______ _____ _____    ______ ____
ROOT
ATOM      1  C   UNL     1      -0.019   1.526   0.010  0.00  0.00    +0.033 C 
ATOM      2  C   UNL     1       0.002  -0.004   0.002  0.00  0.00    +0.098 C 
ENDROOT
BRANCH   2   3
ATOM      3  C   UNL     1      -1.412  -0.526   0.013  0.00  0.00    -0.024 A 
ATOM      4  C   UNL     1      -2.122  -0.570   1.198  0.00  0.00    +0.009 A 
ATOM      5  C   UNL     1      -3.419  -1.048   1.213  0.00  0.00    +0.049 A 
ATOM      6  C   UNL     1      -4.011  -1.483   0.038  0.00  0.00    +0.158 A 
ATOM      7  C   UNL     1      -3.296  -1.438  -1.155  0.00  0.00    +0.162 A 
ATOM      8  C   UNL     1      -1.998  -0.953  -1.164  0.00  0.00    +0.054 A 
BRANCH   7   9
ATOM      9  O   UNL     1      -3.873  -1.863  -2.311  0.00  0.00    -0.491 OA
ATOM     10  C   UNL     1      -3.080  -1.788  -3.497  0.00  0.00    +0.277 C 
ENDBRANCH   7   9
BRANCH   6  11
ATOM     11  O   UNL     1      -5.286  -1.954   0.051  0.00  0.00    -0.503 OA
ATOM     12  H   UNL     1      -5.958  -1.273  -0.095  0.00  0.00    +0.292 HD
ENDBRANCH   6  11
ENDBRANCH   2   3
BRANCH   2  13
ATOM     13  N   UNL     1       0.711  -0.489   1.189  0.00  0.00    -0.334 N 
ATOM     14  H   UNL     1       0.213  -0.731   1.986  0.00  0.00    +0.147 HD
BRANCH  13  15
ATOM     15  C   UNL     1       2.106  -0.604   1.173  0.00  0.00    +0.071 A 
ATOM     16  C   UNL     1       2.819  -0.253   0.036  0.00  0.00    +0.042 A 
ATOM     17  C   UNL     1       4.197  -0.368   0.023  0.00  0.00    +0.020 A 
ATOM     18  C   UNL     1       4.867  -0.831   1.142  0.00  0.00    +0.019 A 
ATOM     19  C   UNL     1       4.161  -1.183   2.278  0.00  0.00    +0.048 A 
ATOM     20  C   UNL     1       2.781  -1.065   2.301  0.00  0.00    +0.141 A 
ATOM     21 BR   UNL     1       5.169   0.110  -1.527  0.00  0.00    -0.050 Br
BRANCH  20  22
ATOM     22  O   UNL     1       2.087  -1.405   3.420  0.00  0.00    -0.493 OA
ATOM     23  C   UNL     1       2.845  -1.870   4.538  0.00  0.00    +0.277 C 
ENDBRANCH  20  22
ENDBRANCH  13  15
ENDBRANCH   2  13
TORSDOF 6
