REMARK  Name = ZINC13427044
REMARK  6 active torsions:
REMARK  status: ('A' for Active; 'I' for Inactive)
REMARK    1  A    between atoms: C_3  and  C_6
REMARK    2  A    between atoms: C_6  and  C_8
REMARK    3  A    between atoms: C_10  and  C_22
REMARK    4  A    between atoms: C_16  and  C_17
REMARK    5  A    between atoms: C_16  and  O_21
REMARK    6  A    between atoms: C_25  and  N_28
REMARK                            x       y       z     vdW  Elec       q    Type
REMARK                         _______ _______ _______ _____ _____    ______ ____
ROOT
ATOM      1  C   UNL     1      -0.458   3.559  -1.041  0.00  0.00    +0.145 C 
ATOM      2  C   UNL     1      -1.415   4.253  -0.067  0.00  0.00    +0.120 C 
ATOM      3  N   UNL     1      -2.385   3.274   0.428  0.00  0.00    -0.292 N 
ATOM      4  C   UNL     1      -2.070   1.975   0.538  0.00  0.00    +0.302 C 
ATOM      5  O   UNL     1      -2.907   1.206   0.970  0.00  0.00    -0.253 OA
ATOM      6  N   UNL     1      -0.870   1.489   0.186  0.00  0.00    -0.264 N 
ATOM      7  C   UNL     1       0.184   2.365  -0.328  0.00  0.00    +0.243 C 
ATOM      8  H   UNL     1      -3.272   3.571   0.685  0.00  0.00    +0.151 HD
ATOM      9  H   UNL     1      -0.697   0.539   0.275  0.00  0.00    +0.153 HD
ENDROOT
BRANCH   2  10
ATOM     10  C   UNL     1      -2.143   5.364  -0.779  0.00  0.00    -0.026 A 
ATOM     11  C   UNL     1      -1.616   6.642  -0.786  0.00  0.00    +0.008 A 
ATOM     12  C   UNL     1      -2.281   7.660  -1.444  0.00  0.00    +0.033 A 
ATOM     13  C   UNL     1      -3.478   7.402  -2.087  0.00  0.00    +0.126 A 
ATOM     14  C   UNL     1      -4.007   6.125  -2.076  0.00  0.00    +0.033 A 
ATOM     15  C   UNL     1      -3.339   5.106  -1.422  0.00  0.00    +0.008 A 
BRANCH  13  16
ATOM     16  N   UNL     1      -4.192   8.493  -2.786  0.00  0.00    +0.056 N 
ATOM     17  O   UNL     1      -5.247   8.265  -3.352  0.00  0.00    -0.126 OA
ATOM     18  O   UNL     1      -3.726   9.618  -2.796  0.00  0.00    -0.126 OA
ENDBRANCH  13  16
ENDBRANCH   2  10
BRANCH   7  19
ATOM     19  C   UNL     1       1.045   2.865   0.834  0.00  0.00    +0.436 C 
ATOM     20  F   UNL     1       1.730   1.788   1.405  0.00  0.00    -0.166 F 
ATOM     21  F   UNL     1       1.966   3.806   0.360  0.00  0.00    -0.166 F 
ATOM     22  F   UNL     1       0.225   3.460   1.799  0.00  0.00    -0.166 F 
ENDBRANCH   7  19
BRANCH   1  23
ATOM     23  C   UNL     1      -1.223   3.077  -2.246  0.00  0.00    +0.179 C 
ATOM     24  O   UNL     1      -2.361   2.672  -2.120  0.00  0.00    -0.291 OA
BRANCH  23  27
ATOM     25  C   UNL     1      -0.330   2.829  -5.844  0.00  0.00    +0.008 A 
ATOM     26  C   UNL     1      -1.141   2.697  -4.748  0.00  0.00    +0.019 A 
ATOM     27  C   UNL     1      -0.618   3.097  -3.522  0.00  0.00    +0.055 A 
ATOM     28  S   UNL     1       1.020   3.636  -3.982  0.00  0.00    -0.094 S 
ATOM     29  C   UNL     1       0.928   3.325  -5.685  0.00  0.00    +0.046 A 
ENDBRANCH  23  27
ENDBRANCH   1  23
BRANCH   7  30
ATOM     30  O   UNL     1       1.001   1.639  -1.249  0.00  0.00    -0.364 OA
ATOM     31  H   UNL     1       1.435   0.866  -0.865  0.00  0.00    +0.212 HD
ENDBRANCH   7  30
TORSDOF 6
