REMARK  Name = ZINC59250429
REMARK  10 active torsions:
REMARK  status: ('A' for Active; 'I' for Inactive)
REMARK    1  A    between atoms: C_1  and  C_2
REMARK    2  A    between atoms: C_2  and  O_3
REMARK    3  A    between atoms: O_3  and  C_4
REMARK    4  A    between atoms: C_7  and  O_10
REMARK    5  A    between atoms: O_10  and  C_11
REMARK    6  A    between atoms: C_11  and  C_13
REMARK    7  A    between atoms: C_11  and  C_14
REMARK    8  A    between atoms: N_16  and  N_17
REMARK    9  A    between atoms: C_18  and  C_20
REMARK   10  A    between atoms: C_23  and  C_28
REMARK                            x       y       z     vdW  Elec       q    Type
REMARK                         _______ _______ _______ _____ _____    ______ ____
ROOT
ATOM      1  N   UNL     1       4.115  -9.441   2.958  0.00  0.00    -0.230 N 
ATOM      2  C   UNL     1       4.901 -10.081   3.846  0.00  0.00    +0.265 C 
ATOM      3  O   UNL     1       4.959  -9.692   4.998  0.00  0.00    -0.268 OA
ATOM      4  H   UNL     1       4.013  -9.793   2.059  0.00  0.00    +0.173 HD
ENDROOT
BRANCH   2   5
ATOM      5  C   UNL     1       5.688 -11.248   3.425  0.00  0.00    +0.102 A 
ATOM      6  C   UNL     1       6.597 -11.841   4.303  0.00  0.00    +0.020 A 
ATOM      7  C   UNL     1       7.327 -12.943   3.876  0.00  0.00    +0.027 A 
ATOM      8  C   UNL     1       7.147 -13.437   2.598  0.00  0.00    +0.049 A 
ATOM      9  N   UNL     1       6.258 -12.854   1.743  0.00  0.00    -0.321 N 
ATOM     10  H   UNL     1       6.146 -13.215   0.849  0.00  0.00    +0.169 HD
ATOM     11  C   UNL     1       5.529 -11.788   2.124  0.00  0.00    +0.261 A 
ATOM     12  O   UNL     1       4.735 -11.284   1.348  0.00  0.00    -0.267 OA
BRANCH   8  13
ATOM     13  C   UNL     1       7.926 -14.609   2.152  0.00  0.00    -0.002 A 
ATOM     14  C   UNL     1       8.836 -15.218   3.019  0.00  0.00    +0.010 A 
ATOM     15  C   UNL     1       9.561 -16.312   2.596  0.00  0.00    +0.001 A 
ATOM     16  C   UNL     1       9.389 -16.807   1.315  0.00  0.00    +0.000 A 
ATOM     17  C   UNL     1       8.489 -16.209   0.451  0.00  0.00    +0.001 A 
ATOM     18  C   UNL     1       7.754 -15.117   0.862  0.00  0.00    +0.010 A 
ENDBRANCH   8  13
ENDBRANCH   2   5
BRANCH   1  21
ATOM     19  C   UNL     1       2.661  -7.628   2.442  0.00  0.00    +0.270 C 
ATOM     20  O   UNL     1       2.532  -8.068   1.319  0.00  0.00    -0.270 OA
ATOM     21  N   UNL     1       3.446  -8.268   3.331  0.00  0.00    -0.231 N 
ATOM     22  H   UNL     1       3.549  -7.916   4.229  0.00  0.00    +0.173 HD
BRANCH  19  23
ATOM     23  C   UNL     1       1.941  -6.366   2.844  0.00  0.00    +0.257 C 
ATOM     24  C   UNL     1       1.006  -6.664   4.017  0.00  0.00    +0.062 C 
BRANCH  23  25
ATOM     25  O   UNL     1       1.178  -5.880   1.738  0.00  0.00    -0.480 OA
BRANCH  25  29
ATOM     26  C   UNL     1       0.342  -1.839   1.669  0.00  0.00    +0.121 A 
ATOM     27  C   UNL     1       0.982  -2.396   2.766  0.00  0.00    +0.049 A 
ATOM     28  C   UNL     1       1.262  -3.748   2.789  0.00  0.00    +0.049 A 
ATOM     29  C   UNL     1       0.902  -4.549   1.715  0.00  0.00    +0.122 A 
ATOM     30  C   UNL     1       0.262  -3.992   0.618  0.00  0.00    +0.049 A 
ATOM     31  C   UNL     1      -0.022  -2.640   0.597  0.00  0.00    +0.049 A 
BRANCH  26  32
ATOM     32  O   UNL     1       0.067  -0.507   1.646  0.00  0.00    -0.492 OA
BRANCH  32  34
ATOM     33  C   UNL     1       0.080   1.723   2.577  0.00  0.00    +0.048 C 
ATOM     34  C   UNL     1       0.471   0.258   2.783  0.00  0.00    +0.225 C 
ENDBRANCH  32  34
ENDBRANCH  26  32
ENDBRANCH  25  29
ENDBRANCH  23  25
ENDBRANCH  19  23
ENDBRANCH   1  21
TORSDOF 8
