REMARK  Name = ZINC36589426
REMARK  17 active torsions:
REMARK  status: ('A' for Active; 'I' for Inactive)
REMARK    1  A    between atoms: C_1  and  C_2
REMARK    2  A    between atoms: C_2  and  C_3
REMARK    3  A    between atoms: C_3  and  C_4
REMARK    4  A    between atoms: N_6  and  C_7
REMARK    5  A    between atoms: N_6  and  C_25
REMARK    6  A    between atoms: C_7  and  C_9
REMARK    7  A    between atoms: C_7  and  C_18
REMARK    8  A    between atoms: C_10  and  O_17
REMARK    9  A    between atoms: C_12  and  O_16
REMARK   10  A    between atoms: C_14  and  O_15
REMARK   11  A    between atoms: N_20  and  C_21
REMARK   12  A    between atoms: C_21  and  C_22
REMARK   13  A    between atoms: C_21  and  C_23
REMARK   14  A    between atoms: C_21  and  C_24
REMARK   15  A    between atoms: C_25  and  C_26
REMARK   16  A    between atoms: C_25  and  C_27
REMARK   17  A    between atoms: C_25  and  C_28
REMARK                            x       y       z     vdW  Elec       q    Type
REMARK                         _______ _______ _______ _____ _____    ______ ____
ROOT
ATOM      1  C   UNL     1      -2.412  -4.862  -0.618  0.00  0.00    +0.200 C 
ENDROOT
BRANCH   1   2
ATOM      2  C   UNL     1      -3.610  -5.182   0.239  0.00  0.00    +0.065 A 
ATOM      3  C   UNL     1      -4.873  -4.766  -0.152  0.00  0.00    +0.129 A 
ATOM      4  C   UNL     1      -5.976  -5.061   0.636  0.00  0.00    +0.091 A 
ATOM      5  C   UNL     1      -5.814  -5.772   1.816  0.00  0.00    +0.124 A 
ATOM      6  C   UNL     1      -4.550  -6.188   2.207  0.00  0.00    +0.091 A 
ATOM      7  C   UNL     1      -3.449  -5.898   1.416  0.00  0.00    +0.129 A 
BRANCH   7   8
ATOM      8  O   UNL     1      -2.211  -6.310   1.797  0.00  0.00    -0.506 OA
ATOM      9  H   UNL     1      -1.738  -5.674   2.351  0.00  0.00    +0.292 HD
ENDBRANCH   7   8
BRANCH   5  10
ATOM     10  O   UNL     1      -6.894  -6.059   2.589  0.00  0.00    -0.507 OA
ATOM     11  H   UNL     1      -7.320  -6.900   2.372  0.00  0.00    +0.292 HD
ENDBRANCH   5  10
BRANCH   3  12
ATOM     12  O   UNL     1      -5.032  -4.070  -1.308  0.00  0.00    -0.506 OA
ATOM     13  H   UNL     1      -5.269  -4.618  -2.068  0.00  0.00    +0.292 HD
ENDBRANCH   3  12
ENDBRANCH   1   2
BRANCH   1  14
ATOM     14  C   UNL     1      -2.673  -5.310  -2.033  0.00  0.00    +0.239 C 
ATOM     15  O   UNL     1      -2.985  -4.498  -2.878  0.00  0.00    -0.273 OA
ATOM     16  N   UNL     1      -2.559  -6.612  -2.359  0.00  0.00    -0.309 N 
ATOM     17  H   UNL     1      -2.310  -7.262  -1.683  0.00  0.00    +0.149 HD
BRANCH  16  18
ATOM     18  C   UNL     1      -2.813  -7.048  -3.735  0.00  0.00    +0.026 C 
ATOM     19  C   UNL     1      -1.838  -6.343  -4.680  0.00  0.00    +0.031 C 
ATOM     20  C   UNL     1      -2.617  -8.562  -3.835  0.00  0.00    +0.031 C 
ATOM     21  C   UNL     1      -4.249  -6.692  -4.126  0.00  0.00    +0.031 C 
ENDBRANCH  16  18
ENDBRANCH   1  14
BRANCH   1  24
ATOM     22  C   UNL     1      -3.007  -2.603   0.073  0.00  0.00    +0.217 C 
ATOM     23  O   UNL     1      -3.881  -3.073   0.772  0.00  0.00    -0.276 OA
ATOM     24  N   UNL     1      -2.171  -3.417  -0.599  0.00  0.00    -0.281 N 
BRANCH  24  25
ATOM     25  C   UNL     1      -1.019  -2.858  -1.312  0.00  0.00    +0.030 C 
ATOM     26  C   UNL     1      -0.004  -2.322  -0.300  0.00  0.00    +0.031 C 
ATOM     27  C   UNL     1      -0.365  -3.950  -2.161  0.00  0.00    +0.031 C 
ATOM     28  C   UNL     1      -1.486  -1.717  -2.219  0.00  0.00    +0.031 C 
ENDBRANCH  24  25
BRANCH  22  29
ATOM     29  C   UNL     1      -2.858  -1.107  -0.042  0.00  0.00    +0.096 C 
BRANCH  29  31
ATOM     30  C   UNL     1      -3.601   1.094   0.877  0.00  0.00    +0.004 C 
ATOM     31  C   UNL     1      -3.753  -0.424   0.994  0.00  0.00    +0.006 C 
ENDBRANCH  29  31
ENDBRANCH  22  29
ENDBRANCH   1  24
TORSDOF 10
