REMARK  Name = ZINC66402024
REMARK  7 active torsions:
REMARK  status: ('A' for Active; 'I' for Inactive)
REMARK    1  A    between atoms: C_1  and  C_2
REMARK    2  A    between atoms: C_7  and  C_8
REMARK    3  A    between atoms: C_8  and  C_10
REMARK    4  A    between atoms: C_8  and  N_12
REMARK    5  A    between atoms: C_13  and  C_15
REMARK    6  A    between atoms: C_15  and  N_16
REMARK    7  A    between atoms: C_17  and  C_19
REMARK                            x       y       z     vdW  Elec       q    Type
REMARK                         _______ _______ _______ _____ _____    ______ ____
ROOT
ATOM      1  C   UNL     1       1.822  -1.083   5.691  0.00  0.00    +0.200 C 
ENDROOT
BRANCH   1   3
ATOM      2  N   UNL     1       0.630  -0.793   3.543  0.00  0.00    -0.295 N 
ATOM      3  C   UNL     1       1.199  -0.221   4.623  0.00  0.00    +0.231 C 
ATOM      4  O   UNL     1       1.211   0.986   4.735  0.00  0.00    -0.274 OA
ATOM      5  H   UNL     1       0.621  -1.758   3.453  0.00  0.00    +0.150 HD
BRANCH   2   6
ATOM      6  C   UNL     1       0.025   0.045   2.504  0.00  0.00    +0.207 C 
BRANCH   6  13
ATOM      7  C   UNL     1      -0.018   1.503   0.010  0.00  0.00    +0.044 C 
ATOM      8  C   UNL     1       0.002  -0.004   0.002  0.00  0.00    -0.045 A 
ATOM      9  C   UNL     1       0.006  -0.689  -1.199  0.00  0.00    +0.004 A 
ATOM     10  C   UNL     1       0.025  -2.071  -1.207  0.00  0.00    +0.000 A 
ATOM     11  C   UNL     1       0.040  -2.768  -0.013  0.00  0.00    +0.000 A 
ATOM     12  C   UNL     1       0.037  -2.084   1.188  0.00  0.00    +0.007 A 
ATOM     13  C   UNL     1       0.023  -0.702   1.195  0.00  0.00    -0.010 A 
ENDBRANCH   6  13
BRANCH   6  14
ATOM     14  C   UNL     1      -1.358   0.374   2.884  0.00  0.00    +0.090 C 
ATOM     15  N   UNL     1      -2.426   0.628   3.177  0.00  0.00    -0.194 NA
ENDBRANCH   6  14
ENDBRANCH   2   6
ENDBRANCH   1   3
BRANCH   1  16
ATOM     16  N   UNL     1       2.368  -0.230   6.750  0.00  0.00    -0.306 N 
ATOM     17  C   UNL     1       2.976  -0.786   7.816  0.00  0.00    +0.220 C 
ATOM     18  O   UNL     1       3.072  -1.992   7.899  0.00  0.00    -0.275 OA
ATOM     19  H   UNL     1       2.291   0.735   6.683  0.00  0.00    +0.149 HD
BRANCH  17  20
ATOM     20  C   UNL     1       3.538   0.092   8.905  0.00  0.00    +0.048 C 
ATOM     21  C   UNL     1       4.601   1.020   8.315  0.00  0.00    +0.019 C 
ATOM     22  C   UNL     1       5.171   1.911   9.421  0.00  0.00    -0.009 C 
ATOM     23  C   UNL     1       5.803   1.036  10.505  0.00  0.00    +0.007 C 
ATOM     24  C   UNL     1       4.740   0.108  11.095  0.00  0.00    -0.009 C 
ATOM     25  C   UNL     1       4.170  -0.783   9.990  0.00  0.00    +0.019 C 
ATOM     26  C   UNL     1       3.615   0.945  11.707  0.00  0.00    +0.007 C 
ATOM     27  C   UNL     1       2.983   1.820  10.622  0.00  0.00    -0.009 C 
ATOM     28  C   UNL     1       4.046   2.748  10.032  0.00  0.00    +0.007 C 
ATOM     29  C   UNL     1       2.413   0.929   9.517  0.00  0.00    +0.019 C 
ENDBRANCH  17  20
ENDBRANCH   1  16
TORSDOF 6
