REMARK  Name = ZINC05447815
REMARK  3 active torsions:
REMARK  status: ('A' for Active; 'I' for Inactive)
REMARK    1  A    between atoms: C_3  and  C_8
REMARK    2  A    between atoms: C_10  and  C_27
REMARK    3  A    between atoms: C_11  and  N_26
REMARK                            x       y       z     vdW  Elec       q    Type
REMARK                         _______ _______ _______ _____ _____    ______ ____
ROOT
ATOM      1  C   UNL     1       3.687   2.192   0.140  0.00  0.00    +0.097 C 
ATOM      2  C   UNL     1       4.246   1.719  -1.169  0.00  0.00    +0.077 C 
ATOM      3  C   UNL     1       5.303   0.867  -1.214  0.00  0.00    +0.109 C 
ATOM      4  N   UNL     1       5.887   0.429  -0.047  0.00  0.00    -0.228 N 
ATOM      5  C   UNL     1       5.704   1.118   1.124  0.00  0.00    +0.027 C 
ATOM      6  C   UNL     1       4.668   1.972   1.263  0.00  0.00    +0.025 C 
ATOM      7  C   UNL     1       4.472   2.680   2.462  0.00  0.00    +0.162 C 
ATOM      8  O   UNL     1       3.539   3.453   2.551  0.00  0.00    -0.292 OA
ATOM      9  C   UNL     1       5.396   2.499   3.635  0.00  0.00    +0.080 C 
ATOM     10  C   UNL     1       5.988   1.086   3.589  0.00  0.00    +0.014 C 
ATOM     11  C   UNL     1       6.690   0.901   2.245  0.00  0.00    +0.052 C 
ATOM     12  C   UNL     1       6.672  -0.729  -0.055  0.00  0.00    +0.246 A 
ATOM     13  N   UNL     1       7.026  -1.421  -1.142  0.00  0.00    -0.202 NA
ATOM     14  C   UNL     1       7.760  -2.447  -0.794  0.00  0.00    +0.217 A 
ATOM     15  N   UNL     1       7.894  -2.433   0.543  0.00  0.00    -0.264 N 
ATOM     16  H   UNL     1       8.386  -3.071   1.083  0.00  0.00    +0.190 HD
ATOM     17  N   UNL     1       7.188  -1.310   1.002  0.00  0.00    -0.136 NA
ENDROOT
BRANCH   1  20
ATOM     18  C   UNL     1       0.058   1.422   0.844  0.00  0.00    +0.001 A 
ATOM     19  C   UNL     1       1.223   2.116   0.572  0.00  0.00    +0.004 A 
ATOM     20  C   UNL     1       2.418   1.435   0.438  0.00  0.00    -0.034 A 
ATOM     21  C   UNL     1       2.450   0.060   0.575  0.00  0.00    +0.020 A 
ATOM     22  C   UNL     1       1.285  -0.634   0.848  0.00  0.00    +0.018 A 
ATOM     23  C   UNL     1       0.089   0.048   0.983  0.00  0.00    +0.015 A 
ATOM     24 BR   UNL     1       1.328  -2.515   1.036  0.00  0.00    -0.050 Br
ENDBRANCH   1  20
BRANCH   3  25
ATOM     25  N   UNL     1       5.790   0.442  -2.427  0.00  0.00    -0.345 N 
ATOM     26  H   UNL     1       5.379   0.750  -3.249  0.00  0.00    +0.144 HD
ATOM     27  H   UNL     1       6.545  -0.167  -2.460  0.00  0.00    +0.144 HD
ENDBRANCH   3  25
BRANCH   2  28
ATOM     28  C   UNL     1       3.655   2.173  -2.392  0.00  0.00    +0.099 C 
ATOM     29  N   UNL     1       3.187   2.534  -3.362  0.00  0.00    -0.191 NA
ENDBRANCH   2  28
TORSDOF 3
