REMARK  Name = ZINC65074642
REMARK  4 active torsions:
REMARK  status: ('A' for Active; 'I' for Inactive)
REMARK    1  A    between atoms: C_4  and  C_7
REMARK    2  A    between atoms: C_7  and  N_8
REMARK    3  A    between atoms: N_17  and  S_20
REMARK    4  A    between atoms: S_20  and  C_23
REMARK                            x       y       z     vdW  Elec       q    Type
REMARK                         _______ _______ _______ _____ _____    ______ ____
ROOT
ATOM      1  N   UNL     1       4.152  -0.952   1.338  0.00  0.00    -0.329 N 
ATOM      2  C   UNL     1       5.330  -1.611   1.573  0.00  0.00    +0.089 C 
ATOM      3  N   UNL     1       6.021  -1.992   0.566  0.00  0.00    -0.374 N 
ATOM      4  C   UNL     1       7.286  -2.711   0.675  0.00  0.00    +0.129 C 
ATOM      5  C   UNL     1       7.853  -2.564   2.089  0.00  0.00    +0.102 C 
ATOM      6  N   UNL     1       6.786  -2.879   3.055  0.00  0.00    -0.303 NA
ATOM      7  C   UNL     1       5.743  -1.841   2.999  0.00  0.00    +0.075 C 
ATOM      8  C   UNL     1       6.289  -0.538   3.590  0.00  0.00    +0.047 C 
ATOM      9  C   UNL     1       6.745  -0.787   5.030  0.00  0.00    +0.111 C 
ATOM     10  N   UNL     1       5.628  -1.369   5.787  0.00  0.00    -0.176 NA
ATOM     11  C   UNL     1       4.968  -2.571   5.259  0.00  0.00    +0.111 C 
ATOM     12  C   UNL     1       4.533  -2.302   3.815  0.00  0.00    +0.047 C 
ATOM     13  H   UNL     1       3.610  -0.648   2.082  0.00  0.00    +0.147 HD
ATOM     14  H   UNL     1       6.400  -3.795   2.881  0.00  0.00    +0.123 HD
ATOM     15  H   UNL     1       5.684  -1.793  -0.322  0.00  0.00    +0.161 HD
ENDROOT
BRANCH  10  16
ATOM     16  S   UNL     1       5.121  -0.683   7.206  0.00  0.00    +0.061 S 
ATOM     17  O   UNL     1       4.476  -1.710   7.946  0.00  0.00    -0.153 OA
ATOM     18  O   UNL     1       6.226   0.047   7.721  0.00  0.00    -0.153 OA
BRANCH  16  19
ATOM     19  C   UNL     1       3.881   0.501   6.800  0.00  0.00    +0.106 A 
ATOM     20  C   UNL     1       4.237   1.808   6.527  0.00  0.00    +0.031 A 
ATOM     21  C   UNL     1       3.265   2.737   6.207  0.00  0.00    +0.040 A 
ATOM     22  C   UNL     1       1.935   2.358   6.160  0.00  0.00    +0.124 A 
ATOM     23  C   UNL     1       1.579   1.048   6.434  0.00  0.00    +0.040 A 
ATOM     24  C   UNL     1       2.553   0.120   6.748  0.00  0.00    +0.031 A 
ATOM     25  F   UNL     1       0.984   3.266   5.849  0.00  0.00    -0.205 F 
ENDBRANCH  16  19
ENDBRANCH  10  16
BRANCH   1  26
ATOM     26  C   UNL     1       3.711  -0.707  -0.038  0.00  0.00    +0.138 C 
BRANCH  26  30
ATOM     27  C   UNL     1      -0.017   1.378   0.010  0.00  0.00    +0.000 A 
ATOM     28  C   UNL     1       1.171   2.086   0.002  0.00  0.00    +0.000 A 
ATOM     29  C   UNL     1       2.377   1.411  -0.013  0.00  0.00    +0.005 A 
ATOM     30  C   UNL     1       2.396   0.029  -0.020  0.00  0.00    -0.030 A 
ATOM     31  C   UNL     1       1.208  -0.679  -0.012  0.00  0.00    +0.005 A 
ATOM     32  C   UNL     1       0.002  -0.004   0.002  0.00  0.00    +0.000 A 
ENDBRANCH  26  30
ENDBRANCH   1  26
TORSDOF 4
