REMARK  Name = ZINC63312091
REMARK  12 active torsions:
REMARK  status: ('A' for Active; 'I' for Inactive)
REMARK    1  A    between atoms: C_1  and  C_2
REMARK    2  A    between atoms: C_2  and  N_3
REMARK    3  A    between atoms: C_7  and  C_9
REMARK    4  A    between atoms: C_9  and  C_10
REMARK    5  A    between atoms: C_9  and  N_11
REMARK    6  A    between atoms: N_11  and  C_12
REMARK    7  A    between atoms: C_17  and  O_18
REMARK    8  A    between atoms: O_18  and  C_19
REMARK    9  A    between atoms: C_19  and  C_20
REMARK   10  A    between atoms: C_20  and  O_21
REMARK   11  A    between atoms: O_21  and  C_22
REMARK   12  A    between atoms: C_22  and  C_23
REMARK                            x       y       z     vdW  Elec       q    Type
REMARK                         _______ _______ _______ _____ _____    ______ ____
ROOT
ATOM      1  N   UNL     1       2.397  -5.549   3.903  0.00  0.00    -0.330 N 
ATOM      2  H   UNL     1       2.323  -6.030   3.064  0.00  0.00    +0.147 HD
ENDROOT
BRANCH   1   3
ATOM      3  C   UNL     1       2.524  -6.253   5.106  0.00  0.00    +0.071 A 
ATOM      4  C   UNL     1       2.625  -5.567   6.307  0.00  0.00    +0.027 A 
ATOM      5  C   UNL     1       2.750  -6.264   7.494  0.00  0.00    +0.003 A 
ATOM      6  C   UNL     1       2.776  -7.647   7.488  0.00  0.00    +0.024 A 
ATOM      7  C   UNL     1       2.675  -8.339   6.293  0.00  0.00    +0.084 A 
ATOM      8  C   UNL     1       2.543  -7.646   5.100  0.00  0.00    +0.160 A 
ATOM      9 CL   UNL     1       2.709 -10.074   6.291  0.00  0.00    -0.080 Cl
BRANCH   8  10
ATOM     10  O   UNL     1       2.439  -8.325   3.926  0.00  0.00    -0.486 OA
BRANCH  10  11
ATOM     11  C   UNL     1       3.656  -8.630   3.243  0.00  0.00    +0.257 C 
BRANCH  11  12
ATOM     12  C   UNL     1       3.340  -9.390   1.953  0.00  0.00    +0.200 C 
BRANCH  12  13
ATOM     13  O   UNL     1       2.612  -8.539   1.065  0.00  0.00    -0.377 OA
BRANCH  13  14
ATOM     14  C   UNL     1       2.265  -9.155  -0.177  0.00  0.00    +0.156 C 
ATOM     15  C   UNL     1       1.493  -8.158  -1.043  0.00  0.00    +0.034 C 
ENDBRANCH  13  14
ENDBRANCH  12  13
ENDBRANCH  11  12
ENDBRANCH  10  11
ENDBRANCH   8  10
ENDBRANCH   1   3
BRANCH   1  16
ATOM     16  C   UNL     1       2.378  -4.084   3.911  0.00  0.00    +0.154 C 
ATOM     17  C   UNL     1       3.813  -3.554   3.900  0.00  0.00    +0.038 C 
BRANCH  16  22
ATOM     18  N   UNL     1       0.711  -0.489   1.189  0.00  0.00    -0.299 N 
ATOM     19  C   UNL     1       0.854  -1.814   1.394  0.00  0.00    +0.306 C 
ATOM     20  O   UNL     1       0.395  -2.606   0.594  0.00  0.00    -0.252 OA
ATOM     21  N   UNL     1       1.506  -2.260   2.486  0.00  0.00    -0.239 N 
ATOM     22  C   UNL     1       1.649  -3.585   2.690  0.00  0.00    +0.240 C 
ATOM     23  O   UNL     1       1.191  -4.374   1.893  0.00  0.00    -0.273 OA
ATOM     24  H   UNL     1       1.077   0.142   1.827  0.00  0.00    +0.150 HD
ATOM     25  H   UNL     1       1.872  -1.628   3.124  0.00  0.00    +0.159 HD
BRANCH  18  27
ATOM     26  C   UNL     1      -0.019   1.526   0.010  0.00  0.00    +0.024 C 
ATOM     27  C   UNL     1       0.002  -0.004   0.002  0.00  0.00    +0.102 C 
ENDBRANCH  18  27
ENDBRANCH  16  22
ENDBRANCH   1  16
TORSDOF 9
