REMARK  Name = ZINC35971411
REMARK  10 active torsions:
REMARK  status: ('A' for Active; 'I' for Inactive)
REMARK    1  A    between atoms: C_1  and  C_2
REMARK    2  A    between atoms: C_5  and  C_9
REMARK    3  A    between atoms: C_6  and  C_8
REMARK    4  A    between atoms: N_14  and  C_17
REMARK    5  A    between atoms: C_17  and  C_19
REMARK    6  A    between atoms: C_17  and  C_25
REMARK    7  A    between atoms: N_27  and  C_28
REMARK    8  A    between atoms: C_28  and  C_29
REMARK    9  A    between atoms: N_35  and  C_39
REMARK   10  A    between atoms: C_39  and  C_40
REMARK                            x       y       z     vdW  Elec       q    Type
REMARK                         _______ _______ _______ _____ _____    ______ ____
ROOT
ATOM      1  C   UNL     1      -0.585  -4.393   0.035  0.00  0.00    +0.142 C 
ATOM      2  C   UNL     1      -2.006  -4.811   0.358  0.00  0.00    +0.058 C 
ATOM      3  C   UNL     1      -2.643  -5.603  -0.528  0.00  0.00    +0.043 C 
ATOM      4  C   UNL     1      -4.021  -5.857   0.042  0.00  0.00    +0.160 C 
ATOM      5  N   UNL     1      -4.045  -5.120   1.314  0.00  0.00    -0.277 N 
ATOM      6  C   UNL     1      -2.846  -4.526   1.454  0.00  0.00    +0.247 C 
ATOM      7  O   UNL     1      -2.528  -3.833   2.403  0.00  0.00    -0.270 OA
ATOM      8  N   UNL     1      -2.030  -6.016  -1.677  0.00  0.00    -0.253 N 
ATOM      9  C   UNL     1      -0.778  -5.678  -2.011  0.00  0.00    +0.307 C 
ATOM     10  O   UNL     1      -0.316  -6.093  -3.056  0.00  0.00    -0.252 OA
ATOM     11  N   UNL     1      -0.015  -4.891  -1.228  0.00  0.00    -0.288 N 
ATOM     12  H   UNL     1       0.889  -4.658  -1.490  0.00  0.00    +0.151 HD
ENDROOT
BRANCH   1  17
ATOM     13  C   UNL     1      -0.409   1.381  -0.081  0.00  0.00    +0.044 C 
ATOM     14  C   UNL     1      -0.455  -0.124  -0.051  0.00  0.00    -0.050 A 
ATOM     15  C   UNL     1      -1.650  -0.784  -0.270  0.00  0.00    +0.004 A 
ATOM     16  C   UNL     1      -1.692  -2.165  -0.242  0.00  0.00    +0.006 A 
ATOM     17  C   UNL     1      -0.539  -2.887   0.004  0.00  0.00    -0.020 A 
ATOM     18  C   UNL     1       0.656  -2.228   0.222  0.00  0.00    -0.045 A 
ATOM     19  C   UNL     1       0.699  -0.846   0.190  0.00  0.00    +0.007 A 
ATOM     20  C   UNL     1       1.913  -3.015   0.491  0.00  0.00    +0.044 C 
ENDBRANCH   1  17
BRANCH   5  21
ATOM     21  C   UNL     1      -5.166  -5.047   2.255  0.00  0.00    +0.193 C 
BRANCH  21  22
ATOM     22  C   UNL     1      -4.784  -5.725   3.545  0.00  0.00    -0.018 A 
ATOM     23  C   UNL     1      -4.149  -6.953   3.520  0.00  0.00    +0.006 A 
ATOM     24  C   UNL     1      -3.799  -7.575   4.704  0.00  0.00    +0.000 A 
ATOM     25  C   UNL     1      -4.082  -6.968   5.913  0.00  0.00    +0.000 A 
ATOM     26  C   UNL     1      -4.716  -5.740   5.939  0.00  0.00    +0.000 A 
ATOM     27  C   UNL     1      -5.063  -5.116   4.755  0.00  0.00    +0.006 A 
ENDBRANCH  21  22
BRANCH  21  28
ATOM     28  C   UNL     1      -6.366  -5.738   1.661  0.00  0.00    +0.238 C 
ATOM     29  O   UNL     1      -6.292  -6.242   0.560  0.00  0.00    -0.273 OA
ATOM     30  N   UNL     1      -7.521  -5.796   2.352  0.00  0.00    -0.311 N 
ATOM     31  H   UNL     1      -7.580  -5.393   3.232  0.00  0.00    +0.149 HD
BRANCH  30  32
ATOM     32  C   UNL     1      -8.688  -6.468   1.775  0.00  0.00    +0.135 C 
BRANCH  32  33
ATOM     33  C   UNL     1      -9.859  -6.392   2.757  0.00  0.00    +0.135 C 
ATOM     34  C   UNL     1     -11.055  -7.200   2.210  0.00  0.00    +0.035 C 
ATOM     35  C   UNL     1     -12.263  -6.306   2.600  0.00  0.00    +0.031 C 
ATOM     36  C   UNL     1     -11.643  -4.893   2.453  0.00  0.00    +0.160 C 
ATOM     37  O   UNL     1     -10.283  -5.031   2.902  0.00  0.00    -0.375 OA
ENDBRANCH  32  33
ENDBRANCH  30  32
ENDBRANCH  21  28
ENDBRANCH   5  21
BRANCH   8  38
ATOM     38  C   UNL     1      -2.784  -6.876  -2.593  0.00  0.00    +0.141 C 
BRANCH  38  39
ATOM     39  C   UNL     1      -3.534  -6.021  -3.582  0.00  0.00    -0.015 C 
ATOM     40  C   UNL     1      -3.371  -6.211  -4.868  0.00  0.00    +0.005 C 
ENDBRANCH  38  39
ENDBRANCH   8  38
TORSDOF 8
