REMARK  Name = ZINC66250906
REMARK  7 active torsions:
REMARK  status: ('A' for Active; 'I' for Inactive)
REMARK    1  A    between atoms: C_1  and  C_2
REMARK    2  A    between atoms: C_4  and  S_8
REMARK    3  A    between atoms: N_6  and  C_7
REMARK    4  A    between atoms: S_8  and  N_11
REMARK    5  A    between atoms: N_11  and  C_12
REMARK    6  A    between atoms: C_14  and  C_17
REMARK    7  A    between atoms: C_19  and  C_23
REMARK                            x       y       z     vdW  Elec       q    Type
REMARK                         _______ _______ _______ _____ _____    ______ ____
ROOT
ATOM      1  C   UNL     1       1.946  -4.863  -2.914  0.00  0.00    +0.202 A 
ATOM      2  N   UNL     1       3.138  -5.296  -3.263  0.00  0.00    -0.222 NA
ATOM      3  C   UNL     1       3.277  -6.336  -4.076  0.00  0.00    +0.082 A 
ATOM      4  C   UNL     1       2.128  -6.922  -4.524  0.00  0.00    +0.077 A 
ATOM      5  S   UNL     1       0.900  -5.910  -3.714  0.00  0.00    -0.057 S 
ENDROOT
BRANCH   3   6
ATOM      6  C   UNL     1       4.617  -6.836  -4.479  0.00  0.00    +0.019 A 
ATOM      7  C   UNL     1       5.857  -6.376  -3.998  0.00  0.00    +0.042 A 
ATOM      8  C   UNL     1       6.829  -7.103  -4.627  0.00  0.00    +0.102 A 
ATOM      9  N   UNL     1       6.212  -7.992  -5.478  0.00  0.00    -0.356 N 
ATOM     10  H   UNL     1       6.663  -8.632  -6.050  0.00  0.00    +0.165 HD
ATOM     11  C   UNL     1       4.869  -7.831  -5.380  0.00  0.00    +0.093 A 
BRANCH   8  12
ATOM     12  C   UNL     1       8.276  -6.960  -4.431  0.00  0.00    +0.258 C 
ATOM     13  O   UNL     1       8.704  -6.134  -3.647  0.00  0.00    -0.269 OA
ATOM     14  N   UNL     1       9.130  -7.744  -5.118  0.00  0.00    -0.324 N 
ATOM     15  H   UNL     1       8.788  -8.402  -5.743  0.00  0.00    +0.145 HD
ATOM     16  H   UNL     1      10.086  -7.649  -4.988  0.00  0.00    +0.145 HD
ENDBRANCH   8  12
ENDBRANCH   3   6
BRANCH   1  17
ATOM     17  N   UNL     1       1.628  -3.801  -2.082  0.00  0.00    -0.069 NA
BRANCH  17  18
ATOM     18  S   UNL     1       0.042  -3.437  -1.774  0.00  0.00    +0.110 S 
ATOM     19  O   UNL     1      -0.490  -4.530  -1.039  0.00  0.00    -0.147 OA
ATOM     20  O   UNL     1      -0.520  -3.000  -3.004  0.00  0.00    -0.147 OA
BRANCH  18  24
ATOM     21  C   UNL     1      -0.018   1.503   0.010  0.00  0.00    +0.084 C 
ATOM     22  C   UNL     1       0.002  -0.004   0.002  0.00  0.00    +0.085 A 
ATOM     23  N   UNL     1       0.008  -0.759  -1.063  0.00  0.00    -0.328 N 
ATOM     24  C   UNL     1       0.028  -2.047  -0.691  0.00  0.00    +0.195 A 
ATOM     25  C   UNL     1       0.034  -2.093   0.655  0.00  0.00    +0.134 A 
ATOM     26  N   UNL     1       0.023  -0.797   1.095  0.00  0.00    -0.337 N 
ATOM     27  C   UNL     1       0.030  -0.353   2.491  0.00  0.00    +0.150 C 
ATOM     28  H   UNL     1      -0.000  -0.438  -1.978  0.00  0.00    +0.168 HD
ENDBRANCH  18  24
ENDBRANCH  17  18
ENDBRANCH   1  17
TORSDOF 5
