REMARK  Name = ZINC62427964
REMARK  7 active torsions:
REMARK  status: ('A' for Active; 'I' for Inactive)
REMARK    1  A    between atoms: C_1  and  C_2
REMARK    2  A    between atoms: C_3  and  C_17
REMARK    3  A    between atoms: C_8  and  C_14
REMARK    4  A    between atoms: C_9  and  C_12
REMARK    5  A    between atoms: C_12  and  N_13
REMARK    6  A    between atoms: C_14  and  O_15
REMARK    7  A    between atoms: O_15  and  C_16
REMARK                            x       y       z     vdW  Elec       q    Type
REMARK                         _______ _______ _______ _____ _____    ______ ____
ROOT
ATOM      1  C   UNL     1      -0.018   1.503   0.010  0.00  0.00    +0.066 C 
ATOM      2  C   UNL     1       0.002  -0.004   0.002  0.00  0.00    +0.051 A 
ATOM      3  C   UNL     1       0.006  -0.707  -1.159  0.00  0.00    +0.011 A 
ATOM      4  S   UNL     1       0.032  -2.379  -0.534  0.00  0.00    -0.053 S 
ATOM      5  C   UNL     1       0.036  -2.014   1.108  0.00  0.00    +0.196 A 
ATOM      6  N   UNL     1       0.023  -0.699   1.123  0.00  0.00    -0.226 NA
ATOM      7  N   UNL     1       0.054  -2.892   2.192  0.00  0.00    -0.190 N 
ATOM      8  C   UNL     1       0.050  -2.560   3.514  0.00  0.00    +0.094 A 
ATOM      9  C   UNL     1       0.072  -3.718   4.207  0.00  0.00    +0.071 A 
ATOM     10  N   UNL     1       0.089  -4.738   3.347  0.00  0.00    -0.136 NA
ATOM     11  N   UNL     1       0.072  -4.294   2.139  0.00  0.00    -0.058 NA
ATOM     12  C   UNL     1      -0.009  -0.212  -2.582  0.00  0.00    +0.053 C 
ENDROOT
BRANCH   9  13
ATOM     13  C   UNL     1       0.078  -3.840   5.709  0.00  0.00    -0.026 C 
BRANCH  13  14
ATOM     14  N   UNL     1      -1.305  -3.904   6.200  0.00  0.00    +0.382 N 
ATOM     15  H   UNL     1      -1.796  -3.064   5.933  0.00  0.00    -0.090 HD
ATOM     16  H   UNL     1      -1.767  -4.706   5.800  0.00  0.00    -0.090 HD
ATOM     17  H   UNL     1      -1.301  -3.985   7.206  0.00  0.00    -0.090 HD
ENDBRANCH  13  14
ENDBRANCH   9  13
BRANCH   8  18
ATOM     18  C   UNL     1       0.027  -1.168   4.091  0.00  0.00    +0.216 C 
BRANCH  18  19
ATOM     19  O   UNL     1      -1.327  -0.752   4.277  0.00  0.00    -0.377 OA
ATOM     20  C   UNL     1      -1.462   0.562   4.823  0.00  0.00    +0.194 C 
ENDBRANCH  18  19
ENDBRANCH   8  18
TORSDOF 4
