REMARK  Name = ZINC38545704
REMARK  11 active torsions:
REMARK  status: ('A' for Active; 'I' for Inactive)
REMARK    1  A    between atoms: C_1  and  C_2
REMARK    2  A    between atoms: C_3  and  C_32
REMARK    3  A    between atoms: C_4  and  C_8
REMARK    4  A    between atoms: C_11  and  O_15
REMARK    5  A    between atoms: C_13  and  O_14
REMARK    6  A    between atoms: O_15  and  C_16
REMARK    7  A    between atoms: C_18  and  O_31
REMARK    8  A    between atoms: C_20  and  O_30
REMARK    9  A    between atoms: C_22  and  O_29
REMARK   10  A    between atoms: C_24  and  C_27
REMARK   11  A    between atoms: C_27  and  O_28
REMARK                            x       y       z     vdW  Elec       q    Type
REMARK                         _______ _______ _______ _____ _____    ______ ____
ROOT
ATOM      1  C   UNL     1      -0.966  -2.939  -1.248  0.00  0.00    +0.022 A 
ATOM      2  C   UNL     1      -0.098  -3.061  -2.316  0.00  0.00    +0.013 A 
ATOM      3  C   UNL     1      -0.490  -3.739  -3.454  0.00  0.00    +0.046 A 
ATOM      4  C   UNL     1      -1.758  -4.298  -3.528  0.00  0.00    +0.127 A 
ATOM      5  C   UNL     1      -2.631  -4.177  -2.458  0.00  0.00    +0.091 A 
ATOM      6  C   UNL     1      -2.232  -3.502  -1.314  0.00  0.00    +0.126 A 
ENDROOT
BRANCH   1  10
ATOM      7  C   UNL     1      -0.018   1.503   0.010  0.00  0.00    +0.068 C 
ATOM      8  C   UNL     1       0.002  -0.004   0.002  0.00  0.00    +0.064 C 
ATOM      9  C   UNL     1      -1.101  -0.791   0.003  0.00  0.00    +0.011 C 
ATOM     10  C   UNL     1      -0.535  -2.200  -0.007  0.00  0.00    +0.164 C 
ATOM     11  N   UNL     1       0.920  -1.969  -0.013  0.00  0.00    -0.297 N 
ATOM     12  N   UNL     1       1.112  -0.751  -0.013  0.00  0.00    -0.182 NA
ATOM     13  H   UNL     1       1.606  -2.654  -0.020  0.00  0.00    +0.183 HD
BRANCH   9  14
ATOM     14  C   UNL     1      -2.512  -0.378   0.012  0.00  0.00    -0.014 A 
ATOM     15  C   UNL     1      -3.323  -0.672   1.114  0.00  0.00    +0.012 A 
ATOM     16  C   UNL     1      -4.644  -0.284   1.119  0.00  0.00    +0.050 A 
ATOM     17  C   UNL     1      -5.178   0.399   0.032  0.00  0.00    +0.162 A 
ATOM     18  C   UNL     1      -4.377   0.698  -1.067  0.00  0.00    +0.163 A 
ATOM     19  C   UNL     1      -3.048   0.316  -1.078  0.00  0.00    +0.057 A 
ATOM     20  O   UNL     1      -4.883   1.374  -2.135  0.00  0.00    -0.485 OA
ATOM     21  C   UNL     1      -6.310   1.420  -2.249  0.00  0.00    +0.270 C 
ATOM     22  C   UNL     1      -6.891   1.776  -0.875  0.00  0.00    +0.270 C 
ATOM     23  O   UNL     1      -6.487   0.768   0.058  0.00  0.00    -0.485 OA
ENDBRANCH   9  14
ENDBRANCH   1  10
BRANCH   6  24
ATOM     24  O   UNL     1      -3.084  -3.387  -0.261  0.00  0.00    -0.506 OA
ATOM     25  H   UNL     1      -3.647  -2.602  -0.294  0.00  0.00    +0.292 HD
ENDBRANCH   6  24
BRANCH   4  26
ATOM     26  O   UNL     1      -2.143  -4.964  -4.648  0.00  0.00    -0.461 OA
BRANCH  26  27
ATOM     27  C   UNL     1      -1.193  -5.049  -5.712  0.00  0.00    +0.339 C 
ATOM     28  C   UNL     1      -1.876  -5.604  -6.964  0.00  0.00    +0.214 C 
ATOM     29  C   UNL     1      -0.838  -5.749  -8.081  0.00  0.00    +0.180 C 
ATOM     30  C   UNL     1       0.300  -6.650  -7.592  0.00  0.00    +0.177 C 
ATOM     31  C   UNL     1       0.899  -6.054  -6.315  0.00  0.00    +0.179 C 
ATOM     32  O   UNL     1      -0.125  -5.918  -5.328  0.00  0.00    -0.331 OA
BRANCH  30  33
ATOM     33  O   UNL     1      -0.210  -7.957  -7.317  0.00  0.00    -0.386 OA
ATOM     34  H   UNL     1      -0.609  -8.392  -8.082  0.00  0.00    +0.210 HD
ENDBRANCH  30  33
BRANCH  29  35
ATOM     35  O   UNL     1      -1.452  -6.334  -9.231  0.00  0.00    -0.386 OA
ATOM     36  H   UNL     1      -2.187  -5.817  -9.591  0.00  0.00    +0.210 HD
ENDBRANCH  29  35
BRANCH  28  37
ATOM     37  O   UNL     1      -2.445  -6.882  -6.671  0.00  0.00    -0.383 OA
ATOM     38  H   UNL     1      -3.109  -6.865  -5.968  0.00  0.00    +0.210 HD
ENDBRANCH  28  37
BRANCH  31  39
ATOM     39  C   UNL     1       1.997  -6.980  -5.787  0.00  0.00    +0.190 C 
BRANCH  39  40
ATOM     40  O   UNL     1       2.635  -6.369  -4.663  0.00  0.00    -0.392 OA
ATOM     41  H   UNL     1       3.344  -6.901  -4.276  0.00  0.00    +0.210 HD
ENDBRANCH  39  40
ENDBRANCH  31  39
ENDBRANCH  26  27
ENDBRANCH   4  26
TORSDOF 10
