REMARK  Name = ZINC17066383
REMARK  7 active torsions:
REMARK  status: ('A' for Active; 'I' for Inactive)
REMARK    1  A    between atoms: C_1  and  C_2
REMARK    2  A    between atoms: C_10  and  C_11
REMARK    3  A    between atoms: N_13  and  N_14
REMARK    4  A    between atoms: C_15  and  C_16
REMARK    5  A    between atoms: C_15  and  C_17
REMARK    6  A    between atoms: C_19  and  O_24
REMARK    7  A    between atoms: C_22  and  O_23
REMARK                            x       y       z     vdW  Elec       q    Type
REMARK                         _______ _______ _______ _____ _____    ______ ____
ROOT
ATOM      1  C   UNL     1       0.032  -0.383   2.483  0.00  0.00    +0.299 C 
ATOM      2  O   UNL     1       0.018   0.806   2.745  0.00  0.00    -0.265 OA
ATOM      3  N   UNL     1       0.054  -1.291   3.478  0.00  0.00    -0.200 N 
ATOM      4  H   UNL     1       0.065  -2.239   3.270  0.00  0.00    +0.178 HD
ENDROOT
BRANCH   1  14
ATOM      5  C   UNL     1      -0.018   1.503   0.010  0.00  0.00    +0.048 C 
ATOM      6  C   UNL     1       0.002  -0.004   0.002  0.00  0.00    +0.008 A 
ATOM      7  C   UNL     1       0.009  -0.877  -1.171  0.00  0.00    +0.024 A 
ATOM      8  C   UNL     1      -0.001  -0.654  -2.550  0.00  0.00    +0.012 A 
ATOM      9  C   UNL     1       0.009  -1.718  -3.408  0.00  0.00    +0.001 A 
ATOM     10  C   UNL     1       0.029  -3.017  -2.918  0.00  0.00    +0.004 A 
ATOM     11  C   UNL     1       0.039  -3.257  -1.561  0.00  0.00    +0.047 A 
ATOM     12  C   UNL     1       0.029  -2.191  -0.669  0.00  0.00    +0.136 A 
ATOM     13  O   UNL     1       0.034  -2.113   0.676  0.00  0.00    -0.450 OA
ATOM     14  C   UNL     1       0.024  -0.827   1.083  0.00  0.00    +0.195 A 
ENDBRANCH   1  14
BRANCH   3  15
ATOM     15  N   UNL     1       0.062  -0.868   4.814  0.00  0.00    -0.184 NA
ATOM     16  C   UNL     1       0.083  -1.744   5.772  0.00  0.00    +0.067 C 
ATOM     17  C   UNL     1       0.100  -3.215   5.449  0.00  0.00    +0.068 C 
BRANCH  16  18
ATOM     18  C   UNL     1       0.091  -1.298   7.177  0.00  0.00    +0.042 A 
ATOM     19  C   UNL     1       0.120  -2.237   8.211  0.00  0.00    +0.058 A 
ATOM     20  C   UNL     1       0.128  -1.811   9.527  0.00  0.00    +0.118 A 
ATOM     21  C   UNL     1       0.106  -0.454   9.822  0.00  0.00    +0.049 A 
ATOM     22  C   UNL     1       0.077   0.480   8.805  0.00  0.00    +0.049 A 
ATOM     23  C   UNL     1       0.075   0.070   7.482  0.00  0.00    +0.126 A 
BRANCH  23  24
ATOM     24  O   UNL     1       0.053   0.990   6.483  0.00  0.00    -0.506 OA
ATOM     25  H   UNL     1      -0.837   1.245   6.202  0.00  0.00    +0.292 HD
ENDBRANCH  23  24
BRANCH  20  26
ATOM     26  O   UNL     1       0.156  -2.724  10.535  0.00  0.00    -0.507 OA
ATOM     27  H   UNL     1       1.047  -2.972  10.816  0.00  0.00    +0.292 HD
ENDBRANCH  20  26
ENDBRANCH  16  18
ENDBRANCH   3  15
TORSDOF 5
