REMARK  Name = ZINC48179293
REMARK  11 active torsions:
REMARK  status: ('A' for Active; 'I' for Inactive)
REMARK    1  A    between atoms: C_1  and  C_2
REMARK    2  A    between atoms: C_4  and  C_22
REMARK    3  A    between atoms: C_7  and  N_8
REMARK    4  A    between atoms: N_11  and  C_12
REMARK    5  A    between atoms: C_12  and  C_13
REMARK    6  A    between atoms: C_13  and  C_14
REMARK    7  A    between atoms: C_14  and  N_15
REMARK    8  A    between atoms: N_15  and  C_16
REMARK    9  A    between atoms: N_15  and  C_17
REMARK   10  A    between atoms: C_17  and  C_18
REMARK   11  A    between atoms: N_24  and  C_25
REMARK                            x       y       z     vdW  Elec       q    Type
REMARK                         _______ _______ _______ _____ _____    ______ ____
ROOT
ATOM      1  N   UNL     1      -1.438   1.676   2.542  0.00  0.00    -0.269 N 
ATOM      2  C   UNL     1      -1.270   0.754   3.512  0.00  0.00    +0.304 C 
ATOM      3  O   UNL     1      -1.165  -0.422   3.221  0.00  0.00    -0.253 OA
ATOM      4  N   UNL     1      -1.216   1.137   4.803  0.00  0.00    -0.299 N 
ATOM      5  H   UNL     1      -1.455   2.619   2.768  0.00  0.00    +0.156 HD
ATOM      6  H   UNL     1      -1.299   2.075   5.035  0.00  0.00    +0.150 HD
ENDROOT
BRANCH   1  13
ATOM      7  C   UNL     1      -3.135   3.219   0.866  0.00  0.00    +0.045 C 
ATOM      8  C   UNL     1      -2.410   1.999   0.359  0.00  0.00    -0.028 A 
ATOM      9  C   UNL     1      -2.557   1.607  -0.952  0.00  0.00    +0.018 A 
ATOM     10  C   UNL     1      -1.884   0.475  -1.421  0.00  0.00    +0.037 A 
ATOM     11  C   UNL     1      -1.064  -0.255  -0.556  0.00  0.00    +0.015 A 
ATOM     12  C   UNL     1      -0.922   0.142   0.754  0.00  0.00    +0.024 A 
ATOM     13  C   UNL     1      -1.589   1.273   1.216  0.00  0.00    +0.038 A 
BRANCH  10  14
ATOM     14  C   UNL     1      -2.039   0.052  -2.826  0.00  0.00    +0.244 C 
ATOM     15  O   UNL     1      -2.753   0.688  -3.578  0.00  0.00    -0.270 OA
ATOM     16  N   UNL     1      -1.390  -1.040  -3.277  0.00  0.00    -0.314 N 
ATOM     17  C   UNL     1      -1.544  -1.460  -4.672  0.00  0.00    +0.128 C 
ATOM     18  H   UNL     1      -0.820  -1.547  -2.678  0.00  0.00    +0.149 HD
ENDBRANCH  10  14
ENDBRANCH   1  13
BRANCH   4  19
ATOM     19  C   UNL     1      -1.033   0.135   5.856  0.00  0.00    +0.104 C 
BRANCH  19  20
ATOM     20  C   UNL     1      -1.008   0.828   7.220  0.00  0.00    +0.000 C 
BRANCH  20  21
ATOM     21  C   UNL     1      -0.816  -0.217   8.320  0.00  0.00    -0.077 C 
BRANCH  21  22
ATOM     22  N   UNL     1      -0.792   0.448   9.630  0.00  0.00    +0.384 N 
ATOM     23  C   UNL     1       0.387   1.321   9.714  0.00  0.00    -0.096 C 
ATOM     24  H   UNL     1      -1.628   1.001   9.742  0.00  0.00    -0.082 HD
BRANCH  22  25
ATOM     25  C   UNL     1      -0.728  -0.564  10.692  0.00  0.00    +0.036 C 
BRANCH  25  26
ATOM     26  C   UNL     1      -0.848   0.119  12.056  0.00  0.00    +0.376 C 
ATOM     27  F   UNL     1      -2.008   0.902  12.085  0.00  0.00    -0.173 F 
ATOM     28  F   UNL     1      -0.916  -0.852  13.060  0.00  0.00    -0.173 F 
ATOM     29  F   UNL     1       0.269   0.933  12.269  0.00  0.00    -0.173 F 
ENDBRANCH  25  26
ENDBRANCH  22  25
ENDBRANCH  21  22
ENDBRANCH  20  21
ENDBRANCH  19  20
ENDBRANCH   4  19
TORSDOF 8
