REMARK  Name = ZINC13555328
REMARK  10 active torsions:
REMARK  status: ('A' for Active; 'I' for Inactive)
REMARK    1  A    between atoms: C_1  and  C_2
REMARK    2  A    between atoms: C_2  and  C_3
REMARK    3  A    between atoms: C_3  and  C_5
REMARK    4  A    between atoms: C_3  and  C_6
REMARK    5  A    between atoms: C_6  and  C_8
REMARK    6  A    between atoms: C_6  and  N_12
REMARK    7  A    between atoms: C_8  and  O_10
REMARK    8  A    between atoms: O_10  and  C_11
REMARK    9  A    between atoms: C_17  and  C_24
REMARK   10  A    between atoms: C_20  and  C_23
REMARK                            x       y       z     vdW  Elec       q    Type
REMARK                         _______ _______ _______ _____ _____    ______ ____
ROOT
ATOM      1  N   UNL     1       2.628   4.009  -0.002  0.00  0.00    -0.286 N 
ATOM      2  C   UNL     1       3.312   4.110   1.155  0.00  0.00    +0.303 C 
ATOM      3  O   UNL     1       2.744   3.929   2.215  0.00  0.00    -0.253 OA
ATOM      4  N   UNL     1       4.626   4.412   1.138  0.00  0.00    -0.285 N 
ATOM      5  C   UNL     1       5.410   4.413   2.380  0.00  0.00    +0.112 C 
ATOM      6  C   UNL     1       6.120   5.764   2.514  0.00  0.00    +0.004 C 
ATOM      7  C   UNL     1       6.942   6.031   1.251  0.00  0.00    +0.009 C 
ATOM      8  C   UNL     1       6.011   6.092   0.037  0.00  0.00    +0.004 C 
ATOM      9  C   UNL     1       5.302   4.739  -0.125  0.00  0.00    +0.112 C 
ATOM     10  C   UNL     1       6.830   6.391  -1.220  0.00  0.00    +0.009 C 
ATOM     11  C   UNL     1       7.046   5.737   3.731  0.00  0.00    +0.009 C 
ATOM     12  H   UNL     1       3.063   4.224  -0.842  0.00  0.00    +0.151 HD
ENDROOT
BRANCH   1  13
ATOM     13  C   UNL     1       1.229   3.575   0.010  0.00  0.00    +0.186 C 
BRANCH  13  14
ATOM     14  C   UNL     1       0.518   4.114  -1.232  0.00  0.00    +0.017 C 
ATOM     15  C   UNL     1       1.128   3.482  -2.485  0.00  0.00    +0.010 C 
BRANCH  14  17
ATOM     16  C   UNL     1      -1.704   4.413  -2.337  0.00  0.00    +0.004 C 
ATOM     17  C   UNL     1      -0.971   3.767  -1.159  0.00  0.00    +0.002 C 
ENDBRANCH  14  17
ENDBRANCH  13  14
BRANCH  13  18
ATOM     18  C   UNL     1       1.171   2.069   0.008  0.00  0.00    +0.328 C 
ATOM     19  O   UNL     1       2.193   1.425  -0.002  0.00  0.00    -0.249 OA
BRANCH  18  20
ATOM     20  O   UNL     1      -0.017   1.444   0.017  0.00  0.00    -0.467 OA
ATOM     21  C   UNL     1       0.003  -0.008   0.015  0.00  0.00    +0.280 C 
ENDBRANCH  18  20
ENDBRANCH  13  18
ENDBRANCH   1  13
TORSDOF 5
