REMARK  Name = ZINC60861820
REMARK  4 active torsions:
REMARK  status: ('A' for Active; 'I' for Inactive)
REMARK    1  A    between atoms: C_1  and  N_2
REMARK    2  A    between atoms: C_6  and  N_7
REMARK    3  A    between atoms: N_7  and  C_8
REMARK    4  A    between atoms: N_18  and  C_21
REMARK                            x       y       z     vdW  Elec       q    Type
REMARK                         _______ _______ _______ _____ _____    ______ ____
ROOT
ATOM      1  C   UNL     1      -0.348   1.420   0.055  0.00  0.00    +0.143 C 
ATOM      2  N   UNL     1      -0.382  -0.044   0.015  0.00  0.00    -0.224 N 
ATOM      3  C   UNL     1      -0.154  -0.677  -1.155  0.00  0.00    +0.260 C 
ATOM      4  O   UNL     1       0.077  -0.048  -2.170  0.00  0.00    -0.269 OA
ATOM      5  C   UNL     1      -0.193  -2.150  -1.169  0.00  0.00    +0.113 C 
ATOM      6  C   UNL     1       0.030  -2.866  -2.330  0.00  0.00    +0.086 C 
ATOM      7  C   UNL     1      -0.481  -2.826   0.109  0.00  0.00    +0.260 C 
ATOM      8  O   UNL     1      -0.529  -4.040   0.176  0.00  0.00    -0.269 OA
ATOM      9  N   UNL     1      -0.688  -2.063   1.201  0.00  0.00    -0.224 N 
ATOM     10  C   UNL     1      -0.632  -0.725   1.142  0.00  0.00    +0.317 C 
ATOM     11  O   UNL     1      -0.823  -0.095   2.164  0.00  0.00    -0.252 OA
ATOM     12  C   UNL     1      -0.976  -2.711   2.483  0.00  0.00    +0.143 C 
ENDROOT
BRANCH   6  13
ATOM     13  N   UNL     1       0.150  -4.208  -2.282  0.00  0.00    -0.346 N 
ATOM     14  H   UNL     1       0.161  -4.664  -1.425  0.00  0.00    +0.146 HD
BRANCH  13  15
ATOM     15  C   UNL     1       0.266  -4.979  -3.522  0.00  0.00    +0.070 C 
ATOM     16  C   UNL     1      -1.131  -5.271  -4.073  0.00  0.00    +0.022 C 
ATOM     17  C   UNL     1      -1.022  -5.711  -5.534  0.00  0.00    +0.002 C 
ATOM     18  C   UNL     1      -0.038  -4.799  -6.270  0.00  0.00    +0.000 C 
ATOM     19  C   UNL     1       1.202  -5.602  -6.668  0.00  0.00    +0.000 C 
ATOM     20  C   UNL     1       2.081  -5.826  -5.435  0.00  0.00    +0.000 C 
ATOM     21  C   UNL     1       1.461  -6.913  -4.557  0.00  0.00    +0.002 C 
ATOM     22  C   UNL     1       0.988  -6.297  -3.239  0.00  0.00    +0.022 C 
ENDBRANCH  13  15
ENDBRANCH   6  13
TORSDOF 2
