REMARK  Name = ZINC37802644
REMARK  7 active torsions:
REMARK  status: ('A' for Active; 'I' for Inactive)
REMARK    1  A    between atoms: C_1  and  C_2
REMARK    2  A    between atoms: C_5  and  C_7
REMARK    3  A    between atoms: C_10  and  C_12
REMARK    4  A    between atoms: C_12  and  N_13
REMARK    5  A    between atoms: N_13  and  C_14
REMARK    6  A    between atoms: C_15  and  C_17
REMARK    7  A    between atoms: C_17  and  N_23
REMARK                            x       y       z     vdW  Elec       q    Type
REMARK                         _______ _______ _______ _____ _____    ______ ____
ROOT
ATOM      1  N   UNL     1       1.215   4.295   4.555  0.00  0.00    -0.298 N 
ATOM      2  C   UNL     1       0.058   5.063   4.092  0.00  0.00    +0.132 C 
ATOM      3  C   UNL     1       2.462   4.764   4.350  0.00  0.00    +0.204 C 
ATOM      4  O   UNL     1       3.422   4.090   4.658  0.00  0.00    -0.277 OA
ENDROOT
BRANCH   3   5
ATOM      5  C   UNL     1       2.663   6.126   3.737  0.00  0.00    +0.007 C 
ATOM      6  C   UNL     1       4.138   6.518   3.837  0.00  0.00    -0.004 C 
ATOM      7  C   UNL     1       4.558   6.554   5.309  0.00  0.00    -0.001 C 
ATOM      8  C   UNL     1       3.705   7.580   6.057  0.00  0.00    -0.000 C 
ATOM      9  C   UNL     1       2.229   7.189   5.956  0.00  0.00    -0.001 C 
ATOM     10  C   UNL     1       1.810   7.153   4.485  0.00  0.00    -0.004 C 
BRANCH   5  11
ATOM     11  N   UNL     1       2.260   6.091   2.325  0.00  0.00    +0.388 N 
ATOM     12  H   UNL     1       1.332   5.705   2.249  0.00  0.00    -0.089 HD
ATOM     13  H   UNL     1       2.266   7.029   1.950  0.00  0.00    -0.089 HD
ATOM     14  H   UNL     1       2.908   5.518   1.804  0.00  0.00    -0.089 HD
ENDBRANCH   5  11
ENDBRANCH   3   5
BRANCH   1  15
ATOM     15  C   UNL     1       1.018   3.016   5.242  0.00  0.00    +0.181 C 
BRANCH  15  19
ATOM     16  C   UNL     1       0.270   0.435   2.771  0.00  0.00    +0.109 A 
ATOM     17  C   UNL     1       1.600   0.261   2.865  0.00  0.00    +0.045 A 
ATOM     18  C   UNL     1       2.071   1.205   3.806  0.00  0.00    +0.046 A 
ATOM     19  C   UNL     1       1.000   1.899   4.230  0.00  0.00    +0.122 A 
ATOM     20  O   UNL     1      -0.088   1.432   3.596  0.00  0.00    -0.463 OA
BRANCH  16  24
ATOM     21  C   UNL     1      -1.243   1.935   0.755  0.00  0.00    +0.008 C 
ATOM     22  C   UNL     1      -1.455   0.421   0.830  0.00  0.00    -0.003 C 
ATOM     23  C   UNL     1      -2.165  -0.133   2.067  0.00  0.00    +0.015 C 
ATOM     24  C   UNL     1      -0.662  -0.352   1.885  0.00  0.00    +0.058 C 
ENDBRANCH  16  24
ENDBRANCH  15  19
ENDBRANCH   1  15
TORSDOF 5
