REMARK  Name = ZINC04125262
REMARK  5 active torsions:
REMARK  status: ('A' for Active; 'I' for Inactive)
REMARK    1  A    between atoms: C_1  and  C_2
REMARK    2  A    between atoms: C_2  and  C_3
REMARK    3  A    between atoms: C_9  and  C_11
REMARK    4  A    between atoms: C_12  and  N_25
REMARK    5  A    between atoms: C_18  and  C_24
REMARK                            x       y       z     vdW  Elec       q    Type
REMARK                         _______ _______ _______ _____ _____    ______ ____
ROOT
ATOM      1  C   UNL     1       3.474  -2.526  -6.527  0.00  0.00    +0.097 A 
ATOM      2  C   UNL     1       4.694  -2.889  -7.047  0.00  0.00    +0.053 A 
ATOM      3  C   UNL     1       4.756  -3.313  -8.440  0.00  0.00    +0.028 A 
ATOM      4  C   UNL     1       5.882  -3.724  -9.176  0.00  0.00    +0.022 A 
ATOM      5  C   UNL     1       5.717  -4.095 -10.515  0.00  0.00    -0.001 A 
ATOM      6  C   UNL     1       6.816  -4.514 -11.290  0.00  0.00    +0.010 A 
ATOM      7  C   UNL     1       6.627  -4.869 -12.589  0.00  0.00    +0.004 A 
ATOM      8  C   UNL     1       5.359  -4.824 -13.169  0.00  0.00    -0.048 A 
ATOM      9  C   UNL     1       4.275  -4.424 -12.452  0.00  0.00    +0.029 A 
ATOM     10  C   UNL     1       4.427  -4.050 -11.105  0.00  0.00    +0.047 A 
ATOM     11  N   UNL     1       3.378  -3.655 -10.379  0.00  0.00    -0.349 N 
ATOM     12  C   UNL     1       3.509  -3.304  -9.125  0.00  0.00    +0.088 A 
ATOM     13  S   UNL     1       2.353  -2.749  -7.894  0.00  0.00    -0.064 S 
ATOM     14  C   UNL     1       5.189  -5.224 -14.612  0.00  0.00    +0.044 C 
ATOM     15  H   UNL     1       2.500  -3.627 -10.791  0.00  0.00    +0.166 HD
ENDROOT
BRANCH   1  22
ATOM     16  C   UNL     1       0.707  -0.490  -1.238  0.00  0.00    +0.103 A 
ATOM     17  N   UNL     1       1.982  -0.760  -1.436  0.00  0.00    -0.145 NA
ATOM     18  N   UNL     1       2.418  -1.164  -2.549  0.00  0.00    -0.126 NA
ATOM     19  C   UNL     1       1.617  -1.343  -3.591  0.00  0.00    +0.188 A 
ATOM     20  S   UNL     1       0.051  -0.874  -2.859  0.00  0.00    -0.035 S 
ATOM     21  N   UNL     1       1.909  -1.775  -4.878  0.00  0.00    -0.259 N 
ATOM     22  C   UNL     1       3.176  -2.085  -5.215  0.00  0.00    +0.258 C 
ATOM     23  O   UNL     1       4.067  -1.986  -4.389  0.00  0.00    -0.269 OA
ATOM     24  H   UNL     1       1.200  -1.854  -5.536  0.00  0.00    +0.157 HD
BRANCH  16  26
ATOM     25  C   UNL     1      -0.019   1.526   0.010  0.00  0.00    +0.011 C 
ATOM     26  C   UNL     1       0.002  -0.004   0.002  0.00  0.00    +0.061 C 
ENDBRANCH  16  26
ENDBRANCH   1  22
BRANCH   2  27
ATOM     27  N   UNL     1       5.839  -2.851  -6.265  0.00  0.00    -0.356 N 
ATOM     28  H   UNL     1       5.785  -2.567  -5.339  0.00  0.00    +0.142 HD
ATOM     29  H   UNL     1       6.694  -3.109  -6.644  0.00  0.00    +0.142 HD
ENDBRANCH   2  27
TORSDOF 3
