REMARK  Name = ZINC53113024
REMARK  7 active torsions:
REMARK  status: ('A' for Active; 'I' for Inactive)
REMARK    1  A    between atoms: C_1  and  C_2
REMARK    2  A    between atoms: C_5  and  C_8
REMARK    3  A    between atoms: C_5  and  N_10
REMARK    4  A    between atoms: C_8  and  O_9
REMARK    5  A    between atoms: N_10  and  S_11
REMARK    6  A    between atoms: S_11  and  C_14
REMARK    7  A    between atoms: C_18  and  N_20
REMARK                            x       y       z     vdW  Elec       q    Type
REMARK                         _______ _______ _______ _____ _____    ______ ____
ROOT
ATOM      1  S   UNL     1       3.696  -2.931  -0.915  0.00  0.00    +0.059 S 
ATOM      2  O   UNL     1       4.437  -1.811  -1.379  0.00  0.00    -0.153 OA
ATOM      3  O   UNL     1       4.318  -4.151  -0.536  0.00  0.00    -0.153 OA
ENDROOT
BRANCH   1   4
ATOM      4  C   UNL     1       2.538  -3.329  -2.183  0.00  0.00    +0.107 A 
ATOM      5  C   UNL     1       1.806  -4.498  -2.106  0.00  0.00    +0.031 A 
ATOM      6  C   UNL     1       0.896  -4.815  -3.098  0.00  0.00    +0.042 A 
ATOM      7  C   UNL     1       0.716  -3.961  -4.171  0.00  0.00    +0.144 A 
ATOM      8  C   UNL     1       1.452  -2.784  -4.250  0.00  0.00    +0.062 A 
ATOM      9  C   UNL     1       2.360  -2.468  -3.249  0.00  0.00    +0.054 A 
ATOM     10  F   UNL     1      -0.172  -4.270  -5.140  0.00  0.00    -0.204 F 
BRANCH   8  11
ATOM     11  N   UNL     1       1.274  -1.918  -5.333  0.00  0.00    -0.356 N 
ATOM     12  H   UNL     1       0.636  -2.137  -6.030  0.00  0.00    +0.142 HD
ATOM     13  H   UNL     1       1.788  -1.097  -5.388  0.00  0.00    +0.142 HD
ENDBRANCH   8  11
ENDBRANCH   1   4
BRANCH   1  14
ATOM     14  N   UNL     1       2.828  -2.414   0.397  0.00  0.00    -0.182 NA
ATOM     15  H   UNL     1       2.889  -2.893   1.238  0.00  0.00    +0.149 HD
BRANCH  14  20
ATOM     16  C   UNL     1      -1.446  -1.105   1.190  0.00  0.00    +0.007 C 
ATOM     17  C   UNL     1      -0.547  -2.338   1.304  0.00  0.00    -0.014 C 
ATOM     18  C   UNL     1      -0.013  -2.711  -0.080  0.00  0.00    +0.005 C 
ATOM     19  C   UNL     1       0.795  -1.542  -0.646  0.00  0.00    +0.026 C 
ATOM     20  C   UNL     1       1.968  -1.233   0.286  0.00  0.00    +0.063 C 
ATOM     21  C   UNL     1       1.434  -0.860   1.671  0.00  0.00    +0.026 C 
ATOM     22  C   UNL     1       0.625  -2.029   2.237  0.00  0.00    +0.005 C 
BRANCH  20  23
ATOM     23  C   UNL     1       2.776  -0.064  -0.280  0.00  0.00    +0.179 C 
BRANCH  23  24
ATOM     24  O   UNL     1       3.958   0.121   0.502  0.00  0.00    -0.393 OA
ATOM     25  H   UNL     1       4.520   0.847   0.200  0.00  0.00    +0.209 HD
ENDBRANCH  23  24
ENDBRANCH  20  23
ENDBRANCH  14  20
ENDBRANCH   1  14
TORSDOF 6
