REMARK  Name = ZINC60397412
REMARK  13 active torsions:
REMARK  status: ('A' for Active; 'I' for Inactive)
REMARK    1  A    between atoms: C_1  and  C_2
REMARK    2  A    between atoms: C_2  and  C_3
REMARK    3  A    between atoms: C_3  and  C_4
REMARK    4  A    between atoms: C_3  and  C_5
REMARK    5  A    between atoms: C_5  and  C_6
REMARK    6  A    between atoms: C_5  and  N_24
REMARK    7  A    between atoms: N_8  and  C_9
REMARK    8  A    between atoms: C_12  and  C_16
REMARK    9  A    between atoms: N_18  and  C_19
REMARK   10  A    between atoms: C_19  and  C_20
REMARK   11  A    between atoms: C_19  and  C_21
REMARK   12  A    between atoms: C_19  and  C_22
REMARK   13  A    between atoms: C_22  and  C_23
REMARK                            x       y       z     vdW  Elec       q    Type
REMARK                         _______ _______ _______ _____ _____    ______ ____
ROOT
ATOM      1  C   UNL     1       1.431  -3.046  -2.304  0.00  0.00    +0.238 C 
ATOM      2  O   UNL     1       0.878  -3.828  -3.048  0.00  0.00    -0.273 OA
ATOM      3  N   UNL     1       2.679  -2.620  -2.580  0.00  0.00    -0.284 N 
ATOM      4  H   UNL     1       3.096  -1.945  -2.021  0.00  0.00    +0.155 HD
ENDROOT
BRANCH   3   5
ATOM      5  C   UNL     1       3.371  -3.148  -3.669  0.00  0.00    +0.035 A 
ATOM      6  C   UNL     1       2.683  -3.484  -4.832  0.00  0.00    +0.024 A 
ATOM      7  C   UNL     1       3.363  -4.006  -5.909  0.00  0.00    +0.016 A 
ATOM      8  C   UNL     1       4.745  -4.198  -5.836  0.00  0.00    +0.055 A 
ATOM      9  C   UNL     1       5.434  -3.859  -4.666  0.00  0.00    +0.055 A 
ATOM     10  C   UNL     1       4.747  -3.332  -3.593  0.00  0.00    +0.044 A 
ATOM     11 CL   UNL     1       7.151  -4.096  -4.568  0.00  0.00    -0.083 Cl
BRANCH   8  12
ATOM     12  C   UNL     1       5.476  -4.758  -6.988  0.00  0.00    +0.246 C 
ATOM     13  O   UNL     1       6.679  -4.924  -6.923  0.00  0.00    -0.270 OA
ATOM     14  N   UNL     1       4.811  -5.084  -8.114  0.00  0.00    -0.306 N 
ATOM     15  H   UNL     1       3.852  -4.951  -8.167  0.00  0.00    +0.150 HD
BRANCH  14  16
ATOM     16  C   UNL     1       5.537  -5.639  -9.259  0.00  0.00    +0.029 C 
ATOM     17  C   UNL     1       6.591  -4.635  -9.730  0.00  0.00    +0.031 C 
ATOM     18  C   UNL     1       6.223  -6.942  -8.844  0.00  0.00    +0.031 C 
BRANCH  16  19
ATOM     19  C   UNL     1       4.555  -5.920 -10.398  0.00  0.00    +0.022 C 
ATOM     20  C   UNL     1       5.314  -6.500 -11.594  0.00  0.00    +0.006 C 
ENDBRANCH  16  19
ENDBRANCH  14  16
ENDBRANCH   8  12
ENDBRANCH   3   5
BRANCH   1  21
ATOM     21  C   UNL     1       0.722  -2.552  -1.069  0.00  0.00    +0.163 C 
BRANCH  21  22
ATOM     22  N   UNL     1      -0.365  -3.474  -0.729  0.00  0.00    -0.288 N 
ATOM     23  C   UNL     1      -1.361  -3.696  -1.609  0.00  0.00    +0.298 C 
ATOM     24  O   UNL     1      -1.357  -3.132  -2.686  0.00  0.00    -0.253 OA
ATOM     25  N   UNL     1      -2.361  -4.543  -1.296  0.00  0.00    -0.313 N 
ATOM     26  H   UNL     1      -0.368  -3.924   0.131  0.00  0.00    +0.151 HD
ATOM     27  H   UNL     1      -2.364  -4.993  -0.436  0.00  0.00    +0.146 HD
ATOM     28  H   UNL     1      -3.078  -4.704  -1.929  0.00  0.00    +0.146 HD
ENDBRANCH  21  22
BRANCH  21  29
ATOM     29  C   UNL     1       0.145  -1.160  -1.335  0.00  0.00    +0.015 C 
ATOM     30  C   UNL     1       1.281  -0.198  -1.691  0.00  0.00    +0.010 C 
BRANCH  29  32
ATOM     31  C   UNL     1      -1.256   0.677  -0.386  0.00  0.00    +0.004 C 
ATOM     32  C   UNL     1      -0.575  -0.658  -0.082  0.00  0.00    +0.002 C 
ENDBRANCH  29  32
ENDBRANCH  21  29
ENDBRANCH   1  21
TORSDOF 8
