REMARK  Name = ZINC36870343
REMARK  5 active torsions:
REMARK  status: ('A' for Active; 'I' for Inactive)
REMARK    1  A    between atoms: C_1  and  N_2
REMARK    2  A    between atoms: N_2  and  C_3
REMARK    3  A    between atoms: N_2  and  C_12
REMARK    4  A    between atoms: C_6  and  C_10
REMARK    5  A    between atoms: C_10  and  O_11
REMARK                            x       y       z     vdW  Elec       q    Type
REMARK                         _______ _______ _______ _____ _____    ______ ____
ROOT
ATOM      1  C   UNL     1       0.023  -0.710   1.209  0.00  0.00    +0.065 A 
ATOM      2  C   UNL     1      -1.167  -1.082   1.818  0.00  0.00    +0.026 A 
ATOM      3  C   UNL     1      -1.144  -1.780   3.011  0.00  0.00    +0.008 A 
ATOM      4  C   UNL     1       0.064  -2.107   3.599  0.00  0.00    -0.019 A 
ATOM      5  C   UNL     1       1.253  -1.738   2.996  0.00  0.00    +0.046 A 
ATOM      6  C   UNL     1       1.237  -1.045   1.800  0.00  0.00    +0.145 A 
ATOM      7  F   UNL     1       2.398  -0.690   1.208  0.00  0.00    -0.204 F 
ENDROOT
BRANCH   1   9
ATOM      8  C   UNL     1      -0.018   1.461   0.010  0.00  0.00    +0.129 C 
ATOM      9  N   UNL     1       0.002  -0.004   0.002  0.00  0.00    -0.326 N 
BRANCH   9  10
ATOM     10  C   UNL     1      -0.000  -0.730  -1.271  0.00  0.00    +0.096 C 
ATOM     11  C   UNL     1       1.222  -0.316  -2.107  0.00  0.00    +0.046 C 
ATOM     12  C   UNL     1       1.063  -0.822  -3.561  0.00  0.00    +0.168 C 
ATOM     13  S   UNL     1      -0.763  -0.873  -3.773  0.00  0.00    -0.029 S 
ATOM     14  O   UNL     1      -1.165  -2.216  -4.002  0.00  0.00    -0.174 OA
ATOM     15  O   UNL     1      -1.150   0.139  -4.693  0.00  0.00    -0.174 OA
ATOM     16  C   UNL     1      -1.281  -0.372  -2.077  0.00  0.00    +0.188 C 
ENDBRANCH   9  10
ENDBRANCH   1   9
BRANCH   4  17
ATOM     17  C   UNL     1       0.085  -2.868   4.899  0.00  0.00    +0.191 C 
BRANCH  17  18
ATOM     18  O   UNL     1       0.108  -4.271   4.631  0.00  0.00    -0.390 OA
ATOM     19  H   UNL     1       0.122  -4.823   5.424  0.00  0.00    +0.210 HD
ENDBRANCH  17  18
ENDBRANCH   4  17
TORSDOF 4
