REMARK  Name = ZINC40172497
REMARK  13 active torsions:
REMARK  status: ('A' for Active; 'I' for Inactive)
REMARK    1  A    between atoms: C_1  and  C_2
REMARK    2  A    between atoms: C_2  and  O_3
REMARK    3  A    between atoms: O_3  and  C_4
REMARK    4  A    between atoms: C_4  and  C_6
REMARK    5  A    between atoms: C_7  and  C_29
REMARK    6  A    between atoms: C_9  and  N_14
REMARK    7  A    between atoms: C_10  and  C_11
REMARK    8  A    between atoms: C_15  and  C_17
REMARK    9  A    between atoms: C_17  and  C_19
REMARK   10  A    between atoms: C_17  and  N_20
REMARK   11  A    between atoms: C_24  and  S_25
REMARK   12  A    between atoms: S_25  and  C_26
REMARK   13  A    between atoms: C_26  and  C_27
REMARK                            x       y       z     vdW  Elec       q    Type
REMARK                         _______ _______ _______ _____ _____    ______ ____
ROOT
ATOM      1  N   UNL     1       4.297  -3.618   4.417  0.00  0.00    -0.254 N 
ATOM      2  C   UNL     1       4.323  -4.085   5.681  0.00  0.00    +0.242 C 
ATOM      3  O   UNL     1       3.302  -4.127   6.333  0.00  0.00    -0.273 OA
ATOM      4  H   UNL     1       5.114  -3.584   3.896  0.00  0.00    +0.158 HD
ENDROOT
BRANCH   1   8
ATOM      5  C   UNL     1       1.500  -2.373   2.472  0.00  0.00    +0.114 A 
ATOM      6  C   UNL     1       0.955  -2.706   3.672  0.00  0.00    +0.119 A 
ATOM      7  O   UNL     1       1.914  -3.183   4.476  0.00  0.00    -0.445 OA
ATOM      8  C   UNL     1       3.106  -3.188   3.864  0.00  0.00    +0.206 A 
ATOM      9  C   UNL     1       2.941  -2.696   2.583  0.00  0.00    +0.111 A 
ATOM     10  C   UNL     1      -0.498  -2.561   4.041  0.00  0.00    +0.087 C 
BRANCH   9  11
ATOM     11  C   UNL     1       3.972  -2.526   1.554  0.00  0.00    +0.247 C 
ATOM     12  O   UNL     1       4.592  -1.481   1.480  0.00  0.00    -0.270 OA
ATOM     13  N   UNL     1       4.234  -3.528   0.691  0.00  0.00    -0.325 N 
ATOM     14  H   UNL     1       3.740  -4.361   0.750  0.00  0.00    +0.145 HD
ATOM     15  H   UNL     1       4.916  -3.416   0.011  0.00  0.00    +0.145 HD
ENDBRANCH   9  11
BRANCH   5  16
ATOM     16  C   UNL     1       0.801  -1.813   1.304  0.00  0.00    +0.343 C 
ATOM     17  O   UNL     1       0.321  -2.556   0.470  0.00  0.00    -0.245 OA
BRANCH  16  18
ATOM     18  O   UNL     1       0.693  -0.477   1.160  0.00  0.00    -0.461 OA
BRANCH  18  20
ATOM     19  C   UNL     1      -0.019   1.526   0.010  0.00  0.00    +0.048 C 
ATOM     20  C   UNL     1       0.002  -0.004   0.002  0.00  0.00    +0.229 C 
ENDBRANCH  18  20
ENDBRANCH  16  18
ENDBRANCH   5  16
ENDBRANCH   1   8
BRANCH   2  21
ATOM     21  C   UNL     1       5.622  -4.554   6.285  0.00  0.00    +0.175 C 
ATOM     22  C   UNL     1       6.626  -3.399   6.296  0.00  0.00    +0.041 C 
BRANCH  21  23
ATOM     23  N   UNL     1       5.387  -5.010   7.657  0.00  0.00    -0.279 N 
ATOM     24  C   UNL     1       4.885  -4.255   8.679  0.00  0.00    +0.216 A 
ATOM     25  N   UNL     1       4.820  -5.011   9.747  0.00  0.00    -0.113 NA
ATOM     26  N   UNL     1       5.292  -6.285   9.406  0.00  0.00    -0.121 NA
ATOM     27  C   UNL     1       5.625  -6.267   8.138  0.00  0.00    +0.194 A 
ATOM     28  N   UNL     1       4.510  -2.920   8.599  0.00  0.00    -0.328 N 
ATOM     29  H   UNL     1       4.595  -2.441   7.760  0.00  0.00    +0.145 HD
ATOM     30  H   UNL     1       4.162  -2.466   9.383  0.00  0.00    +0.145 HD
BRANCH  27  31
ATOM     31  S   UNL     1       6.269  -7.624   7.217  0.00  0.00    -0.086 S 
BRANCH  31  32
ATOM     32  C   UNL     1       6.341  -8.978   8.422  0.00  0.00    +0.074 C 
ATOM     33  C   UNL     1       6.890 -10.235   7.744  0.00  0.00    +0.016 C 
ENDBRANCH  31  32
ENDBRANCH  27  31
ENDBRANCH  21  23
ENDBRANCH   2  21
TORSDOF 9
