REMARK  Name = ZINC17878641
REMARK  5 active torsions:
REMARK  status: ('A' for Active; 'I' for Inactive)
REMARK    1  A    between atoms: C_1  and  C_2
REMARK    2  A    between atoms: C_5  and  C_8
REMARK    3  A    between atoms: C_8  and  N_9
REMARK    4  A    between atoms: C_16  and  C_19
REMARK    5  A    between atoms: C_16  and  O_27
REMARK                            x       y       z     vdW  Elec       q    Type
REMARK                         _______ _______ _______ _____ _____    ______ ____
ROOT
ATOM      1  N   UNL     1       1.447  -4.746  -0.032  0.00  0.00    -0.264 N 
ATOM      2  C   UNL     1       2.179  -4.984  -1.196  0.00  0.00    +0.043 A 
ATOM      3  C   UNL     1       1.825  -4.854  -2.537  0.00  0.00    +0.025 A 
ATOM      4  C   UNL     1       2.737  -5.155  -3.527  0.00  0.00    +0.017 A 
ATOM      5  C   UNL     1       4.009  -5.589  -3.197  0.00  0.00    +0.018 A 
ATOM      6  C   UNL     1       4.368  -5.721  -1.867  0.00  0.00    +0.024 A 
ATOM      7  C   UNL     1       3.459  -5.420  -0.877  0.00  0.00    +0.017 A 
ATOM      8  C   UNL     1       3.532  -5.457   0.632  0.00  0.00    +0.189 C 
ATOM      9  C   UNL     1       2.163  -4.992   1.079  0.00  0.00    +0.258 C 
ATOM     10  O   UNL     1       1.782  -4.867   2.223  0.00  0.00    -0.272 OA
ATOM     11 BR   UNL     1       5.253  -6.002  -4.560  0.00  0.00    -0.050 Br
ENDROOT
BRANCH   8  12
ATOM     12  C   UNL     1       4.611  -4.499   1.140  0.00  0.00    +0.187 C 
ATOM     13  C   UNL     1       4.777  -4.597   2.652  0.00  0.00    +0.255 C 
ATOM     14  O   UNL     1       3.896  -4.327   3.445  0.00  0.00    -0.272 OA
ATOM     15  N   UNL     1       5.970  -5.004   3.006  0.00  0.00    -0.159 NA
ATOM     16  C   UNL     1       6.935  -5.301   2.156  0.00  0.00    +0.145 C 
ATOM     17  S   UNL     1       6.291  -5.042   0.621  0.00  0.00    -0.077 S 
ATOM     18  N   UNL     1       8.195  -5.728   2.458  0.00  0.00    -0.340 N 
ATOM     19  H   UNL     1       8.459  -5.842   3.384  0.00  0.00    +0.144 HD
ATOM     20  H   UNL     1       8.826  -5.917   1.746  0.00  0.00    +0.144 HD
ENDBRANCH   8  12
BRANCH   8  21
ATOM     21  O   UNL     1       3.787  -6.787   1.088  0.00  0.00    -0.373 OA
ATOM     22  H   UNL     1       3.116  -7.430   0.820  0.00  0.00    +0.211 HD
ENDBRANCH   8  21
BRANCH   1  23
ATOM     23  C   UNL     1       0.059  -4.275  -0.021  0.00  0.00    +0.148 C 
BRANCH  23  28
ATOM     24  C   UNL     1      -0.018   1.503   0.010  0.00  0.00    +0.044 C 
ATOM     25  C   UNL     1       0.002  -0.004   0.002  0.00  0.00    -0.050 A 
ATOM     26  C   UNL     1       0.006  -0.689  -1.199  0.00  0.00    +0.003 A 
ATOM     27  C   UNL     1       0.025  -2.071  -1.206  0.00  0.00    +0.005 A 
ATOM     28  C   UNL     1       0.040  -2.768  -0.013  0.00  0.00    -0.030 A 
ATOM     29  C   UNL     1       0.037  -2.084   1.188  0.00  0.00    +0.005 A 
ATOM     30  C   UNL     1       0.023  -0.702   1.195  0.00  0.00    +0.003 A 
ENDBRANCH  23  28
ENDBRANCH   1  23
TORSDOF 4
