REMARK  Name = ZINC52344503
REMARK  6 active torsions:
REMARK  status: ('A' for Active; 'I' for Inactive)
REMARK    1  A    between atoms: C_1  and  C_2
REMARK    2  A    between atoms: C_2  and  C_4
REMARK    3  A    between atoms: C_2  and  N_10
REMARK    4  A    between atoms: C_11  and  C_13
REMARK    5  A    between atoms: C_13  and  C_18
REMARK    6  A    between atoms: N_19  and  O_20
REMARK                            x       y       z     vdW  Elec       q    Type
REMARK                         _______ _______ _______ _____ _____    ______ ____
ROOT
ATOM      1  N   UNL     1      -1.491  -0.461   0.187  0.00  0.00    -0.312 N 
ATOM      2  C   UNL     1      -2.071  -0.597  -1.022  0.00  0.00    +0.227 C 
ATOM      3  O   UNL     1      -1.510  -0.180  -2.013  0.00  0.00    -0.275 OA
ATOM      4  H   UNL     1      -1.972  -0.724   0.988  0.00  0.00    +0.149 HD
ENDROOT
BRANCH   2   5
ATOM      5  C   UNL     1      -3.416  -1.266  -1.142  0.00  0.00    +0.105 C 
ATOM      6  C   UNL     1      -3.830  -1.355  -2.621  0.00  0.00    +0.024 C 
ATOM      7  C   UNL     1      -5.144  -0.559  -2.759  0.00  0.00    +0.001 C 
ATOM      8  C   UNL     1      -5.116   0.430  -1.567  0.00  0.00    +0.001 C 
ATOM      9  C   UNL     1      -4.493  -0.419  -0.432  0.00  0.00    +0.024 C 
BRANCH   5  10
ATOM     10  C   UNL     1      -3.361  -2.645  -0.536  0.00  0.00    +0.147 C 
ATOM     11  N   UNL     1      -4.147  -2.952   0.443  0.00  0.00    -0.076 NA
ATOM     12  N   UNL     1      -2.474  -3.578  -1.026  0.00  0.00    -0.343 N 
ATOM     13  H   UNL     1      -1.940  -3.374  -1.810  0.00  0.00    +0.144 HD
ATOM     14  H   UNL     1      -2.384  -4.438  -0.587  0.00  0.00    +0.144 HD
BRANCH  11  15
ATOM     15  O   UNL     1      -4.096  -4.248   1.012  0.00  0.00    -0.408 OA
ATOM     16  H   UNL     1      -4.720  -4.383   1.738  0.00  0.00    +0.328 HD
ENDBRANCH  11  15
ENDBRANCH   5  10
ENDBRANCH   2   5
BRANCH   1  18
ATOM     17  C   UNL     1      -0.199   1.612   0.315  0.00  0.00    +0.028 C 
ATOM     18  C   UNL     1      -0.135   0.083   0.293  0.00  0.00    +0.073 C 
BRANCH  18  19
ATOM     19  C   UNL     1       0.517  -0.419   1.582  0.00  0.00    +0.009 C 
ATOM     20  C   UNL     1      -0.310   0.039   2.784  0.00  0.00    +0.005 C 
ATOM     21  C   UNL     1       0.342  -0.463   4.074  0.00  0.00    +0.000 C 
ATOM     22  C   UNL     1       1.758   0.105   4.184  0.00  0.00    +0.000 C 
ATOM     23  C   UNL     1       2.586  -0.352   2.982  0.00  0.00    +0.000 C 
ATOM     24  C   UNL     1       1.934   0.150   1.692  0.00  0.00    +0.005 C 
ENDBRANCH  18  19
ENDBRANCH   1  18
TORSDOF 5
