REMARK  Name = ZINC01617710
REMARK  1 active torsions:
REMARK  status: ('A' for Active; 'I' for Inactive)
REMARK    1  A    between atoms: C_9  and  C_14
REMARK                            x       y       z     vdW  Elec       q    Type
REMARK                         _______ _______ _______ _____ _____    ______ ____
ROOT
ATOM      1  C   UNL     1      -0.013   1.076   0.008  0.00  0.00    +0.012 C 
ATOM      2  C   UNL     1      -1.213   1.748   0.017  0.00  0.00    +0.026 C 
ATOM      3  C   UNL     1      -1.233   3.140   0.031  0.00  0.00    +0.033 C 
ATOM      4  C   UNL     1      -0.039   3.856   0.023  0.00  0.00    +0.026 C 
ATOM      5  C   UNL     1       1.165   3.189   0.008  0.00  0.00    +0.012 C 
ATOM      6  C   UNL     1       1.188   1.792   0.000  0.00  0.00    -0.004 C 
ATOM      7  C   UNL     1       2.478   1.073  -0.015  0.00  0.00    +0.042 C 
ATOM      8  C   UNL     1       3.696   1.796  -0.023  0.00  0.00    +0.057 C 
ATOM      9  C   UNL     1       4.871   1.105  -0.038  0.00  0.00    +0.130 C 
ATOM     10  N   UNL     1       4.836  -0.269  -0.044  0.00  0.00    -0.220 NA
ATOM     11  C   UNL     1       3.657  -0.917  -0.037  0.00  0.00    +0.170 C 
ATOM     12  S   UNL     1       3.640  -2.629  -0.046  0.00  0.00    -0.014 SA
ATOM     13  N   UNL     1       2.502  -0.252  -0.017  0.00  0.00    -0.293 N 
ATOM     14  N   UNL     1      -2.448   3.817   0.046  0.00  0.00    -0.398 N 
ATOM     15  H   UNL     1      -2.465   4.917   0.058  0.00  0.00    +0.156 HD
ATOM     16  H   UNL     1      -3.393   3.253   0.047  0.00  0.00    +0.156 HD
ATOM     17  H   UNL     1       1.560  -0.819  -0.001  0.00  0.00    +0.154 HD
ENDROOT
BRANCH   9  18
ATOM     18  C   UNL     1       6.166   1.823  -0.047  0.00  0.00    +0.268 C 
ATOM     19  O   UNL     1       6.187   3.038  -0.041  0.00  0.00    -0.268 OA
ATOM     20  N   UNL     1       7.322   1.130  -0.061  0.00  0.00    -0.259 N 
ATOM     21  C   UNL     1       8.535   1.804  -0.070  0.00  0.00    +0.165 A 
ATOM     22  N   UNL     1       8.762   3.103  -0.071  0.00  0.00    -0.233 NA
ATOM     23  C   UNL     1       9.990   3.582  -0.076  0.00  0.00    +0.120 A 
ATOM     24  C   UNL     1      11.025   2.707  -0.090  0.00  0.00    +0.068 A 
ATOM     25  S   UNL     1      10.145   1.152  -0.088  0.00  0.00    -0.061 S 
ATOM     26  H   UNL     1       7.303   0.030  -0.066  0.00  0.00    +0.157 HD
ENDBRANCH   9  18
TORSDOF 1
