REMARK  Name = ZINC47561889
REMARK  5 active torsions:
REMARK  status: ('A' for Active; 'I' for Inactive)
REMARK    1  A    between atoms: C_1  and  C_2
REMARK    2  A    between atoms: C_2  and  N_3
REMARK    3  A    between atoms: C_4  and  C_6
REMARK    4  A    between atoms: C_9  and  N_12
REMARK    5  A    between atoms: C_23  and  C_25
REMARK                            x       y       z     vdW  Elec       q    Type
REMARK                         _______ _______ _______ _____ _____    ______ ____
ROOT
ATOM      1  N   UNL     1       3.628  -3.686   5.940  0.00  0.00    -0.269 N 
ATOM      2  C   UNL     1       3.642  -5.005   6.220  0.00  0.00    +0.307 C 
ATOM      3  O   UNL     1       3.146  -5.796   5.441  0.00  0.00    -0.252 OA
ATOM      4  N   UNL     1       4.205  -5.445   7.362  0.00  0.00    -0.278 N 
ATOM      5  C   UNL     1       4.651  -4.492   8.389  0.00  0.00    +0.115 C 
ATOM      6  C   UNL     1       3.797  -4.705   9.649  0.00  0.00    +0.062 C 
ATOM      7  C   UNL     1       3.651  -6.173   9.886  0.00  0.00    -0.004 A 
ATOM      8  C   UNL     1       3.889  -7.189   9.013  0.00  0.00    -0.017 A 
ATOM      9  C   UNL     1       3.666  -8.482   9.482  0.00  0.00    +0.013 A 
ATOM     10  C   UNL     1       3.239  -8.678  10.751  0.00  0.00    +0.046 A 
ATOM     11  S   UNL     1       3.128  -7.003  11.363  0.00  0.00    -0.101 S 
ATOM     12  C   UNL     1       4.375  -6.885   7.601  0.00  0.00    +0.105 C 
ATOM     13  C   UNL     1       5.853  -7.260   7.475  0.00  0.00    +0.033 C 
ATOM     14  H   UNL     1       4.139  -3.069   6.487  0.00  0.00    +0.156 HD
ENDROOT
BRANCH   1  18
ATOM     15  C   UNL     1       1.391  -2.261   2.728  0.00  0.00    +0.037 A 
ATOM     16  C   UNL     1       1.699  -1.415   3.797  0.00  0.00    +0.015 A 
ATOM     17  C   UNL     1       2.439  -1.889   4.857  0.00  0.00    +0.024 A 
ATOM     18  C   UNL     1       2.879  -3.209   4.865  0.00  0.00    +0.035 A 
ATOM     19  C   UNL     1       2.575  -4.054   3.802  0.00  0.00    +0.024 A 
ATOM     20  C   UNL     1       1.831  -3.588   2.742  0.00  0.00    +0.015 A 
BRANCH  15  22
ATOM     21  N   UNL     1       0.175  -0.477   1.579  0.00  0.00    -0.312 N 
ATOM     22  C   UNL     1       0.598  -1.756   1.591  0.00  0.00    +0.244 C 
ATOM     23  O   UNL     1       0.326  -2.495   0.664  0.00  0.00    -0.270 OA
ATOM     24  H   UNL     1       0.392   0.112   2.318  0.00  0.00    +0.149 HD
BRANCH  21  26
ATOM     25  C   UNL     1      -0.962   1.495   0.684  0.00  0.00    +0.024 C 
ATOM     26  C   UNL     1      -0.612   0.024   0.450  0.00  0.00    +0.101 C 
ENDBRANCH  21  26
ENDBRANCH  15  22
ENDBRANCH   1  18
TORSDOF 3
