REMARK  Name = ZINC00753174
REMARK  7 active torsions:
REMARK  status: ('A' for Active; 'I' for Inactive)
REMARK    1  A    between atoms: C_1  and  C_2
REMARK    2  A    between atoms: C_2  and  C_29
REMARK    3  A    between atoms: C_6  and  C_18
REMARK    4  A    between atoms: C_21  and  O_26
REMARK    5  A    between atoms: C_22  and  O_24
REMARK    6  A    between atoms: O_24  and  C_25
REMARK    7  A    between atoms: O_26  and  C_27
REMARK                            x       y       z     vdW  Elec       q    Type
REMARK                         _______ _______ _______ _____ _____    ______ ____
ROOT
ATOM      1  C   UNL     1       0.071   1.530   0.112  0.00  0.00    +0.011 C 
ATOM      2  C   UNL     1       0.066   0.000   0.075  0.00  0.00    -0.023 C 
ATOM      3  C   UNL     1      -1.376  -0.517   0.130  0.00  0.00    +0.086 C 
ATOM      4  C   UNL     1      -1.345  -2.014   0.191  0.00  0.00    +0.163 C 
ATOM      5  C   UNL     1      -0.258  -2.728   0.748  0.00  0.00    +0.036 C 
ATOM      6  C   UNL     1      -0.420  -4.229   0.689  0.00  0.00    +0.136 C 
ATOM      7  N   UNL     1       0.780  -4.973   1.007  0.00  0.00    -0.331 N 
ATOM      8  C   UNL     1       1.347  -4.916   2.279  0.00  0.00    +0.049 A 
ATOM      9  C   UNL     1       1.403  -6.032   3.098  0.00  0.00    +0.025 A 
ATOM     10  C   UNL     1       1.935  -5.917   4.371  0.00  0.00    +0.002 A 
ATOM     11  C   UNL     1       2.406  -4.698   4.824  0.00  0.00    +0.002 A 
ATOM     12  C   UNL     1       2.368  -3.585   4.002  0.00  0.00    +0.025 A 
ATOM     13  C   UNL     1       1.855  -3.704   2.722  0.00  0.00    +0.052 A 
ATOM     14  N   UNL     1       1.887  -2.655   1.810  0.00  0.00    -0.316 N 
ATOM     15  C   UNL     1       0.789  -2.068   1.268  0.00  0.00    +0.017 C 
ATOM     16  C   UNL     1       0.803  -0.549   1.296  0.00  0.00    +0.058 C 
ATOM     17  O   UNL     1      -2.288  -2.638  -0.255  0.00  0.00    -0.292 OA
ATOM     18  C   UNL     1       0.746  -0.490  -1.205  0.00  0.00    +0.011 C 
ATOM     19  H   UNL     1       1.197  -5.521   0.324  0.00  0.00    +0.147 HD
ATOM     20  H   UNL     1       2.756  -2.318   1.542  0.00  0.00    +0.152 HD
ENDROOT
BRANCH   6  21
ATOM     21  C   UNL     1      -1.500  -4.632   1.659  0.00  0.00    -0.019 A 
ATOM     22  C   UNL     1      -1.329  -4.410   3.013  0.00  0.00    +0.009 A 
ATOM     23  C   UNL     1      -2.317  -4.777   3.907  0.00  0.00    +0.050 A 
ATOM     24  C   UNL     1      -3.482  -5.370   3.447  0.00  0.00    +0.162 A 
ATOM     25  C   UNL     1      -3.655  -5.593   2.085  0.00  0.00    +0.162 A 
ATOM     26  C   UNL     1      -2.663  -5.218   1.193  0.00  0.00    +0.055 A 
BRANCH  25  27
ATOM     27  O   UNL     1      -4.796  -6.174   1.628  0.00  0.00    -0.491 OA
ATOM     28  C   UNL     1      -4.904  -6.373   0.217  0.00  0.00    +0.277 C 
ENDBRANCH  25  27
BRANCH  24  29
ATOM     29  O   UNL     1      -4.455  -5.733   4.326  0.00  0.00    -0.491 OA
ATOM     30  C   UNL     1      -4.209  -5.474   5.709  0.00  0.00    +0.277 C 
ENDBRANCH  24  29
ENDBRANCH   6  21
TORSDOF 3
