REMARK  Name = ZINC64613207
REMARK  4 active torsions:
REMARK  status: ('A' for Active; 'I' for Inactive)
REMARK    1  A    between atoms: C_1  and  C_2
REMARK    2  A    between atoms: C_5  and  C_8
REMARK    3  A    between atoms: C_11  and  C_14
REMARK    4  A    between atoms: C_17  and  C_20
REMARK                            x       y       z     vdW  Elec       q    Type
REMARK                         _______ _______ _______ _____ _____    ______ ____
ROOT
ATOM      1  C   UNL     1       0.059  -4.253  -0.021  0.00  0.00    +0.168 C 
ATOM      2  N   UNL     1       0.069  -4.977  -1.092  0.00  0.00    -0.067 NA
ATOM      3  O   UNL     1       0.088  -6.355  -0.770  0.00  0.00    -0.367 OA
ATOM      4  C   UNL     1       0.089  -6.440   0.663  0.00  0.00    +0.322 C 
ATOM      5  N   UNL     1       0.075  -5.040   1.115  0.00  0.00    -0.287 N 
ATOM      6  H   UNL     1       0.075  -4.730   2.034  0.00  0.00    +0.151 HD
ENDROOT
BRANCH   1  11
ATOM      7  C   UNL     1      -0.018   1.503   0.010  0.00  0.00    +0.044 C 
ATOM      8  C   UNL     1       0.002  -0.004   0.002  0.00  0.00    -0.050 A 
ATOM      9  C   UNL     1       0.006  -0.686  -1.201  0.00  0.00    +0.004 A 
ATOM     10  C   UNL     1       0.024  -2.066  -1.216  0.00  0.00    +0.011 A 
ATOM     11  C   UNL     1       0.040  -2.773  -0.013  0.00  0.00    +0.018 A 
ATOM     12  C   UNL     1       0.036  -2.079   1.197  0.00  0.00    +0.011 A 
ATOM     13  C   UNL     1       0.023  -0.699   1.198  0.00  0.00    +0.004 A 
ENDBRANCH   1  11
BRANCH   4  14
ATOM     14  C   UNL     1       1.354  -7.146   1.155  0.00  0.00    +0.215 C 
ATOM     15  C   UNL     1       1.447  -8.546   0.575  0.00  0.00    +0.037 C 
ATOM     16  C   UNL     1       2.584  -8.521  -0.147  0.00  0.00    +0.091 C 
ATOM     17  N   UNL     1       3.169  -7.298  -0.069  0.00  0.00    -0.154 NA
ATOM     18  N   UNL     1       2.558  -6.481   0.630  0.00  0.00    -0.174 NA
BRANCH  16  19
ATOM     19  C   UNL     1       3.121  -9.669  -0.919  0.00  0.00    +0.002 A 
ATOM     20  C   UNL     1       2.436 -10.882  -0.936  0.00  0.00    +0.011 A 
ATOM     21  C   UNL     1       2.941 -11.947  -1.655  0.00  0.00    +0.020 A 
ATOM     22  C   UNL     1       4.125 -11.810  -2.359  0.00  0.00    +0.041 A 
ATOM     23  C   UNL     1       4.809 -10.607  -2.345  0.00  0.00    +0.020 A 
ATOM     24  C   UNL     1       4.310  -9.535  -1.634  0.00  0.00    +0.011 A 
ATOM     25 CL   UNL     1       4.755 -13.153  -3.261  0.00  0.00    -0.084 Cl
ENDBRANCH  16  19
ENDBRANCH   4  14
TORSDOF 3
