REMARK  Name = ZINC23041654
REMARK  9 active torsions:
REMARK  status: ('A' for Active; 'I' for Inactive)
REMARK    1  A    between atoms: C_1  and  C_2
REMARK    2  A    between atoms: C_7  and  N_8
REMARK    3  A    between atoms: N_8  and  S_9
REMARK    4  A    between atoms: S_9  and  C_12
REMARK    5  A    between atoms: C_15  and  C_18
REMARK    6  A    between atoms: N_20  and  C_21
REMARK    7  A    between atoms: C_21  and  C_22
REMARK    8  A    between atoms: C_22  and  N_23
REMARK    9  A    between atoms: C_24  and  C_26
REMARK                            x       y       z     vdW  Elec       q    Type
REMARK                         _______ _______ _______ _____ _____    ______ ____
ROOT
ATOM      1  C   UNL     1      -1.553   2.390  -1.773  0.00  0.00    +0.109 A 
ATOM      2  C   UNL     1      -1.073   3.657  -2.051  0.00  0.00    +0.029 A 
ATOM      3  C   UNL     1      -1.138   4.156  -3.336  0.00  0.00    +0.015 A 
ATOM      4  C   UNL     1      -1.700   3.384  -4.353  0.00  0.00    +0.037 A 
ATOM      5  C   UNL     1      -2.188   2.108  -4.064  0.00  0.00    +0.015 A 
ATOM      6  C   UNL     1      -2.111   1.619  -2.777  0.00  0.00    +0.029 A 
ENDROOT
BRANCH   4   7
ATOM      7  C   UNL     1      -1.779   3.914  -5.731  0.00  0.00    +0.244 C 
ATOM      8  O   UNL     1      -2.269   3.239  -6.615  0.00  0.00    -0.270 OA
ATOM      9  N   UNL     1      -1.308   5.146  -6.006  0.00  0.00    -0.310 N 
ATOM     10  H   UNL     1      -0.864   5.757  -5.206  0.00  0.00    +0.149 HD
BRANCH   9  11
ATOM     11  C   UNL     1      -1.385   5.672  -7.372  0.00  0.00    +0.123 C 
BRANCH  11  12
ATOM     12  C   UNL     1      -0.785   7.079  -7.411  0.00  0.00    +0.123 C 
BRANCH  12  13
ATOM     13  N   UNL     1      -0.863   7.605  -8.776  0.00  0.00    -0.307 N 
ATOM     14  C   UNL     1      -0.392   8.837  -9.052  0.00  0.00    +0.279 C 
ATOM     15  O   UNL     1       0.099   9.513  -8.167  0.00  0.00    -0.267 OA
ATOM     16  H   UNL     1      -1.306   6.994  -9.577  0.00  0.00    +0.149 HD
BRANCH  14  17
ATOM     17  C   UNL     1      -0.470   9.363 -10.419  0.00  0.00    +0.189 A 
ATOM     18  C   UNL     1      -0.032  10.589 -10.833  0.00  0.00    +0.054 A 
ATOM     19  C   UNL     1      -0.303  10.671 -12.207  0.00  0.00    +0.042 A 
ATOM     20  C   UNL     1      -0.887   9.507 -12.568  0.00  0.00    +0.196 A 
ATOM     21  O   UNL     1      -0.981   8.719 -11.488  0.00  0.00    -0.458 OA
ENDBRANCH  14  17
ENDBRANCH  12  13
ENDBRANCH  11  12
ENDBRANCH   9  11
ENDBRANCH   4   7
BRANCH   1  22
ATOM     22  S   UNL     1      -1.459   1.757  -0.131  0.00  0.00    +0.072 S 
ATOM     23  O   UNL     1      -2.474   0.770  -0.017  0.00  0.00    -0.150 OA
ATOM     24  O   UNL     1      -1.391   2.883   0.735  0.00  0.00    -0.150 OA
BRANCH  22  25
ATOM     25  N   UNL     1      -0.011   0.966   0.007  0.00  0.00    -0.216 N 
ATOM     26  H   UNL     1       0.008  -0.107   0.249  0.00  0.00    +0.174 HD
BRANCH  25  33
ATOM     27  C   UNL     1       2.146  -0.397  -1.251  0.00  0.00    +0.046 C 
ATOM     28  C   UNL     1       2.265   1.034  -0.793  0.00  0.00    -0.028 A 
ATOM     29  C   UNL     1       3.446   1.724  -0.980  0.00  0.00    +0.005 A 
ATOM     30  C   UNL     1       3.556   3.038  -0.561  0.00  0.00    +0.000 A 
ATOM     31  C   UNL     1       2.483   3.664   0.047  0.00  0.00    +0.002 A 
ATOM     32  C   UNL     1       1.297   2.982   0.233  0.00  0.00    +0.025 A 
ATOM     33  C   UNL     1       1.186   1.661  -0.183  0.00  0.00    +0.051 A 
ENDBRANCH  25  33
ENDBRANCH  22  25
ENDBRANCH   1  22
TORSDOF 8
