REMARK  Name = ZINC08783479
REMARK  10 active torsions:
REMARK  status: ('A' for Active; 'I' for Inactive)
REMARK    1  A    between atoms: C_1  and  C_2
REMARK    2  A    between atoms: C_2  and  C_3
REMARK    3  A    between atoms: C_2  and  C_4
REMARK    4  A    between atoms: C_7  and  C_10
REMARK    5  A    between atoms: C_13  and  C_24
REMARK    6  A    between atoms: C_19  and  N_23
REMARK    7  A    between atoms: C_20  and  C_21
REMARK    8  A    between atoms: C_24  and  C_25
REMARK    9  A    between atoms: C_24  and  C_26
REMARK   10  A    between atoms: C_24  and  C_27
REMARK                            x       y       z     vdW  Elec       q    Type
REMARK                         _______ _______ _______ _____ _____    ______ ____
ROOT
ATOM      1  C   UNL     1       4.008  -1.646  -3.936  0.00  0.00    +0.101 C 
ATOM      2  C   UNL     1       4.913  -0.941  -4.912  0.00  0.00    +0.050 A 
ATOM      3  C   UNL     1       4.730   0.273  -5.562  0.00  0.00    +0.076 A 
ATOM      4  N   UNL     1       5.780   0.493  -6.317  0.00  0.00    -0.175 NA
ATOM      5  N   UNL     1       6.668  -0.584  -6.167  0.00  0.00    -0.246 N 
ATOM      6  H   UNL     1       7.526  -0.683  -6.609  0.00  0.00    +0.192 HD
ATOM      7  C   UNL     1       6.119  -1.453  -5.303  0.00  0.00    +0.222 A 
ATOM      8  O   UNL     1       6.593  -2.638  -4.846  0.00  0.00    -0.423 OA
ATOM      9  C   UNL     1       5.731  -3.449  -4.199  0.00  0.00    +0.200 C 
ATOM     10  C   UNL     1       4.517  -3.054  -3.753  0.00  0.00    +0.098 C 
ENDROOT
BRANCH   1  14
ATOM     11  C   UNL     1       4.051   0.400  -0.187  0.00  0.00    -0.045 A 
ATOM     12  C   UNL     1       2.853  -0.029  -0.726  0.00  0.00    +0.004 A 
ATOM     13  C   UNL     1       2.838  -0.691  -1.940  0.00  0.00    +0.005 A 
ATOM     14  C   UNL     1       4.023  -0.924  -2.614  0.00  0.00    -0.035 A 
ATOM     15  C   UNL     1       5.221  -0.494  -2.075  0.00  0.00    +0.005 A 
ATOM     16  C   UNL     1       5.234   0.172  -0.864  0.00  0.00    +0.004 A 
BRANCH  11  18
ATOM     17  C   UNL     1       3.224   2.396   1.032  0.00  0.00    +0.012 C 
ATOM     18  C   UNL     1       4.066   1.122   1.136  0.00  0.00    +0.013 C 
ATOM     19  C   UNL     1       3.483   0.213   2.220  0.00  0.00    +0.012 C 
ENDBRANCH  11  18
ENDBRANCH   1  14
BRANCH   3  20
ATOM     20  C   UNL     1       3.534   1.179  -5.424  0.00  0.00    +0.007 C 
ATOM     21  C   UNL     1       3.486   1.747  -4.004  0.00  0.00    +0.017 C 
ATOM     22  C   UNL     1       3.645   2.327  -6.429  0.00  0.00    +0.017 C 
ATOM     23  C   UNL     1       2.257   0.382  -5.698  0.00  0.00    +0.017 C 
ENDBRANCH   3  20
BRANCH   9  24
ATOM     24  N   UNL     1       6.108  -4.751  -3.981  0.00  0.00    -0.328 N 
ATOM     25  H   UNL     1       6.973  -5.063  -4.288  0.00  0.00    +0.145 HD
ATOM     26  H   UNL     1       5.509  -5.358  -3.518  0.00  0.00    +0.145 HD
ENDBRANCH   9  24
BRANCH  10  27
ATOM     27  C   UNL     1       3.685  -4.007  -3.082  0.00  0.00    +0.101 C 
ATOM     28  N   UNL     1       3.024  -4.763  -2.550  0.00  0.00    -0.191 NA
ENDBRANCH  10  27
TORSDOF 5
