REMARK  Name = ZINC01461885
REMARK  2 active torsions:
REMARK  status: ('A' for Active; 'I' for Inactive)
REMARK    1  A    between atoms: C_3  and  C_10
REMARK    2  A    between atoms: C_5  and  N_7
REMARK                            x       y       z     vdW  Elec       q    Type
REMARK                         _______ _______ _______ _____ _____    ______ ____
ROOT
ATOM      1  C   UNL     1       1.329   4.566  -0.284  0.00  0.00    +0.105 C 
ATOM      2  C   UNL     1       0.680   3.247  -0.650  0.00  0.00    +0.029 C 
ATOM      3  C   UNL     1       1.229   1.972   0.001  0.00  0.00    +0.033 C 
ATOM      4  C   UNL     1      -0.013   1.076   0.008  0.00  0.00    -0.030 C 
ATOM      5  C   UNL     1      -1.111   1.824   0.017  0.00  0.00    -0.023 C 
ATOM      6  C   UNL     1      -0.708   3.251   0.061  0.00  0.00    +0.049 C 
ATOM      7  C   UNL     1      -1.497   4.343  -0.541  0.00  0.00    -0.017 A 
ATOM      8  C   UNL     1      -2.870   4.258  -0.645  0.00  0.00    +0.006 A 
ATOM      9  C   UNL     1      -3.597   5.294  -1.198  0.00  0.00    +0.003 A 
ATOM     10  C   UNL     1      -2.942   6.425  -1.651  0.00  0.00    +0.040 A 
ATOM     11  C   UNL     1      -1.569   6.515  -1.559  0.00  0.00    +0.144 A 
ATOM     12  C   UNL     1      -0.819   5.471  -1.008  0.00  0.00    +0.067 A 
ATOM     13  N   UNL     1       0.566   5.625  -0.964  0.00  0.00    -0.334 N 
ATOM     14  F   UNL     1      -0.941   7.625  -2.006  0.00  0.00    -0.204 F 
ATOM     15  H   UNL     1       0.818   6.536  -0.610  0.00  0.00    +0.147 HD
ENDROOT
BRANCH   1  18
ATOM     16  C   UNL     1       4.366   4.867  -2.507  0.00  0.00    +0.003 A 
ATOM     17  C   UNL     1       3.052   4.853  -2.077  0.00  0.00    +0.005 A 
ATOM     18  C   UNL     1       2.761   4.582  -0.753  0.00  0.00    -0.025 A 
ATOM     19  C   UNL     1       3.784   4.332   0.142  0.00  0.00    +0.038 A 
ATOM     20  C   UNL     1       5.098   4.343  -0.288  0.00  0.00    +0.127 A 
ATOM     21  C   UNL     1       5.388   4.612  -1.613  0.00  0.00    +0.033 A 
BRANCH  20  22
ATOM     22  N   UNL     1       6.193   4.069   0.669  0.00  0.00    +0.056 N 
ATOM     23  O   UNL     1       7.350   4.081   0.290  0.00  0.00    -0.126 OA
ATOM     24  O   UNL     1       5.936   3.832   1.836  0.00  0.00    -0.126 OA
ENDBRANCH  20  22
ENDBRANCH   1  18
TORSDOF 2
