REMARK  Name = ZINC16577734
REMARK  10 active torsions:
REMARK  status: ('A' for Active; 'I' for Inactive)
REMARK    1  A    between atoms: C_1  and  C_2
REMARK    2  A    between atoms: C_2  and  C_24
REMARK    3  A    between atoms: C_4  and  N_11
REMARK    4  A    between atoms: C_7  and  C_9
REMARK    5  A    between atoms: C_7  and  C_10
REMARK    6  A    between atoms: N_14  and  C_15
REMARK    7  A    between atoms: C_19  and  N_21
REMARK    8  A    between atoms: C_24  and  N_25
REMARK    9  A    between atoms: N_28  and  C_29
REMARK   10  A    between atoms: C_33  and  N_35
REMARK                            x       y       z     vdW  Elec       q    Type
REMARK                         _______ _______ _______ _____ _____    ______ ____
ROOT
ATOM      1  C   UNL     1      -0.011   1.647  -0.170  0.00  0.00    +0.013 C 
ATOM      2  C   UNL     1       0.165   0.127  -0.108  0.00  0.00    -0.014 C 
ATOM      3  C   UNL     1      -1.194  -0.559  -0.185  0.00  0.00    +0.030 C 
ATOM      4  C   UNL     1      -1.968  -0.377   1.119  0.00  0.00    +0.076 C 
ATOM      5  C   UNL     1      -1.179  -1.023   2.256  0.00  0.00    +0.028 C 
ATOM      6  C   UNL     1       0.180  -0.353   2.421  0.00  0.00    -0.033 C 
ATOM      7  C   UNL     1       0.958  -0.282   1.119  0.00  0.00    +0.014 C 
ATOM      8  C   UNL     1       1.000  -1.199   3.420  0.00  0.00    +0.011 C 
ATOM      9  C   UNL     1       0.007   1.038   3.037  0.00  0.00    +0.011 C 
ENDROOT
BRANCH   4  10
ATOM     10  N   UNL     1      -3.272  -1.041   1.000  0.00  0.00    -0.296 N 
ATOM     11  C   UNL     1      -4.310  -0.629   1.756  0.00  0.00    +0.304 C 
ATOM     12  O   UNL     1      -4.166   0.293   2.535  0.00  0.00    -0.253 OA
ATOM     13  N   UNL     1      -5.507  -1.239   1.647  0.00  0.00    -0.269 N 
ATOM     14  H   UNL     1      -3.388  -1.776   0.378  0.00  0.00    +0.151 HD
ATOM     15  H   UNL     1      -5.641  -1.929   0.978  0.00  0.00    +0.156 HD
BRANCH  13  16
ATOM     16  C   UNL     1      -6.556  -0.877   2.499  0.00  0.00    +0.037 A 
ATOM     17  C   UNL     1      -6.706   0.446   2.895  0.00  0.00    +0.023 A 
ATOM     18  C   UNL     1      -7.743   0.800   3.736  0.00  0.00    +0.004 A 
ATOM     19  C   UNL     1      -8.632  -0.161   4.182  0.00  0.00    +0.033 A 
ATOM     20  C   UNL     1      -8.485  -1.478   3.790  0.00  0.00    +0.128 A 
ATOM     21  C   UNL     1      -7.454  -1.838   2.945  0.00  0.00    +0.056 A 
BRANCH  20  22
ATOM     22  N   UNL     1      -9.438  -2.504   4.271  0.00  0.00    +0.056 N 
ATOM     23  O   UNL     1     -10.345  -2.189   5.007  0.00  0.00    -0.126 OA
ATOM     24  O   UNL     1      -9.311  -3.656   3.928  0.00  0.00    -0.126 OA
ENDBRANCH  20  22
ENDBRANCH  13  16
ENDBRANCH   4  10
BRANCH   2  25
ATOM     25  C   UNL     1       0.972  -0.293  -1.357  0.00  0.00    +0.112 C 
BRANCH  25  26
ATOM     26  N   UNL     1       0.237   0.091  -2.565  0.00  0.00    -0.299 N 
ATOM     27  C   UNL     1       0.752  -0.177  -3.781  0.00  0.00    +0.304 C 
ATOM     28  O   UNL     1       1.828  -0.737  -3.876  0.00  0.00    -0.253 OA
ATOM     29  N   UNL     1       0.076   0.176  -4.892  0.00  0.00    -0.269 N 
ATOM     30  H   UNL     1      -0.621   0.538  -2.490  0.00  0.00    +0.150 HD
ATOM     31  H   UNL     1      -0.744   0.688  -4.819  0.00  0.00    +0.156 HD
BRANCH  29  32
ATOM     32  C   UNL     1       0.558  -0.197  -6.152  0.00  0.00    +0.037 A 
ATOM     33  C   UNL     1       1.228  -1.403  -6.313  0.00  0.00    +0.023 A 
ATOM     34  C   UNL     1       1.701  -1.768  -7.557  0.00  0.00    +0.004 A 
ATOM     35  C   UNL     1       1.509  -0.934  -8.644  0.00  0.00    +0.033 A 
ATOM     36  C   UNL     1       0.843   0.267  -8.488  0.00  0.00    +0.128 A 
ATOM     37  C   UNL     1       0.362   0.636  -7.246  0.00  0.00    +0.056 A 
BRANCH  36  38
ATOM     38  N   UNL     1       0.641   1.157  -9.653  0.00  0.00    +0.056 N 
ATOM     39  O   UNL     1       1.057   0.834 -10.740  0.00  0.00    -0.126 OA
ATOM     40  O   UNL     1       0.058   2.208  -9.517  0.00  0.00    -0.126 OA
ENDBRANCH  36  38
ENDBRANCH  29  32
ENDBRANCH  25  26
ENDBRANCH   2  25
TORSDOF 7
