REMARK  Name = ZINC36245357
REMARK  5 active torsions:
REMARK  status: ('A' for Active; 'I' for Inactive)
REMARK    1  A    between atoms: N_7  and  C_8
REMARK    2  A    between atoms: C_8  and  C_10
REMARK    3  A    between atoms: C_8  and  C_21
REMARK    4  A    between atoms: C_19  and  O_20
REMARK    5  A    between atoms: C_26  and  O_27
REMARK                            x       y       z     vdW  Elec       q    Type
REMARK                         _______ _______ _______ _____ _____    ______ ____
ROOT
ATOM      1  C   UNL     1       0.006  -2.809  -0.014  0.00  0.00    +0.139 C 
ENDROOT
BRANCH   1   2
ATOM      2  C   UNL     1       0.391  -4.155  -0.573  0.00  0.00    +0.021 A 
ATOM      3  C   UNL     1       0.502  -5.247   0.284  0.00  0.00    +0.010 A 
ATOM      4  C   UNL     1       0.848  -6.476  -0.189  0.00  0.00    +0.010 A 
ATOM      5  C   UNL     1       1.098  -6.649  -1.560  0.00  0.00    +0.004 A 
ATOM      6  C   UNL     1       1.457  -7.905  -2.087  0.00  0.00    +0.011 A 
ATOM      7  C   UNL     1       1.685  -7.999  -3.430  0.00  0.00    +0.020 A 
ATOM      8  C   UNL     1       1.559  -6.870  -4.237  0.00  0.00    +0.111 A 
ATOM      9  N   UNL     1       1.224  -5.703  -3.743  0.00  0.00    -0.251 NA
ATOM     10  C   UNL     1       0.987  -5.543  -2.438  0.00  0.00    +0.113 A 
ATOM     11  C   UNL     1       0.621  -4.286  -1.912  0.00  0.00    +0.148 A 
BRANCH  11  12
ATOM     12  O   UNL     1       0.503  -3.211  -2.734  0.00  0.00    -0.504 OA
ATOM     13  H   UNL     1       1.322  -2.708  -2.844  0.00  0.00    +0.292 HD
ENDBRANCH  11  12
ENDBRANCH   1   2
BRANCH   1  20
ATOM     14  C   UNL     1      -0.348   1.370  -0.107  0.00  0.00    +0.005 A 
ATOM     15  C   UNL     1       0.804   2.143  -0.045  0.00  0.00    +0.018 A 
ATOM     16  C   UNL     1       2.033   1.520   0.046  0.00  0.00    +0.084 A 
ATOM     17  N   UNL     1       2.123   0.204   0.074  0.00  0.00    -0.350 N 
ATOM     18  C   UNL     1       1.049  -0.567   0.017  0.00  0.00    +0.097 A 
ATOM     19  C   UNL     1      -0.221  -0.007  -0.075  0.00  0.00    +0.041 A 
ATOM     20  N   UNL     1       1.191  -1.950   0.049  0.00  0.00    -0.319 N 
ATOM     21  H   UNL     1       2.074  -2.345   0.114  0.00  0.00    +0.148 HD
ATOM     22  H   UNL     1       2.999  -0.208   0.139  0.00  0.00    +0.166 HD
ENDBRANCH   1  20
BRANCH   1  23
ATOM     23  C   UNL     1      -0.562  -2.984   1.371  0.00  0.00    +0.020 A 
ATOM     24  C   UNL     1       0.251  -2.826   2.477  0.00  0.00    +0.029 A 
ATOM     25  C   UNL     1      -0.270  -2.986   3.748  0.00  0.00    +0.042 A 
ATOM     26  C   UNL     1      -1.606  -3.306   3.915  0.00  0.00    +0.023 A 
ATOM     27  C   UNL     1      -2.422  -3.465   2.812  0.00  0.00    +0.047 A 
ATOM     28  C   UNL     1      -1.903  -3.299   1.536  0.00  0.00    +0.122 A 
ATOM     29 CL   UNL     1       0.754  -2.788   5.136  0.00  0.00    -0.084 Cl
BRANCH  28  30
ATOM     30  O   UNL     1      -2.705  -3.449   0.450  0.00  0.00    -0.506 OA
ATOM     31  H   UNL     1      -2.682  -4.335   0.063  0.00  0.00    +0.292 HD
ENDBRANCH  28  30
ENDBRANCH   1  23
TORSDOF 5
