REMARK  Name = ZINC33374673
REMARK  7 active torsions:
REMARK  status: ('A' for Active; 'I' for Inactive)
REMARK    1  A    between atoms: C_3  and  C_9
REMARK    2  A    between atoms: C_4  and  O_8
REMARK    3  A    between atoms: C_6  and  O_7
REMARK    4  A    between atoms: C_18  and  C_26
REMARK    5  A    between atoms: C_19  and  N_25
REMARK    6  A    between atoms: C_20  and  C_21
REMARK    7  A    between atoms: C_20  and  C_23
REMARK                            x       y       z     vdW  Elec       q    Type
REMARK                         _______ _______ _______ _____ _____    ______ ____
ROOT
ATOM      1  C   UNL     1       1.235  -2.187  -0.022  0.00  0.00    +0.070 C 
ATOM      2  C   UNL     1       1.839  -2.683  -1.337  0.00  0.00    +0.030 C 
ATOM      3  C   UNL     1       0.928  -2.416  -2.512  0.00  0.00    +0.009 C 
ATOM      4  C   UNL     1       1.312  -1.183  -3.288  0.00  0.00    +0.005 C 
ATOM      5  C   UNL     1       2.752  -1.359  -3.790  0.00  0.00    +0.027 C 
ATOM      6  C   UNL     1       3.643  -1.508  -2.585  0.00  0.00    -0.022 C 
ATOM      7  C   UNL     1       3.207  -2.086  -1.483  0.00  0.00    -0.029 C 
ATOM      8  C   UNL     1       4.085  -2.114  -0.283  0.00  0.00    +0.074 C 
ATOM      9  C   UNL     1       3.544  -2.388   0.930  0.00  0.00    +0.054 C 
ATOM     10  C   UNL     1       2.091  -2.694   1.139  0.00  0.00    +0.188 C 
ENDROOT
BRANCH   1  13
ATOM     11  C   UNL     1       2.353   1.406   0.274  0.00  0.00    +0.046 A 
ATOM     12  C   UNL     1       2.369   0.024   0.265  0.00  0.00    +0.011 A 
ATOM     13  C   UNL     1       1.214  -0.680  -0.013  0.00  0.00    +0.001 A 
ATOM     14  C   UNL     1       0.034  -0.002  -0.285  0.00  0.00    +0.124 A 
ATOM     15  C   UNL     1       0.015   1.384  -0.278  0.00  0.00    +0.091 A 
ATOM     16  C   UNL     1       1.176   2.089   0.002  0.00  0.00    +0.120 A 
BRANCH  16  17
ATOM     17  O   UNL     1       1.161   3.448   0.010  0.00  0.00    -0.507 OA
ATOM     18  H   UNL     1       0.228   3.989  -0.205  0.00  0.00    +0.292 HD
ENDBRANCH  16  17
BRANCH  14  19
ATOM     19  O   UNL     1      -1.102  -0.696  -0.560  0.00  0.00    -0.506 OA
ATOM     20  H   UNL     1      -2.037  -0.158  -0.775  0.00  0.00    +0.292 HD
ENDBRANCH  14  19
ENDBRANCH   1  13
BRANCH   9  21
ATOM     21  N   UNL     1       4.367  -2.385   2.021  0.00  0.00    -0.358 N 
ATOM     22  H   UNL     1       3.959  -2.604   3.019  0.00  0.00    +0.142 HD
ATOM     23  H   UNL     1       5.438  -2.165   1.901  0.00  0.00    +0.142 HD
ENDBRANCH   9  21
BRANCH  10  24
ATOM     24  C   UNL     1       1.640  -2.053   2.385  0.00  0.00    +0.091 C 
ATOM     25  N   UNL     1       1.291  -1.558   3.346  0.00  0.00    -0.194 NA
ENDBRANCH  10  24
BRANCH  10  26
ATOM     26  C   UNL     1       1.920  -4.151   1.262  0.00  0.00    +0.091 C 
ATOM     27  N   UNL     1       1.788  -5.275   1.357  0.00  0.00    -0.194 NA
ENDBRANCH  10  26
BRANCH   8  28
ATOM     28  C   UNL     1       5.487  -1.854  -0.407  0.00  0.00    +0.101 C 
ATOM     29  N   UNL     1       6.600  -1.648  -0.506  0.00  0.00    -0.191 NA
ENDBRANCH   8  28
TORSDOF 7
