REMARK  Name = ZINC01221378
REMARK  10 active torsions:
REMARK  status: ('A' for Active; 'I' for Inactive)
REMARK    1  A    between atoms: C_1  and  C_2
REMARK    2  A    between atoms: C_2  and  N_3
REMARK    3  A    between atoms: N_3  and  C_4
REMARK    4  A    between atoms: N_3  and  C_6
REMARK    5  A    between atoms: C_4  and  C_5
REMARK    6  A    between atoms: C_18  and  N_38
REMARK    7  A    between atoms: C_19  and  C_36
REMARK    8  A    between atoms: C_20  and  C_22
REMARK    9  A    between atoms: C_27  and  C_35
REMARK   10  A    between atoms: C_28  and  C_34
REMARK                            x       y       z     vdW  Elec       q    Type
REMARK                         _______ _______ _______ _____ _____    ______ ____
ROOT
ATOM      1  C   UNL     1       1.177   2.083   0.002  0.00  0.00    +0.033 A 
ATOM      2  C   UNL     1      -0.016   1.361   0.009  0.00  0.00    +0.024 A 
ATOM      3  C   UNL     1       0.002  -0.004   0.002  0.00  0.00    +0.017 A 
ATOM      4  C   UNL     1       1.224  -0.683  -0.013  0.00  0.00    +0.060 A 
ATOM      5  C   UNL     1       2.432   0.038  -0.022  0.00  0.00    +0.144 A 
ATOM      6  C   UNL     1       2.398   1.423  -0.014  0.00  0.00    +0.070 A 
ATOM      7  O   UNL     1       3.609  -0.625  -0.038  0.00  0.00    -0.422 OA
ATOM      8  C   UNL     1       3.662  -1.966  -0.044  0.00  0.00    +0.345 A 
ATOM      9  O   UNL     1       4.750  -2.515  -0.058  0.00  0.00    -0.245 OA
ATOM     10  C   UNL     1       2.501  -2.754  -0.034  0.00  0.00    +0.092 A 
ATOM     11  C   UNL     1       1.276  -2.151  -0.020  0.00  0.00    +0.152 A 
ATOM     12  O   UNL     1       0.137  -2.869  -0.013  0.00  0.00    -0.440 OA
ATOM     13  C   UNL     1       0.153  -4.159  -0.396  0.00  0.00    +0.199 C 
ATOM     14  C   UNL     1       1.303  -4.874  -0.430  0.00  0.00    +0.098 C 
ATOM     15  C   UNL     1       2.615  -4.255  -0.040  0.00  0.00    +0.110 C 
ENDROOT
BRANCH  15  16
ATOM     16  C   UNL     1       3.002  -4.731   1.337  0.00  0.00    +0.030 A 
ATOM     17  C   UNL     1       4.154  -5.424   1.513  0.00  0.00    +0.020 A 
ATOM     18  C   UNL     1       4.501  -5.872   2.863  0.00  0.00    -0.001 A 
ATOM     19  C   UNL     1       5.676  -6.590   3.107  0.00  0.00    +0.010 A 
ATOM     20  C   UNL     1       5.971  -6.994   4.379  0.00  0.00    +0.004 A 
ATOM     21  C   UNL     1       5.116  -6.697   5.431  0.00  0.00    -0.046 A 
ATOM     22  C   UNL     1       3.953  -5.990   5.214  0.00  0.00    -0.024 A 
ATOM     23  C   UNL     1       3.631  -5.569   3.927  0.00  0.00    +0.052 A 
ATOM     24  N   UNL     1       2.474  -4.860   3.682  0.00  0.00    -0.322 N 
ATOM     25  H   UNL     1       1.856  -4.649   4.438  0.00  0.00    +0.169 HD
ATOM     26  C   UNL     1       2.167  -4.448   2.439  0.00  0.00    +0.253 A 
ATOM     27  O   UNL     1       1.138  -3.819   2.259  0.00  0.00    -0.268 OA
ATOM     28  C   UNL     1       3.033  -5.675   6.365  0.00  0.00    +0.046 C 
ATOM     29  C   UNL     1       5.462  -7.152   6.825  0.00  0.00    +0.044 C 
ENDBRANCH  15  16
BRANCH  13  30
ATOM     30  N   UNL     1      -1.024  -4.764  -0.760  0.00  0.00    -0.328 N 
ATOM     31  H   UNL     1      -1.026  -5.693  -1.038  0.00  0.00    +0.145 HD
ATOM     32  H   UNL     1      -1.854  -4.262  -0.739  0.00  0.00    +0.145 HD
ENDBRANCH  13  30
BRANCH  14  33
ATOM     33  C   UNL     1       1.267  -6.244  -0.846  0.00  0.00    +0.101 C 
ATOM     34  N   UNL     1       1.238  -7.331  -1.177  0.00  0.00    -0.191 NA
ENDBRANCH  14  33
BRANCH   1  35
ATOM     35  N   UNL     1       1.143   3.474   0.010  0.00  0.00    -0.330 N 
BRANCH  35  37
ATOM     36  C   UNL     1      -0.577   4.411   1.475  0.00  0.00    +0.024 C 
ATOM     37  C   UNL     1      -0.143   4.175   0.027  0.00  0.00    +0.102 C 
ENDBRANCH  35  37
BRANCH  35  38
ATOM     38  C   UNL     1       2.394   4.237   0.002  0.00  0.00    +0.102 C 
ATOM     39  C   UNL     1       2.815   4.511  -1.443  0.00  0.00    +0.024 C 
ENDBRANCH  35  38
ENDBRANCH   1  35
TORSDOF 6
