REMARK  Name = ZINC15942393
REMARK  6 active torsions:
REMARK  status: ('A' for Active; 'I' for Inactive)
REMARK    1  A    between atoms: C_1  and  C_2
REMARK    2  A    between atoms: C_6  and  C_9
REMARK    3  A    between atoms: C_7  and  C_8
REMARK    4  A    between atoms: N_11  and  N_12
REMARK    5  A    between atoms: C_13  and  C_15
REMARK    6  A    between atoms: C_16  and  C_24
REMARK                            x       y       z     vdW  Elec       q    Type
REMARK                         _______ _______ _______ _____ _____    ______ ____
ROOT
ATOM      1  N   UNL     1       0.098   0.895  -0.937  0.00  0.00    -0.228 N 
ATOM      2  C   UNL     1      -1.071   1.535  -1.137  0.00  0.00    +0.296 C 
ATOM      3  O   UNL     1      -1.111   2.751  -1.110  0.00  0.00    -0.265 OA
ATOM      4  H   UNL     1       0.130  -0.074  -0.959  0.00  0.00    +0.173 HD
ENDROOT
BRANCH   2   5
ATOM      5  C   UNL     1      -2.298   0.765  -1.388  0.00  0.00    +0.195 A 
ATOM      6  C   UNL     1      -3.528   1.300  -1.597  0.00  0.00    +0.008 A 
ATOM      7  C   UNL     1      -4.433   0.170  -1.803  0.00  0.00    +0.024 A 
ATOM      8  C   UNL     1      -5.800   0.051  -2.061  0.00  0.00    +0.012 A 
ATOM      9  C   UNL     1      -6.358  -1.188  -2.200  0.00  0.00    +0.001 A 
ATOM     10  C   UNL     1      -5.575  -2.329  -2.086  0.00  0.00    +0.004 A 
ATOM     11  C   UNL     1      -4.225  -2.234  -1.832  0.00  0.00    +0.047 A 
ATOM     12  C   UNL     1      -3.634  -0.983  -1.686  0.00  0.00    +0.136 A 
ATOM     13  O   UNL     1      -2.372  -0.582  -1.440  0.00  0.00    -0.450 OA
ATOM     14  C   UNL     1      -3.888   2.764  -1.616  0.00  0.00    +0.048 C 
ENDBRANCH   2   5
BRANCH   1  17
ATOM     15  C   UNL     1       2.438   0.989  -0.509  0.00  0.00    +0.260 C 
ATOM     16  O   UNL     1       2.478  -0.226  -0.536  0.00  0.00    -0.269 OA
ATOM     17  N   UNL     1       1.268   1.629  -0.704  0.00  0.00    -0.230 N 
ATOM     18  H   UNL     1       1.236   2.598  -0.682  0.00  0.00    +0.173 HD
BRANCH  15  24
ATOM     19  C   UNL     1       7.289   1.127   0.651  0.00  0.00    +0.044 C 
ATOM     20  C   UNL     1       6.007   1.835   0.295  0.00  0.00    -0.047 A 
ATOM     21  C   UNL     1       5.985   3.216   0.199  0.00  0.00    +0.003 A 
ATOM     22  C   UNL     1       4.812   3.874  -0.128  0.00  0.00    +0.001 A 
ATOM     23  C   UNL     1       3.657   3.156  -0.359  0.00  0.00    +0.013 A 
ATOM     24  C   UNL     1       3.672   1.764  -0.263  0.00  0.00    +0.041 A 
ATOM     25  C   UNL     1       4.857   1.107   0.073  0.00  0.00    -0.035 A 
ATOM     26  C   UNL     1       4.882  -0.396   0.185  0.00  0.00    +0.045 C 
ENDBRANCH  15  24
ENDBRANCH   1  17
TORSDOF 3
