REMARK  Name = ZINC04180561
REMARK  10 active torsions:
REMARK  status: ('A' for Active; 'I' for Inactive)
REMARK    1  A    between atoms: C_1  and  C_2
REMARK    2  A    between atoms: C_4  and  C_23
REMARK    3  A    between atoms: C_7  and  C_14
REMARK    4  A    between atoms: C_9  and  C_13
REMARK    5  A    between atoms: C_18  and  O_21
REMARK    6  A    between atoms: C_19  and  O_20
REMARK    7  A    between atoms: O_21  and  C_22
REMARK    8  A    between atoms: C_27  and  O_30
REMARK    9  A    between atoms: C_28  and  O_29
REMARK   10  A    between atoms: O_30  and  C_31
REMARK                            x       y       z     vdW  Elec       q    Type
REMARK                         _______ _______ _______ _____ _____    ______ ____
ROOT
ATOM      1  C   UNL     1       0.007   1.540   0.255  0.00  0.00    +0.014 C 
ATOM      2  C   UNL     1       0.003   0.010   0.244  0.00  0.00    +0.043 C 
ATOM      3  C   UNL     1       0.613  -0.499  -1.067  0.00  0.00    -0.026 C 
ATOM      4  N   UNL     1       2.029  -0.119  -1.128  0.00  0.00    +0.389 N 
ATOM      5  C   UNL     1       2.790  -0.832  -0.095  0.00  0.00    -0.026 C 
ATOM      6  C   UNL     1       2.347  -0.348   1.291  0.00  0.00    +0.043 C 
ATOM      7  C   UNL     1       0.843  -0.511   1.391  0.00  0.00    +0.136 C 
ATOM      8  O   UNL     1       0.333  -1.038   2.351  0.00  0.00    -0.297 OA
ATOM      9  C   UNL     1       3.031  -1.186   2.373  0.00  0.00    +0.014 C 
ATOM     10  H   UNL     1       2.399  -0.354  -2.037  0.00  0.00    -0.084 HD
ATOM     11  H   UNL     1       2.115   0.875  -0.981  0.00  0.00    -0.084 HD
ENDROOT
BRANCH   5  12
ATOM     12  C   UNL     1       2.535  -2.313  -0.215  0.00  0.00    -0.016 A 
ATOM     13  C   UNL     1       1.725  -2.952   0.706  0.00  0.00    +0.006 A 
ATOM     14  C   UNL     1       1.489  -4.309   0.598  0.00  0.00    +0.004 A 
ATOM     15  C   UNL     1       2.063  -5.035  -0.430  0.00  0.00    +0.049 A 
ATOM     16  C   UNL     1       2.876  -4.401  -1.355  0.00  0.00    +0.161 A 
ATOM     17  C   UNL     1       3.108  -3.032  -1.251  0.00  0.00    +0.160 A 
BRANCH  17  18
ATOM     18  O   UNL     1       3.900  -2.404  -2.160  0.00  0.00    -0.503 OA
ATOM     19  H   UNL     1       4.845  -2.451  -1.958  0.00  0.00    +0.292 HD
ENDBRANCH  17  18
BRANCH  16  20
ATOM     20  O   UNL     1       3.441  -5.112  -2.367  0.00  0.00    -0.491 OA
ATOM     21  C   UNL     1       3.153  -6.511  -2.415  0.00  0.00    +0.277 C 
ENDBRANCH  16  20
ENDBRANCH   5  12
BRANCH   3  22
ATOM     22  C   UNL     1      -0.122   0.111  -2.233  0.00  0.00    -0.016 A 
ATOM     23  C   UNL     1       0.422   1.191  -2.904  0.00  0.00    +0.006 A 
ATOM     24  C   UNL     1      -0.248   1.753  -3.974  0.00  0.00    +0.004 A 
ATOM     25  C   UNL     1      -1.467   1.239  -4.377  0.00  0.00    +0.049 A 
ATOM     26  C   UNL     1      -2.018   0.158  -3.709  0.00  0.00    +0.161 A 
ATOM     27  C   UNL     1      -1.339  -0.413  -2.636  0.00  0.00    +0.160 A 
BRANCH  27  28
ATOM     28  O   UNL     1      -1.873  -1.478  -1.980  0.00  0.00    -0.503 OA
ATOM     29  H   UNL     1      -2.446  -1.237  -1.239  0.00  0.00    +0.292 HD
ENDBRANCH  27  28
BRANCH  26  30
ATOM     30  O   UNL     1      -3.216  -0.349  -4.104  0.00  0.00    -0.491 OA
ATOM     31  C   UNL     1      -3.853   0.282  -5.217  0.00  0.00    +0.277 C 
ENDBRANCH  26  30
ENDBRANCH   3  22
TORSDOF 6
