REMARK  Name = ZINC47321214
REMARK  6 active torsions:
REMARK  status: ('A' for Active; 'I' for Inactive)
REMARK    1  A    between atoms: C_4  and  N_7
REMARK    2  A    between atoms: N_10  and  C_11
REMARK    3  A    between atoms: N_10  and  C_19
REMARK    4  A    between atoms: C_11  and  C_12
REMARK    5  A    between atoms: C_17  and  O_18
REMARK    6  A    between atoms: C_19  and  C_20
REMARK                            x       y       z     vdW  Elec       q    Type
REMARK                         _______ _______ _______ _____ _____    ______ ____
ROOT
ATOM      1  N   UNL     1       3.622  -0.651  -0.036  0.00  0.00    -0.269 N 
ATOM      2  C   UNL     1       3.645  -1.995   0.058  0.00  0.00    +0.307 C 
ATOM      3  O   UNL     1       2.603  -2.622   0.065  0.00  0.00    -0.252 OA
ATOM      4  N   UNL     1       4.823  -2.644   0.144  0.00  0.00    -0.274 N 
ATOM      5  H   UNL     1       4.452  -0.156  -0.120  0.00  0.00    +0.156 HD
ENDROOT
BRANCH   1   9
ATOM      6  C   UNL     1      -0.015   1.380   0.030  0.00  0.00    +0.000 A 
ATOM      7  C   UNL     1       0.140   0.218   0.764  0.00  0.00    +0.002 A 
ATOM      8  C   UNL     1       1.344  -0.457   0.744  0.00  0.00    +0.023 A 
ATOM      9  C   UNL     1       2.400   0.031  -0.014  0.00  0.00    +0.035 A 
ATOM     10  C   UNL     1       2.241   1.198  -0.750  0.00  0.00    +0.023 A 
ATOM     11  C   UNL     1       1.034   1.869  -0.726  0.00  0.00    +0.002 A 
ENDBRANCH   1   9
BRANCH   4  12
ATOM     12  C   UNL     1       4.848  -4.106   0.247  0.00  0.00    +0.148 C 
BRANCH  12  13
ATOM     13  C   UNL     1       4.906  -4.705  -1.134  0.00  0.00    +0.011 A 
ATOM     14  C   UNL     1       3.756  -5.189  -1.727  0.00  0.00    +0.009 A 
ATOM     15  C   UNL     1       3.808  -5.739  -2.994  0.00  0.00    +0.001 A 
ATOM     16  C   UNL     1       5.012  -5.807  -3.672  0.00  0.00    +0.004 A 
ATOM     17  C   UNL     1       6.165  -5.325  -3.083  0.00  0.00    +0.046 A 
ATOM     18  C   UNL     1       6.114  -4.767  -1.814  0.00  0.00    +0.122 A 
BRANCH  18  19
ATOM     19  O   UNL     1       7.246  -4.287  -1.235  0.00  0.00    -0.506 OA
ATOM     20  H   UNL     1       7.731  -4.942  -0.716  0.00  0.00    +0.292 HD
ENDBRANCH  18  19
ENDBRANCH  12  13
ENDBRANCH   4  12
BRANCH   4  21
ATOM     21  C   UNL     1       6.078  -1.889   0.136  0.00  0.00    +0.183 C 
BRANCH  21  22
ATOM     22  C   UNL     1       6.459  -1.531   1.549  0.00  0.00    +0.122 A 
ATOM     23  C   UNL     1       7.223  -2.274   2.370  0.00  0.00    +0.046 A 
ATOM     24  C   UNL     1       7.323  -1.566   3.589  0.00  0.00    +0.041 A 
ATOM     25  C   UNL     1       6.614  -0.433   3.441  0.00  0.00    +0.195 A 
ATOM     26  O   UNL     1       6.097  -0.414   2.202  0.00  0.00    -0.466 OA
ENDBRANCH  21  22
ENDBRANCH   4  21
TORSDOF 6
