REMARK  Name = ZINC44965578
REMARK  4 active torsions:
REMARK  status: ('A' for Active; 'I' for Inactive)
REMARK    1  A    between atoms: C_1  and  C_2
REMARK    2  A    between atoms: C_4  and  C_14
REMARK    3  A    between atoms: C_5  and  N_9
REMARK    4  A    between atoms: C_7  and  N_8
REMARK                            x       y       z     vdW  Elec       q    Type
REMARK                         _______ _______ _______ _____ _____    ______ ____
ROOT
ATOM      1  C   UNL     1      -0.018   1.503   0.010  0.00  0.00    +0.045 C 
ATOM      2  C   UNL     1       0.002  -0.004   0.002  0.00  0.00    -0.029 A 
ATOM      3  C   UNL     1       0.006  -0.688  -1.199  0.00  0.00    +0.010 A 
ATOM      4  C   UNL     1       0.024  -2.069  -1.210  0.00  0.00    -0.026 A 
ATOM      5  C   UNL     1       0.039  -2.775  -0.014  0.00  0.00    +0.054 A 
ATOM      6  C   UNL     1       0.036  -2.093   1.193  0.00  0.00    +0.049 A 
ATOM      7  C   UNL     1       0.023  -0.705   1.202  0.00  0.00    +0.029 A 
ATOM      8  C   UNL     1       0.027  -2.811  -2.522  0.00  0.00    +0.046 C 
ENDROOT
BRANCH   5   9
ATOM      9  N   UNL     1       0.057  -4.178  -0.028  0.00  0.00    -0.288 N 
ATOM     10  C   UNL     1      -0.764  -5.004  -0.734  0.00  0.00    +0.229 A 
ATOM     11  N   UNL     1      -0.409  -6.229  -0.460  0.00  0.00    -0.138 NA
ATOM     12  N   UNL     1       0.576  -6.224   0.366  0.00  0.00    -0.138 NA
ATOM     13  C   UNL     1       0.904  -4.996   0.659  0.00  0.00    +0.229 A 
ENDBRANCH   5   9
BRANCH   7  14
ATOM     14  N   UNL     1       0.025  -0.013   2.415  0.00  0.00    -0.358 N 
ATOM     15  H   UNL     1       0.012   0.957   2.421  0.00  0.00    +0.142 HD
ATOM     16  H   UNL     1       0.040  -0.503   3.252  0.00  0.00    +0.142 HD
ENDBRANCH   7  14
TORSDOF 2
