REMARK  Name = ZINC59830689
REMARK  10 active torsions:
REMARK  status: ('A' for Active; 'I' for Inactive)
REMARK    1  A    between atoms: C_1  and  C_2
REMARK    2  A    between atoms: C_2  and  C_3
REMARK    3  A    between atoms: N_5  and  N_6
REMARK    4  A    between atoms: C_7  and  C_9
REMARK    5  A    between atoms: C_9  and  S_10
REMARK    6  A    between atoms: S_10  and  C_11
REMARK    7  A    between atoms: N_16  and  N_17
REMARK    8  A    between atoms: C_18  and  C_19
REMARK    9  A    between atoms: C_18  and  C_20
REMARK   10  A    between atoms: C_25  and  O_26
REMARK                            x       y       z     vdW  Elec       q    Type
REMARK                         _______ _______ _______ _____ _____    ______ ____
ROOT
ATOM      1  C   UNL     1       3.218  -6.293  -5.575  0.00  0.00    +0.211 A 
ATOM      2  N   UNL     1       3.471  -7.531  -6.011  0.00  0.00    -0.186 NA
ATOM      3  C   UNL     1       4.119  -7.473  -7.156  0.00  0.00    +0.232 A 
ATOM      4  N   UNL     1       4.291  -6.172  -7.472  0.00  0.00    -0.245 N 
ATOM      5  N   UNL     1       3.696  -5.430  -6.439  0.00  0.00    -0.144 NA
ATOM      6  N   UNL     1       4.548  -8.555  -7.903  0.00  0.00    -0.205 N 
ATOM      7  H   UNL     1       5.020  -8.411  -8.738  0.00  0.00    +0.177 HD
ATOM      8  H   UNL     1       4.735  -5.819  -8.259  0.00  0.00    +0.192 HD
ENDROOT
BRANCH   6   9
ATOM      9  N   UNL     1       4.300  -9.858  -7.454  0.00  0.00    -0.184 NA
ATOM     10  C   UNL     1       4.703 -10.874  -8.155  0.00  0.00    +0.067 C 
ATOM     11  C   UNL     1       5.437 -10.650  -9.453  0.00  0.00    +0.068 C 
BRANCH  10  12
ATOM     12  C   UNL     1       4.442 -12.245  -7.683  0.00  0.00    +0.039 A 
ATOM     13  C   UNL     1       4.879 -13.341  -8.432  0.00  0.00    +0.013 A 
ATOM     14  C   UNL     1       4.631 -14.622  -7.984  0.00  0.00    +0.001 A 
ATOM     15  C   UNL     1       3.952 -14.827  -6.796  0.00  0.00    +0.004 A 
ATOM     16  C   UNL     1       3.515 -13.751  -6.046  0.00  0.00    +0.046 A 
ATOM     17  C   UNL     1       3.760 -12.458  -6.478  0.00  0.00    +0.126 A 
BRANCH  17  18
ATOM     18  O   UNL     1       3.336 -11.400  -5.739  0.00  0.00    -0.506 OA
ATOM     19  H   UNL     1       2.444 -11.098  -5.960  0.00  0.00    +0.292 HD
ENDBRANCH  17  18
ENDBRANCH  10  12
ENDBRANCH   6   9
BRANCH   1  20
ATOM     20  S   UNL     1       2.371  -5.886  -4.084  0.00  0.00    -0.075 S 
BRANCH  20  21
ATOM     21  C   UNL     1       2.347  -4.072  -4.074  0.00  0.00    +0.174 C 
BRANCH  21  23
ATOM     22  N   UNL     1       1.502  -2.264  -2.612  0.00  0.00    -0.234 N 
ATOM     23  C   UNL     1       1.641  -3.586  -2.834  0.00  0.00    +0.239 C 
ATOM     24  O   UNL     1       1.199  -4.385  -2.036  0.00  0.00    -0.273 OA
ATOM     25  H   UNL     1       1.856  -1.625  -3.251  0.00  0.00    +0.173 HD
BRANCH  22  28
ATOM     26  C   UNL     1       0.707  -0.490  -1.238  0.00  0.00    +0.229 C 
ATOM     27  O   UNL     1       1.150   0.308  -2.036  0.00  0.00    -0.274 OA
ATOM     28  N   UNL     1       0.847  -1.812  -1.460  0.00  0.00    -0.234 N 
ATOM     29  H   UNL     1       0.493  -2.451  -0.821  0.00  0.00    +0.173 HD
BRANCH  26  31
ATOM     30  C   UNL     1      -0.019   1.526   0.010  0.00  0.00    +0.013 C 
ATOM     31  C   UNL     1       0.002  -0.004   0.002  0.00  0.00    +0.094 C 
ENDBRANCH  26  31
ENDBRANCH  22  28
ENDBRANCH  21  23
ENDBRANCH  20  21
ENDBRANCH   1  20
TORSDOF 8
