REMARK  Name = ZINC20357484
REMARK  4 active torsions:
REMARK  status: ('A' for Active; 'I' for Inactive)
REMARK    1  A    between atoms: C_1  and  C_2
REMARK    2  A    between atoms: C_2  and  S_3
REMARK    3  A    between atoms: S_3  and  C_4
REMARK    4  A    between atoms: N_14  and  C_17
REMARK                            x       y       z     vdW  Elec       q    Type
REMARK                         _______ _______ _______ _____ _____    ______ ____
ROOT
ATOM      1  C   UNL     1      -1.526  -2.424  -0.321  0.00  0.00    +0.191 A 
ATOM      2  N   UNL     1      -0.304  -2.944  -0.319  0.00  0.00    -0.207 NA
ATOM      3  C   UNL     1      -0.081  -4.211  -0.014  0.00  0.00    +0.129 A 
ATOM      4  C   UNL     1      -1.179  -5.051   0.323  0.00  0.00    +0.051 A 
ATOM      5  C   UNL     1      -1.172  -6.467   0.688  0.00  0.00    -0.022 A 
ATOM      6  C   UNL     1      -2.364  -7.036   0.965  0.00  0.00    +0.010 A 
ATOM      7  S   UNL     1      -3.553  -5.739   0.761  0.00  0.00    -0.072 S 
ATOM      8  C   UNL     1      -2.446  -4.432   0.301  0.00  0.00    +0.115 A 
ATOM      9  N   UNL     1      -2.586  -3.157  -0.009  0.00  0.00    -0.215 NA
ATOM     10  C   UNL     1      -2.604  -8.461   1.356  0.00  0.00    +0.126 C 
ATOM     11  N   UNL     1      -1.387  -9.236   1.049  0.00  0.00    -0.300 NA
ATOM     12  C   UNL     1      -0.196  -8.560   1.582  0.00  0.00    +0.089 C 
ATOM     13  C   UNL     1       0.104  -7.301   0.766  0.00  0.00    +0.052 C 
ATOM     14  C   UNL     1      -1.491 -10.607   1.566  0.00  0.00    +0.105 C 
ATOM     15  N   UNL     1       1.207  -4.715  -0.024  0.00  0.00    -0.343 N 
ATOM     16  H   UNL     1       1.964  -4.112  -0.097  0.00  0.00    +0.144 HD
ATOM     17  H   UNL     1       1.354  -5.672   0.043  0.00  0.00    +0.144 HD
ENDROOT
BRANCH   1  18
ATOM     18  S   UNL     1      -1.742  -0.726  -0.738  0.00  0.00    -0.086 S 
BRANCH  18  20
ATOM     19  C   UNL     1      -0.102   1.340  -1.462  0.00  0.00    +0.016 C 
ATOM     20  C   UNL     1      -0.059  -0.141  -1.081  0.00  0.00    +0.074 C 
ENDBRANCH  18  20
ENDBRANCH   1  18
TORSDOF 2
