REMARK  Name = ZINC63075467
REMARK  1 active torsions:
REMARK  status: ('A' for Active; 'I' for Inactive)
REMARK    1  A    between atoms: C_9  and  C_11
REMARK                            x       y       z     vdW  Elec       q    Type
REMARK                         _______ _______ _______ _____ _____    ______ ____
ROOT
ATOM      1  C   UNL     1      -0.016   1.358   0.009  0.00  0.00    +0.001 A 
ATOM      2  C   UNL     1       1.170   2.089   0.002  0.00  0.00    +0.002 A 
ATOM      3  C   UNL     1       2.379   1.465  -0.013  0.00  0.00    +0.028 A 
ATOM      4  C   UNL     1       2.439   0.060  -0.021  0.00  0.00    +0.072 A 
ATOM      5  C   UNL     1       1.231  -0.682  -0.013  0.00  0.00    +0.000 A 
ATOM      6  C   UNL     1       0.002  -0.004   0.002  0.00  0.00    +0.010 A 
ATOM      7  C   UNL     1       1.290  -2.090  -0.021  0.00  0.00    +0.012 A 
ATOM      8  C   UNL     1       2.516  -2.685  -0.036  0.00  0.00    +0.032 A 
ATOM      9  C   UNL     1       3.676  -1.895  -0.043  0.00  0.00    +0.109 A 
ATOM     10  N   UNL     1       3.613  -0.577  -0.035  0.00  0.00    -0.244 NA
ENDROOT
BRANCH   9  11
ATOM     11  C   UNL     1       5.003  -2.557  -0.059  0.00  0.00    +0.189 A 
ATOM     12  N   UNL     1       6.120  -1.847  -0.061  0.00  0.00    -0.203 NA
ATOM     13  C   UNL     1       7.264  -2.506  -0.075  0.00  0.00    +0.176 A 
ATOM     14  S   UNL     1       6.767  -4.111  -0.086  0.00  0.00    +0.049 S 
ATOM     15  N   UNL     1       5.108  -3.870  -0.067  0.00  0.00    -0.186 NA
ATOM     16  N   UNL     1       8.551  -2.001  -0.080  0.00  0.00    -0.336 N 
ATOM     17  H   UNL     1       8.696  -1.042  -0.073  0.00  0.00    +0.144 HD
ATOM     18  H   UNL     1       9.309  -2.606  -0.091  0.00  0.00    +0.144 HD
ENDBRANCH   9  11
TORSDOF 1
