REMARK  Name = ZINC54107562
REMARK  6 active torsions:
REMARK  status: ('A' for Active; 'I' for Inactive)
REMARK    1  A    between atoms: C_1  and  C_2
REMARK    2  A    between atoms: C_2  and  C_3
REMARK    3  A    between atoms: C_3  and  C_5
REMARK    4  A    between atoms: C_3  and  O_20
REMARK    5  A    between atoms: C_8  and  C_10
REMARK    6  A    between atoms: C_12  and  N_17
REMARK                            x       y       z     vdW  Elec       q    Type
REMARK                         _______ _______ _______ _____ _____    ______ ____
ROOT
ATOM      1  C   UNL     1       0.847  -1.998  -1.206  0.00  0.00    +0.134 A 
ATOM      2  C   UNL     1       1.917  -2.679  -0.751  0.00  0.00    +0.048 A 
ATOM      3  C   UNL     1       1.619  -4.051  -0.882  0.00  0.00    +0.050 A 
ATOM      4  C   UNL     1       0.370  -4.131  -1.414  0.00  0.00    +0.137 A 
ATOM      5  O   UNL     1      -0.087  -2.878  -1.600  0.00  0.00    -0.457 OA
ENDROOT
BRANCH   4   6
ATOM      6  C   UNL     1      -0.360  -5.377  -1.728  0.00  0.00    +0.038 A 
ATOM      7  C   UNL     1      -1.673  -5.550  -1.287  0.00  0.00    +0.045 A 
ATOM      8  C   UNL     1      -2.349  -6.715  -1.583  0.00  0.00    +0.127 A 
ATOM      9  C   UNL     1      -1.729  -7.712  -2.317  0.00  0.00    +0.034 A 
ATOM     10  C   UNL     1      -0.428  -7.548  -2.757  0.00  0.00    +0.023 A 
ATOM     11  C   UNL     1       0.259  -6.384  -2.472  0.00  0.00    +0.052 A 
ATOM     12 CL   UNL     1       1.889  -6.177  -3.032  0.00  0.00    -0.083 Cl
BRANCH   8  13
ATOM     13  N   UNL     1      -3.741  -6.900  -1.116  0.00  0.00    +0.056 N 
ATOM     14  O   UNL     1      -4.284  -6.031  -0.475  0.00  0.00    -0.126 OA
ATOM     15  O   UNL     1      -4.335  -7.921  -1.376  0.00  0.00    -0.126 OA
ENDBRANCH   8  13
ENDBRANCH   4   6
BRANCH   1  16
ATOM     16  C   UNL     1       0.718  -0.497  -1.257  0.00  0.00    +0.180 C 
BRANCH  16  18
ATOM     17  C   UNL     1      -0.019   1.526   0.010  0.00  0.00    +0.007 C 
ATOM     18  C   UNL     1       0.002  -0.004   0.002  0.00  0.00    +0.036 C 
ENDBRANCH  16  18
BRANCH  16  19
ATOM     19  O   UNL     1      -0.036  -0.123  -2.412  0.00  0.00    -0.384 OA
ATOM     20  H   UNL     1      -0.931  -0.487  -2.431  0.00  0.00    +0.210 HD
ENDBRANCH  16  19
ENDBRANCH   1  16
TORSDOF 5
