REMARK  Name = ZINC20477645
REMARK  7 active torsions:
REMARK  status: ('A' for Active; 'I' for Inactive)
REMARK    1  A    between atoms: C_1  and  N_2
REMARK    2  A    between atoms: C_9  and  C_22
REMARK    3  A    between atoms: C_11  and  C_18
REMARK    4  A    between atoms: C_11  and  C_20
REMARK    5  A    between atoms: C_12  and  N_17
REMARK    6  A    between atoms: C_13  and  C_14
REMARK    7  A    between atoms: C_25  and  C_28
REMARK                            x       y       z     vdW  Elec       q    Type
REMARK                         _______ _______ _______ _____ _____    ______ ____
ROOT
ATOM      1  C   UNL     1       1.883   7.343   2.212  0.00  0.00    -0.096 C 
ATOM      2  N   UNL     1       1.710   5.993   1.659  0.00  0.00    +0.381 N 
ATOM      3  C   UNL     1       0.306   5.755   1.278  0.00  0.00    -0.051 C 
ATOM      4  C   UNL     1       0.180   4.303   0.888  0.00  0.00    -0.041 C 
ATOM      5  C   UNL     1       1.191   3.687   0.302  0.00  0.00    -0.035 C 
ATOM      6  C   UNL     1       2.478   4.378  -0.043  0.00  0.00    +0.013 C 
ATOM      7  C   UNL     1       2.590   5.781   0.506  0.00  0.00    -0.070 C 
ATOM      8  C   UNL     1       3.636   3.487   0.412  0.00  0.00    +0.064 C 
ATOM      9  C   UNL     1       3.585   2.173  -0.367  0.00  0.00    +0.188 C 
ATOM     10  C   UNL     1       2.222   1.551  -0.323  0.00  0.00    +0.051 C 
ATOM     11  C   UNL     1       1.090   2.242  -0.023  0.00  0.00    +0.085 C 
ATOM     12  H   UNL     1       1.990   5.274   2.443  0.00  0.00    -0.082 HD
ENDROOT
BRANCH   8  13
ATOM     13  C   UNL     1       4.946   4.183   0.143  0.00  0.00    -0.041 A 
ATOM     14  C   UNL     1       5.937   4.181   1.108  0.00  0.00    +0.004 A 
ATOM     15  C   UNL     1       7.140   4.812   0.866  0.00  0.00    +0.009 A 
ATOM     16  C   UNL     1       7.352   5.461  -0.349  0.00  0.00    -0.018 A 
ATOM     17  C   UNL     1       6.348   5.464  -1.315  0.00  0.00    +0.009 A 
ATOM     18  C   UNL     1       5.150   4.825  -1.064  0.00  0.00    +0.004 A 
BRANCH  16  19
ATOM     19  C   UNL     1       8.641   6.147  -0.612  0.00  0.00    -0.018 A 
ATOM     20  C   UNL     1       8.854   6.791  -1.829  0.00  0.00    +0.008 A 
ATOM     21  C   UNL     1      10.054   7.431  -2.067  0.00  0.00    +0.001 A 
ATOM     22  C   UNL     1      11.047   7.425  -1.104  0.00  0.00    +0.000 A 
ATOM     23  C   UNL     1      10.842   6.782   0.103  0.00  0.00    +0.001 A 
ATOM     24  C   UNL     1       9.645   6.143   0.354  0.00  0.00    +0.008 A 
ENDBRANCH  16  19
ENDBRANCH   8  13
BRANCH  11  25
ATOM     25  C   UNL     1      -0.212   1.571  -0.025  0.00  0.00    +0.388 C 
ATOM     26  O   UNL     1      -0.964   1.707  -0.971  0.00  0.00    -0.241 OA
ATOM     27  O   UNL     1      -0.578   0.807   1.025  0.00  0.00    -0.241 OA
ENDBRANCH  11  25
BRANCH  10  28
ATOM     28  N   UNL     1       2.111   0.221  -0.600  0.00  0.00    -0.359 N 
ATOM     29  H   UNL     1       1.125  -0.265  -0.575  0.00  0.00    +0.142 HD
ATOM     30  H   UNL     1       3.008  -0.366  -0.847  0.00  0.00    +0.142 HD
ENDBRANCH  10  28
BRANCH   9  31
ATOM     31  C   UNL     1       4.560   1.234   0.212  0.00  0.00    +0.091 C 
ATOM     32  N   UNL     1       5.312   0.510   0.660  0.00  0.00    -0.194 NA
ENDBRANCH   9  31
BRANCH   9  33
ATOM     33  C   UNL     1       3.948   2.434  -1.770  0.00  0.00    +0.091 C 
ATOM     34  N   UNL     1       4.227   2.636  -2.852  0.00  0.00    -0.194 NA
ENDBRANCH   9  33
TORSDOF 6
