REMARK  Name = ZINC66289480
REMARK  6 active torsions:
REMARK  status: ('A' for Active; 'I' for Inactive)
REMARK    1  A    between atoms: C_2  and  C_3
REMARK    2  A    between atoms: C_3  and  N_4
REMARK    3  A    between atoms: C_5  and  C_7
REMARK    4  A    between atoms: C_12  and  N_13
REMARK    5  A    between atoms: C_14  and  C_16
REMARK    6  A    between atoms: C_16  and  N_17
REMARK                            x       y       z     vdW  Elec       q    Type
REMARK                         _______ _______ _______ _____ _____    ______ ____
ROOT
ATOM      1  N   UNL     1       2.079   6.004  -0.165  0.00  0.00    -0.283 N 
ATOM      2  C   UNL     1       2.264   7.325  -0.356  0.00  0.00    +0.237 C 
ATOM      3  O   UNL     1       3.379   7.760  -0.554  0.00  0.00    -0.274 OA
ATOM      4  H   UNL     1       1.182   5.649  -0.067  0.00  0.00    +0.155 HD
ENDROOT
BRANCH   1  10
ATOM      5  C   UNL     1       3.231   4.135   0.859  0.00  0.00    +0.058 A 
ATOM      6  C   UNL     1       4.335   3.280   0.902  0.00  0.00    +0.015 A 
ATOM      7  C   UNL     1       5.364   3.440  -0.001  0.00  0.00    +0.001 A 
ATOM      8  C   UNL     1       5.310   4.446  -0.952  0.00  0.00    +0.002 A 
ATOM      9  C   UNL     1       4.226   5.299  -1.006  0.00  0.00    +0.024 A 
ATOM     10  C   UNL     1       3.177   5.149  -0.109  0.00  0.00    +0.046 A 
BRANCH   5  12
ATOM     11  N   UNL     1       2.124   2.922   2.672  0.00  0.00    -0.300 N 
ATOM     12  C   UNL     1       2.126   3.968   1.822  0.00  0.00    +0.247 C 
ATOM     13  O   UNL     1       1.216   4.775   1.849  0.00  0.00    -0.270 OA
ATOM     14  H   UNL     1       2.850   2.278   2.650  0.00  0.00    +0.150 HD
BRANCH  11  15
ATOM     15  C   UNL     1       1.027   2.756   3.628  0.00  0.00    +0.193 C 
BRANCH  15  17
ATOM     16  C   UNL     1       1.441   0.583   5.079  0.00  0.00    +0.005 C 
ATOM     17  C   UNL     1       1.257   1.548   4.435  0.00  0.00    -0.087 C 
ENDBRANCH  15  17
ENDBRANCH  11  15
ENDBRANCH   5  12
ENDBRANCH   1  10
BRANCH   2  18
ATOM     18  C   UNL     1       1.085   8.263  -0.325  0.00  0.00    +0.226 C 
BRANCH  18  19
ATOM     19  N   UNL     1       1.545   9.635  -0.557  0.00  0.00    -0.252 N 
ATOM     20  C   UNL     1       1.907  10.400   0.496  0.00  0.00    +0.265 A 
ATOM     21  O   UNL     1       1.855   9.964   1.630  0.00  0.00    -0.267 OA
ATOM     22  C   UNL     1       2.367  11.775   0.234  0.00  0.00    +0.063 A 
ATOM     23  C   UNL     1       2.757  12.626   1.265  0.00  0.00    +0.015 A 
ATOM     24  C   UNL     1       3.180  13.904   0.968  0.00  0.00    +0.001 A 
ATOM     25  C   UNL     1       3.218  14.344  -0.346  0.00  0.00    +0.002 A 
ATOM     26  C   UNL     1       2.833  13.510  -1.378  0.00  0.00    +0.026 A 
ATOM     27  C   UNL     1       2.406  12.221  -1.099  0.00  0.00    +0.056 A 
ATOM     28  N   UNL     1       2.011  11.352  -2.105  0.00  0.00    -0.307 N 
ATOM     29  H   UNL     1       2.033  11.646  -3.030  0.00  0.00    +0.170 HD
ATOM     30  C   UNL     1       1.605  10.105  -1.813  0.00  0.00    +0.330 A 
ATOM     31  O   UNL     1       1.272   9.373  -2.725  0.00  0.00    -0.246 OA
ENDBRANCH  18  19
ENDBRANCH   2  18
TORSDOF 6
