REMARK  Name = ZINC52094664
REMARK  5 active torsions:
REMARK  status: ('A' for Active; 'I' for Inactive)
REMARK    1  A    between atoms: C_1  and  C_2
REMARK    2  A    between atoms: C_2  and  N_3
REMARK    3  A    between atoms: N_3  and  C_4
REMARK    4  A    between atoms: C_4  and  C_6
REMARK    5  A    between atoms: C_4  and  C_19
REMARK                            x       y       z     vdW  Elec       q    Type
REMARK                         _______ _______ _______ _____ _____    ______ ____
ROOT
ATOM      1  C   UNL     1       1.599  -2.553  -2.269  0.00  0.00    -0.045 A 
ATOM      2  C   UNL     1       1.817  -1.879  -3.455  0.00  0.00    +0.031 A 
ATOM      3  C   UNL     1       2.635  -2.436  -4.426  0.00  0.00    +0.067 A 
ATOM      4  C   UNL     1       3.236  -3.677  -4.200  0.00  0.00    +0.068 A 
ATOM      5  C   UNL     1       3.012  -4.346  -3.007  0.00  0.00    +0.043 A 
ATOM      6  C   UNL     1       2.199  -3.780  -2.043  0.00  0.00    +0.022 A 
ATOM      7 BR   UNL     1       1.899  -4.689  -0.412  0.00  0.00    -0.050 Br
ATOM      8  N   UNL     1       3.987  -3.972  -5.335  0.00  0.00    -0.306 N 
ATOM      9  H   UNL     1       4.519  -4.772  -5.472  0.00  0.00    +0.170 HD
ATOM     10  C   UNL     1       3.850  -2.959  -6.211  0.00  0.00    +0.325 A 
ATOM     11  O   UNL     1       4.378  -2.902  -7.306  0.00  0.00    -0.247 OA
ATOM     12  N   UNL     1       3.041  -2.017  -5.691  0.00  0.00    -0.306 N 
ATOM     13  H   UNL     1       2.784  -1.188  -6.123  0.00  0.00    +0.170 HD
ENDROOT
BRANCH   1  14
ATOM     14  C   UNL     1       0.710  -1.947  -1.215  0.00  0.00    -0.037 C 
BRANCH  14  15
ATOM     15  C   UNL     1      -0.742  -2.354  -1.476  0.00  0.00    -0.021 C 
ATOM     16  C   UNL     1      -1.156  -1.895  -2.876  0.00  0.00    +0.002 C 
ATOM     17  C   UNL     1      -2.608  -2.303  -3.137  0.00  0.00    +0.000 C 
ATOM     18  C   UNL     1      -2.736  -3.824  -3.040  0.00  0.00    +0.000 C 
ATOM     19  C   UNL     1      -2.321  -4.283  -1.641  0.00  0.00    +0.000 C 
ATOM     20  C   UNL     1      -0.870  -3.876  -1.379  0.00  0.00    +0.002 C 
ENDBRANCH  14  15
BRANCH  14  21
ATOM     21  N   UNL     1       0.823  -0.483  -1.260  0.00  0.00    +0.384 N 
ATOM     22  H   UNL     1       0.463  -0.145  -2.140  0.00  0.00    -0.085 HD
ATOM     23  H   UNL     1       1.792  -0.218  -1.170  0.00  0.00    -0.085 HD
BRANCH  21  25
ATOM     24  C   UNL     1       0.169   1.628  -0.205  0.00  0.00    -0.017 C 
ATOM     25  C   UNL     1       0.050   0.103  -0.157  0.00  0.00    -0.085 C 
ENDBRANCH  21  25
ENDBRANCH  14  21
ENDBRANCH   1  14
TORSDOF 4
