REMARK  Name = ZINC35092963
REMARK  10 active torsions:
REMARK  status: ('A' for Active; 'I' for Inactive)
REMARK    1  A    between atoms: C_1  and  C_2
REMARK    2  A    between atoms: C_2  and  O_3
REMARK    3  A    between atoms: O_3  and  C_4
REMARK    4  A    between atoms: C_6  and  C_11
REMARK    5  A    between atoms: C_9  and  O_10
REMARK    6  A    between atoms: C_13  and  C_25
REMARK    7  A    between atoms: C_15  and  C_20
REMARK    8  A    between atoms: C_15  and  O_24
REMARK    9  A    between atoms: C_25  and  C_27
REMARK   10  A    between atoms: C_30  and  C_33
REMARK                            x       y       z     vdW  Elec       q    Type
REMARK                         _______ _______ _______ _____ _____    ______ ____
ROOT
ATOM      1  C   UNL     1       0.760  -4.702  -0.398  0.00  0.00    +0.120 C 
ATOM      2  C   UNL     1       1.187  -5.540  -1.608  0.00  0.00    +0.144 C 
ATOM      3  C   UNL     1       2.124  -6.653  -1.124  0.00  0.00    +0.243 C 
ATOM      4  N   UNL     1       1.452  -7.426  -0.079  0.00  0.00    -0.264 N 
ATOM      5  C   UNL     1       0.530  -6.866   0.720  0.00  0.00    +0.302 C 
ATOM      6  O   UNL     1       0.010  -7.551   1.579  0.00  0.00    -0.253 OA
ATOM      7  N   UNL     1       0.162  -5.581   0.609  0.00  0.00    -0.292 N 
ATOM      8  H   UNL     1       1.676  -8.362   0.039  0.00  0.00    +0.153 HD
ATOM      9  H   UNL     1      -0.514  -5.226   1.207  0.00  0.00    +0.151 HD
ENDROOT
BRANCH   1  12
ATOM     10  C   UNL     1      -0.762  -1.448  -1.567  0.00  0.00    +0.162 A 
ATOM     11  C   UNL     1       0.166  -2.397  -1.169  0.00  0.00    +0.055 A 
ATOM     12  C   UNL     1      -0.250  -3.672  -0.831  0.00  0.00    -0.023 A 
ATOM     13  C   UNL     1      -1.591  -4.003  -0.890  0.00  0.00    +0.009 A 
ATOM     14  C   UNL     1      -2.522  -3.061  -1.287  0.00  0.00    +0.049 A 
ATOM     15  C   UNL     1      -2.112  -1.780  -1.621  0.00  0.00    +0.158 A 
BRANCH  15  16
ATOM     16  O   UNL     1      -3.027  -0.850  -2.006  0.00  0.00    -0.503 OA
ATOM     17  H   UNL     1      -3.196  -0.835  -2.958  0.00  0.00    +0.292 HD
ENDBRANCH  15  16
BRANCH  10  18
ATOM     18  O   UNL     1      -0.354  -0.194  -1.899  0.00  0.00    -0.489 OA
BRANCH  18  20
ATOM     19  C   UNL     1       1.312   1.526  -2.228  0.00  0.00    +0.048 C 
ATOM     20  C   UNL     1       1.047   0.075  -1.820  0.00  0.00    +0.226 C 
ENDBRANCH  18  20
ENDBRANCH  10  18
ENDBRANCH   1  12
BRANCH   3  21
ATOM     21  C   UNL     1       2.473  -7.573  -2.296  0.00  0.00    +0.436 C 
ATOM     22  F   UNL     1       2.987  -6.810  -3.350  0.00  0.00    -0.166 F 
ATOM     23  F   UNL     1       3.430  -8.507  -1.887  0.00  0.00    -0.166 F 
ATOM     24  F   UNL     1       1.321  -8.242  -2.723  0.00  0.00    -0.166 F 
ENDBRANCH   3  21
BRANCH   3  25
ATOM     25  O   UNL     1       3.319  -6.075  -0.597  0.00  0.00    -0.364 OA
ATOM     26  H   UNL     1       3.959  -6.723  -0.272  0.00  0.00    +0.212 HD
ENDBRANCH   3  25
BRANCH   2  27
ATOM     27  C   UNL     1      -0.029  -6.145  -2.259  0.00  0.00    +0.173 C 
ATOM     28  O   UNL     1      -0.722  -6.926  -1.643  0.00  0.00    -0.292 OA
BRANCH  27  29
ATOM     29  C   UNL     1      -0.377  -5.788  -3.644  0.00  0.00    +0.018 A 
ATOM     30  C   UNL     1       0.351  -4.804  -4.320  0.00  0.00    +0.011 A 
ATOM     31  C   UNL     1       0.020  -4.475  -5.617  0.00  0.00    +0.004 A 
ATOM     32  C   UNL     1      -1.030  -5.117  -6.251  0.00  0.00    -0.050 A 
ATOM     33  C   UNL     1      -1.755  -6.092  -5.589  0.00  0.00    +0.004 A 
ATOM     34  C   UNL     1      -1.433  -6.436  -4.293  0.00  0.00    +0.011 A 
ATOM     35  C   UNL     1      -1.385  -4.752  -7.669  0.00  0.00    +0.044 C 
ENDBRANCH  27  29
ENDBRANCH   2  27
TORSDOF 8
