REMARK  Name = ZINC15122864
REMARK  12 active torsions:
REMARK  status: ('A' for Active; 'I' for Inactive)
REMARK    1  A    between atoms: C_1  and  C_2
REMARK    2  A    between atoms: C_7  and  N_8
REMARK    3  A    between atoms: N_8  and  C_9
REMARK    4  A    between atoms: C_9  and  C_10
REMARK    5  A    between atoms: N_12  and  C_13
REMARK    6  A    between atoms: N_12  and  C_17
REMARK    7  A    between atoms: C_13  and  C_14
REMARK    8  A    between atoms: C_14  and  C_15
REMARK    9  A    between atoms: C_14  and  C_16
REMARK   10  A    between atoms: C_18  and  N_33
REMARK   11  A    between atoms: N_19  and  C_26
REMARK   12  A    between atoms: C_26  and  C_27
REMARK                            x       y       z     vdW  Elec       q    Type
REMARK                         _______ _______ _______ _____ _____    ______ ____
ROOT
ATOM      1  C   UNL     1      -0.053   1.108   0.403  0.00  0.00    +0.140 A 
ATOM      2  C   UNL     1       0.924   0.951  -0.559  0.00  0.00    +0.128 A 
ATOM      3  N   UNL     1       1.959   0.074  -0.328  0.00  0.00    -0.276 N 
ATOM      4  C   UNL     1       2.019  -0.621   0.823  0.00  0.00    +0.331 A 
ATOM      5  O   UNL     1       2.942  -1.390   1.008  0.00  0.00    -0.246 OA
ATOM      6  N   UNL     1       1.076  -0.480   1.771  0.00  0.00    -0.273 N 
ATOM      7  H   UNL     1       1.144  -1.008   2.618  0.00  0.00    +0.173 HD
ATOM      8  C   UNL     1       0.041   0.365   1.594  0.00  0.00    +0.277 A 
ATOM      9  O   UNL     1      -0.808   0.485   2.461  0.00  0.00    -0.266 OA
ENDROOT
BRANCH   1  12
ATOM     10  C   UNL     1      -0.901   3.318   0.069  0.00  0.00    +0.237 C 
ATOM     11  O   UNL     1       0.218   3.757   0.231  0.00  0.00    -0.274 OA
ATOM     12  N   UNL     1      -1.131   1.994   0.193  0.00  0.00    -0.263 N 
BRANCH  10  13
ATOM     13  C   UNL     1      -2.035   4.251  -0.271  0.00  0.00    +0.198 C 
BRANCH  13  14
ATOM     14  N   UNL     1      -1.510   5.603  -0.475  0.00  0.00    -0.335 N 
ATOM     15  H   UNL     1      -0.560   5.773  -0.384  0.00  0.00    +0.147 HD
BRANCH  14  22
ATOM     16  C   UNL     1      -0.408   8.199  -0.843  0.00  0.00    +0.045 C 
ATOM     17  C   UNL     1      -1.883   7.931  -0.991  0.00  0.00    -0.029 A 
ATOM     18  C   UNL     1      -2.743   8.961  -1.319  0.00  0.00    +0.008 A 
ATOM     19  C   UNL     1      -4.098   8.718  -1.450  0.00  0.00    +0.039 A 
ATOM     20  C   UNL     1      -4.597   7.441  -1.257  0.00  0.00    +0.125 A 
ATOM     21  C   UNL     1      -3.740   6.404  -0.933  0.00  0.00    +0.061 A 
ATOM     22  C   UNL     1      -2.379   6.647  -0.802  0.00  0.00    +0.033 A 
ATOM     23  F   UNL     1      -5.921   7.207  -1.385  0.00  0.00    -0.205 F 
ENDBRANCH  14  22
ENDBRANCH  13  14
ENDBRANCH  10  13
BRANCH  12  24
ATOM     24  C   UNL     1      -2.499   1.476   0.108  0.00  0.00    +0.117 C 
BRANCH  24  25
ATOM     25  C   UNL     1      -2.859   1.223  -1.357  0.00  0.00    +0.001 C 
ATOM     26  C   UNL     1      -1.991   0.090  -1.907  0.00  0.00    +0.009 C 
ATOM     27  C   UNL     1      -4.334   0.831  -1.459  0.00  0.00    +0.009 C 
ENDBRANCH  24  25
ENDBRANCH  12  24
ENDBRANCH   1  12
BRANCH   2  28
ATOM     28  N   UNL     1       0.863   1.660  -1.734  0.00  0.00    -0.343 N 
ATOM     29  H   UNL     1       0.153   2.305  -1.875  0.00  0.00    +0.144 HD
ATOM     30  H   UNL     1       1.531   1.516  -2.423  0.00  0.00    +0.144 HD
ENDBRANCH   2  28
BRANCH   3  31
ATOM     31  C   UNL     1       3.003  -0.103  -1.340  0.00  0.00    +0.163 C 
BRANCH  31  32
ATOM     32  C   UNL     1       2.606  -1.211  -2.281  0.00  0.00    -0.028 A 
ATOM     33  C   UNL     1       2.979  -2.515  -2.010  0.00  0.00    +0.005 A 
ATOM     34  C   UNL     1       2.611  -3.532  -2.871  0.00  0.00    +0.000 A 
ATOM     35  C   UNL     1       1.880  -3.244  -4.008  0.00  0.00    +0.000 A 
ATOM     36  C   UNL     1       1.512  -1.940  -4.282  0.00  0.00    +0.000 A 
ATOM     37  C   UNL     1       1.875  -0.924  -3.419  0.00  0.00    +0.005 A 
ENDBRANCH  31  32
ENDBRANCH   3  31
TORSDOF 9
