REMARK  Name = ZINC43253784
REMARK  8 active torsions:
REMARK  status: ('A' for Active; 'I' for Inactive)
REMARK    1  A    between atoms: C_1  and  C_2
REMARK    2  A    between atoms: C_2  and  C_3
REMARK    3  A    between atoms: C_3  and  C_5
REMARK    4  A    between atoms: C_3  and  N_25
REMARK    5  A    between atoms: C_5  and  C_7
REMARK    6  A    between atoms: C_5  and  N_13
REMARK    7  A    between atoms: C_15  and  C_22
REMARK    8  A    between atoms: C_19  and  C_21
REMARK                            x       y       z     vdW  Elec       q    Type
REMARK                         _______ _______ _______ _____ _____    ______ ____
ROOT
ATOM      1  C   UNL     1      -1.636  -1.745  -0.813  0.00  0.00    +0.079 C 
ENDROOT
BRANCH   1   2
ATOM      2  N   UNL     1      -0.767  -2.452  -1.764  0.00  0.00    -0.293 NA
ATOM      3  C   UNL     1       0.629  -2.018  -1.623  0.00  0.00    +0.098 C 
ATOM      4  C   UNL     1       1.478  -2.663  -2.721  0.00  0.00    +0.089 C 
ATOM      5  C   UNL     1       1.383  -4.187  -2.603  0.00  0.00    +0.015 C 
ATOM      6  C   UNL     1      -0.085  -4.609  -2.704  0.00  0.00    +0.019 C 
ATOM      7  C   UNL     1      -0.889  -3.907  -1.607  0.00  0.00    +0.054 C 
ATOM      8  C   UNL     1      -2.361  -4.309  -1.717  0.00  0.00    +0.024 C 
BRANCH   4   9
ATOM      9  C   UNL     1       0.969  -2.230  -4.071  0.00  0.00    +0.215 C 
ATOM     10  O   UNL     1       0.020  -1.478  -4.149  0.00  0.00    -0.276 OA
ATOM     11  N   UNL     1       1.568  -2.677  -5.193  0.00  0.00    -0.329 N 
ATOM     12  H   UNL     1       2.327  -3.278  -5.131  0.00  0.00    +0.145 HD
ATOM     13  H   UNL     1       1.240  -2.398  -6.062  0.00  0.00    +0.145 HD
ENDBRANCH   4   9
ENDBRANCH   1   2
BRANCH   1  14
ATOM     14  C   UNL     1      -1.071  -0.376  -0.538  0.00  0.00    +0.007 A 
ATOM     15  C   UNL     1      -0.804   0.214   0.652  0.00  0.00    +0.014 A 
ATOM     16  C   UNL     1      -0.281   1.494   0.665  0.00  0.00    +0.028 A 
ATOM     17  C   UNL     1      -0.051   2.121  -0.516  0.00  0.00    +0.078 A 
ATOM     18  S   UNL     1      -0.572   0.888  -1.697  0.00  0.00    -0.080 S 
ATOM     19 CL   UNL     1       0.590   3.708  -0.804  0.00  0.00    -0.076 Cl
ENDBRANCH   1  14
BRANCH   1  20
ATOM     20  C   UNL     1      -3.038  -1.608  -1.409  0.00  0.00    -0.053 C 
BRANCH  20  21
ATOM     21  N   UNL     1      -3.870  -0.786  -0.520  0.00  0.00    +0.381 N 
ATOM     22  H   UNL     1      -4.795  -0.695  -0.914  0.00  0.00    -0.090 HD
ATOM     23  H   UNL     1      -3.931  -1.226   0.385  0.00  0.00    -0.090 HD
ATOM     24  H   UNL     1      -3.455   0.129  -0.422  0.00  0.00    -0.090 HD
ENDBRANCH  20  21
BRANCH  20  26
ATOM     25  C   UNL     1      -4.326  -0.935  -3.442  0.00  0.00    +0.002 C 
ATOM     26  C   UNL     1      -2.946  -0.940  -2.783  0.00  0.00    -0.018 C 
ENDBRANCH  20  26
ENDBRANCH   1  20
TORSDOF 6
