REMARK  Name = ZINC44165552
REMARK  12 active torsions:
REMARK  status: ('A' for Active; 'I' for Inactive)
REMARK    1  A    between atoms: C_1  and  C_2
REMARK    2  A    between atoms: C_2  and  O_3
REMARK    3  A    between atoms: O_3  and  C_4
REMARK    4  A    between atoms: C_4  and  C_6
REMARK    5  A    between atoms: C_6  and  O_7
REMARK    6  A    between atoms: O_7  and  C_8
REMARK    7  A    between atoms: C_12  and  N_14
REMARK    8  A    between atoms: N_17  and  C_18
REMARK    9  A    between atoms: C_20  and  C_26
REMARK   10  A    between atoms: C_20  and  C_27
REMARK   11  A    between atoms: C_22  and  C_24
REMARK   12  A    between atoms: C_22  and  C_25
REMARK                            x       y       z     vdW  Elec       q    Type
REMARK                         _______ _______ _______ _____ _____    ______ ____
ROOT
ATOM      1  N   UNL     1       2.927  -7.911  -5.214  0.00  0.00    -0.269 N 
ATOM      2  C   UNL     1       3.319  -8.630  -6.284  0.00  0.00    +0.304 C 
ATOM      3  O   UNL     1       3.761  -8.066  -7.266  0.00  0.00    -0.253 OA
ATOM      4  N   UNL     1       3.221  -9.974  -6.266  0.00  0.00    -0.296 N 
ATOM      5  H   UNL     1       2.646  -8.362  -4.402  0.00  0.00    +0.156 HD
ATOM      6  H   UNL     1       2.868 -10.424  -5.482  0.00  0.00    +0.151 HD
ENDROOT
BRANCH   4   7
ATOM      7  C   UNL     1       3.648 -10.757  -7.432  0.00  0.00    +0.072 C 
ATOM      8  C   UNL     1       2.483 -10.866  -8.418  0.00  0.00    +0.009 C 
ATOM      9  C   UNL     1       2.908 -11.690  -9.633  0.00  0.00    -0.072 C 
ATOM     10  N   UNL     1       3.442 -12.990  -9.254  0.00  0.00    +0.386 N 
ATOM     11  C   UNL     1       4.416 -13.032  -8.175  0.00  0.00    -0.072 C 
ATOM     12  C   UNL     1       4.027 -12.167  -6.980  0.00  0.00    +0.009 C 
ATOM     13  C   UNL     1       5.817 -12.652  -8.661  0.00  0.00    -0.010 C 
ATOM     14  C   UNL     1       4.493 -14.495  -7.676  0.00  0.00    -0.010 C 
ATOM     15  C   UNL     1       3.888 -10.894 -10.495  0.00  0.00    -0.010 C 
ATOM     16  C   UNL     1       1.642 -11.936 -10.486  0.00  0.00    -0.010 C 
ATOM     17  H   UNL     1       2.658 -13.598  -9.004  0.00  0.00    -0.084 HD
ATOM     18  H   UNL     1       3.861 -13.419 -10.083  0.00  0.00    -0.084 HD
ENDBRANCH   4   7
BRANCH   1  23
ATOM     19  C   UNL     1       3.207  -4.385  -4.197  0.00  0.00    +0.123 A 
ATOM     20  C   UNL     1       2.922  -3.745  -5.395  0.00  0.00    +0.046 A 
ATOM     21  C   UNL     1       2.641  -4.487  -6.526  0.00  0.00    +0.005 A 
ATOM     22  C   UNL     1       2.642  -5.867  -6.469  0.00  0.00    +0.023 A 
ATOM     23  C   UNL     1       2.926  -6.513  -5.272  0.00  0.00    +0.038 A 
ATOM     24  C   UNL     1       3.215  -5.769  -4.136  0.00  0.00    +0.069 A 
BRANCH  19  25
ATOM     25  O   UNL     1       3.484  -3.654  -3.085  0.00  0.00    -0.481 OA
BRANCH  25  26
ATOM     26  C   UNL     1       3.459  -2.232  -3.220  0.00  0.00    +0.349 C 
BRANCH  26  27
ATOM     27  C   UNL     1       3.788  -1.595  -1.895  0.00  0.00    +0.345 C 
ATOM     28  O   UNL     1       4.021  -2.288  -0.933  0.00  0.00    -0.247 OA
BRANCH  27  29
ATOM     29  O   UNL     1       3.822  -0.258  -1.783  0.00  0.00    -0.463 OA
BRANCH  29  31
ATOM     30  C   UNL     1       4.133   1.806  -0.564  0.00  0.00    +0.048 C 
ATOM     31  C   UNL     1       4.141   0.278  -0.497  0.00  0.00    +0.229 C 
ENDBRANCH  29  31
ENDBRANCH  27  29
ENDBRANCH  26  27
ENDBRANCH  25  26
ENDBRANCH  19  25
ENDBRANCH   1  23
TORSDOF 7
