REMARK  Name = ZINC44249803
REMARK  5 active torsions:
REMARK  status: ('A' for Active; 'I' for Inactive)
REMARK    1  A    between atoms: C_1  and  C_2
REMARK    2  A    between atoms: C_10  and  C_22
REMARK    3  A    between atoms: C_11  and  C_13
REMARK    4  A    between atoms: C_17  and  N_19
REMARK    5  A    between atoms: C_22  and  N_23
REMARK                            x       y       z     vdW  Elec       q    Type
REMARK                         _______ _______ _______ _____ _____    ______ ____
ROOT
ATOM      1  C   UNL     1       0.191   1.714   0.240  0.00  0.00    +0.065 C 
ATOM      2  C   UNL     1       0.250   0.215   0.093  0.00  0.00    +0.040 A 
ATOM      3  C   UNL     1       0.172  -0.683   1.090  0.00  0.00    +0.044 A 
ATOM      4  C   UNL     1       0.267  -1.971   0.524  0.00  0.00    +0.244 A 
ATOM      5  N   UNL     1       0.399  -1.839  -0.765  0.00  0.00    -0.135 NA
ATOM      6  H   UNL     1       0.463  -0.079  -1.951  0.00  0.00    +0.189 HD
ATOM      7  N   UNL     1       0.386  -0.468  -1.066  0.00  0.00    -0.278 N 
ATOM      8  O   UNL     1       0.218  -3.110   1.275  0.00  0.00    -0.422 OA
ATOM      9  C   UNL     1       0.306  -2.899   2.618  0.00  0.00    +0.193 C 
ATOM     10  C   UNL     1      -0.468  -1.746   3.217  0.00  0.00    +0.069 C 
ATOM     11  C   UNL     1       0.011  -0.436   2.571  0.00  0.00    +0.066 C 
ATOM     12  N   UNL     1       1.032  -3.666   3.361  0.00  0.00    -0.270 NA
ATOM     13  H   UNL     1       1.086  -3.505   4.316  0.00  0.00    +0.190 HD
ENDROOT
BRANCH  11  14
ATOM     14  C   UNL     1      -1.009   0.650   2.800  0.00  0.00    -0.037 A 
ATOM     15  C   UNL     1      -2.166   0.681   2.045  0.00  0.00    +0.004 A 
ATOM     16  C   UNL     1      -3.102   1.676   2.254  0.00  0.00    +0.003 A 
ATOM     17  C   UNL     1      -2.880   2.641   3.219  0.00  0.00    +0.033 A 
ATOM     18  C   UNL     1      -1.723   2.610   3.975  0.00  0.00    +0.126 A 
ATOM     19  C   UNL     1      -0.789   1.611   3.768  0.00  0.00    +0.037 A 
BRANCH  18  20
ATOM     20  N   UNL     1      -1.485   3.643   5.008  0.00  0.00    +0.056 N 
ATOM     21  O   UNL     1      -2.303   4.514   5.191  0.00  0.00    -0.126 OA
ATOM     22  O   UNL     1      -0.473   3.615   5.668  0.00  0.00    -0.126 OA
ENDBRANCH  18  20
ENDBRANCH  11  14
BRANCH  10  23
ATOM     23  C   UNL     1      -1.962  -1.934   2.944  0.00  0.00    -0.073 C 
BRANCH  23  24
ATOM     24  N   UNL     1      -2.425  -3.170   3.589  0.00  0.00    +0.379 N 
ATOM     25  H   UNL     1      -1.913  -3.956   3.217  0.00  0.00    -0.090 HD
ATOM     26  H   UNL     1      -2.270  -3.108   4.585  0.00  0.00    -0.090 HD
ATOM     27  H   UNL     1      -3.410  -3.294   3.409  0.00  0.00    -0.090 HD
ENDBRANCH  23  24
ENDBRANCH  10  23
TORSDOF 4
