REMARK  Name = ZINC64120283
REMARK  6 active torsions:
REMARK  status: ('A' for Active; 'I' for Inactive)
REMARK    1  A    between atoms: C_1  and  C_2
REMARK    2  A    between atoms: C_4  and  C_16
REMARK    3  A    between atoms: N_18  and  C_19
REMARK    4  A    between atoms: C_19  and  C_20
REMARK    5  A    between atoms: N_22  and  C_23
REMARK    6  A    between atoms: C_27  and  C_29
REMARK                            x       y       z     vdW  Elec       q    Type
REMARK                         _______ _______ _______ _____ _____    ______ ____
ROOT
ATOM      1  C   UNL     1      -2.449  -0.352  -0.842  0.00  0.00    +0.244 C 
ATOM      2  O   UNL     1      -3.540  -0.861  -0.656  0.00  0.00    -0.270 OA
ATOM      3  N   UNL     1      -2.237   0.406  -1.936  0.00  0.00    -0.303 N 
ATOM      4  H   UNL     1      -1.369   0.812  -2.084  0.00  0.00    +0.150 HD
ENDROOT
BRANCH   1   7
ATOM      5  C   UNL     1      -0.031   1.530   0.019  0.00  0.00    +0.035 C 
ATOM      6  C   UNL     1      -0.000   0.001   0.005  0.00  0.00    +0.129 C 
ATOM      7  C   UNL     1      -1.405  -0.557   0.089  0.00  0.00    +0.051 C 
ATOM      8  H   UNL     1      -0.130  -1.743   2.728  0.00  0.00    +0.170 HD
ATOM      9  C   UNL     1      -1.470  -1.286   1.220  0.00  0.00    +0.098 C 
ATOM     10  N   UNL     1      -0.290  -1.279   1.891  0.00  0.00    -0.269 N 
ATOM     11  N   UNL     1       0.670  -0.512   1.212  0.00  0.00    -0.228 N 
ATOM     12  C   UNL     1       1.988  -0.281   1.599  0.00  0.00    +0.161 A 
ATOM     13  C   UNL     1       2.481  -0.846   2.777  0.00  0.00    +0.052 A 
ATOM     14  C   UNL     1       3.797  -0.589   3.119  0.00  0.00    +0.077 A 
ATOM     15  C   UNL     1       4.548   0.219   2.266  0.00  0.00    +0.289 A 
ATOM     16  O   UNL     1       5.844   0.499   2.561  0.00  0.00    -0.264 OA
ATOM     17  N   UNL     1       3.997   0.712   1.171  0.00  0.00    -0.105 NA
ATOM     18  N   UNL     1       2.778   0.470   0.850  0.00  0.00    -0.129 NA
ENDBRANCH   1   7
BRANCH   3  19
ATOM     19  C   UNL     1      -3.319   0.619  -2.901  0.00  0.00    +0.200 C 
BRANCH  19  20
ATOM     20  C   UNL     1      -2.826   1.496  -4.023  0.00  0.00    +0.234 C 
ATOM     21  O   UNL     1      -1.684   1.904  -4.017  0.00  0.00    -0.274 OA
ATOM     22  N   UNL     1      -3.655   1.827  -5.033  0.00  0.00    -0.284 N 
ATOM     23  H   UNL     1      -4.547   1.448  -5.073  0.00  0.00    +0.155 HD
BRANCH  22  24
ATOM     24  C   UNL     1      -3.229   2.719  -6.023  0.00  0.00    +0.035 A 
ATOM     25  C   UNL     1      -4.131   3.614  -6.588  0.00  0.00    +0.023 A 
ATOM     26  C   UNL     1      -3.715   4.496  -7.567  0.00  0.00    +0.003 A 
ATOM     27  C   UNL     1      -2.401   4.496  -7.990  0.00  0.00    +0.017 A 
ATOM     28  C   UNL     1      -1.488   3.602  -7.429  0.00  0.00    +0.026 A 
ATOM     29  C   UNL     1      -1.907   2.715  -6.438  0.00  0.00    +0.040 A 
BRANCH  28  30
ATOM     30  C   UNL     1      -0.124   3.599  -7.866  0.00  0.00    -0.070 C 
ATOM     31  C   UNL     1       0.994   3.597  -8.224  0.00  0.00    +0.009 C 
ENDBRANCH  28  30
ENDBRANCH  22  24
ENDBRANCH  19  20
ENDBRANCH   3  19
TORSDOF 5
