REMARK  Name = ZINC21320562
REMARK  8 active torsions:
REMARK  status: ('A' for Active; 'I' for Inactive)
REMARK    1  A    between atoms: C_1  and  O_2
REMARK    2  A    between atoms: O_2  and  C_3
REMARK    3  A    between atoms: C_8  and  C_9
REMARK    4  A    between atoms: N_10  and  N_11
REMARK    5  A    between atoms: C_15  and  S_18
REMARK    6  A    between atoms: N_16  and  N_17
REMARK    7  A    between atoms: S_18  and  C_19
REMARK    8  A    between atoms: C_19  and  C_20
REMARK                            x       y       z     vdW  Elec       q    Type
REMARK                         _______ _______ _______ _____ _____    ______ ____
ROOT
ATOM      1  N   UNL     1      -1.437   7.183   2.415  0.00  0.00    -0.204 N 
ATOM      2  C   UNL     1      -1.074   5.997   1.795  0.00  0.00    +0.254 A 
ATOM      3  N   UNL     1      -0.431   5.887   0.658  0.00  0.00    -0.109 NA
ATOM      4  N   UNL     1      -0.263   4.523   0.386  0.00  0.00    -0.119 NA
ATOM      5  C   UNL     1      -0.809   3.844   1.366  0.00  0.00    +0.210 A 
ATOM      6  N   UNL     1      -1.329   4.736   2.260  0.00  0.00    -0.211 N 
ATOM      7  H   UNL     1      -1.977   7.160   3.373  0.00  0.00    +0.177 HD
ENDROOT
BRANCH   6   8
ATOM      8  N   UNL     1      -1.986   4.425   3.416  0.00  0.00    -0.294 N 
ATOM      9  H   UNL     1      -2.137   3.372   3.696  0.00  0.00    +0.163 HD
ATOM     10  H   UNL     1      -2.363   5.226   4.067  0.00  0.00    +0.163 HD
ENDBRANCH   6   8
BRANCH   1  12
ATOM     11  C   UNL     1      -1.455   9.522   2.402  0.00  0.00    +0.142 C 
ATOM     12  N   UNL     1      -1.115   8.411   1.821  0.00  0.00    -0.187 NA
BRANCH  11  18
ATOM     13  C   UNL     1      -0.429  10.847   0.557  0.00  0.00    +0.129 A 
ATOM     14  C   UNL     1      -0.116  12.065  -0.023  0.00  0.00    +0.047 A 
ATOM     15  C   UNL     1      -0.482  13.243   0.601  0.00  0.00    +0.019 A 
ATOM     16  C   UNL     1      -1.162  13.216   1.807  0.00  0.00    +0.019 A 
ATOM     17  C   UNL     1      -1.486  12.010   2.395  0.00  0.00    +0.028 A 
ATOM     18  C   UNL     1      -1.117  10.813   1.777  0.00  0.00    +0.037 A 
ATOM     19 BR   UNL     1      -1.655  14.836   2.648  0.00  0.00    -0.050 Br
BRANCH  13  21
ATOM     20  C   UNL     1       0.628   9.800  -1.298  0.00  0.00    +0.277 C 
ATOM     21  O   UNL     1      -0.071   9.688  -0.056  0.00  0.00    -0.494 OA
ENDBRANCH  13  21
ENDBRANCH  11  18
ENDBRANCH   1  12
BRANCH   5  22
ATOM     22  S   UNL     1      -0.867   2.088   1.503  0.00  0.00    -0.080 S 
BRANCH  22  23
ATOM     23  C   UNL     1      -0.018   1.503   0.010  0.00  0.00    +0.112 C 
BRANCH  23  24
ATOM     24  C   UNL     1       0.002  -0.004   0.002  0.00  0.00    -0.037 A 
ATOM     25  C   UNL     1       1.057  -0.684   0.582  0.00  0.00    +0.006 A 
ATOM     26  C   UNL     1       1.073  -2.066   0.580  0.00  0.00    +0.020 A 
ATOM     27  C   UNL     1       0.040  -2.769  -0.013  0.00  0.00    +0.041 A 
ATOM     28  C   UNL     1      -1.013  -2.088  -0.599  0.00  0.00    +0.020 A 
ATOM     29  C   UNL     1      -1.031  -0.706  -0.591  0.00  0.00    +0.006 A 
ATOM     30 CL   UNL     1       0.063  -4.505  -0.022  0.00  0.00    -0.084 Cl
ENDBRANCH  23  24
ENDBRANCH  22  23
ENDBRANCH   5  22
TORSDOF 7
