REMARK  Name = ZINC50849500
REMARK  6 active torsions:
REMARK  status: ('A' for Active; 'I' for Inactive)
REMARK    1  A    between atoms: C_1  and  C_2
REMARK    2  A    between atoms: C_2  and  C_3
REMARK    3  A    between atoms: C_4  and  C_20
REMARK    4  A    between atoms: C_6  and  C_11
REMARK    5  A    between atoms: C_8  and  N_9
REMARK    6  A    between atoms: N_9  and  C_10
REMARK                            x       y       z     vdW  Elec       q    Type
REMARK                         _______ _______ _______ _____ _____    ______ ____
ROOT
ATOM      1  C   UNL     1       0.731  -0.503   1.223  0.00  0.00    +0.013 A 
ATOM      2  C   UNL     1       2.096  -0.715   1.194  0.00  0.00    +0.047 A 
ATOM      3  N   UNL     1       2.708  -1.153   2.283  0.00  0.00    -0.232 NA
ATOM      4  C   UNL     1       2.029  -1.391   3.397  0.00  0.00    +0.162 A 
ATOM      5  N   UNL     1       0.718  -1.202   3.466  0.00  0.00    -0.213 NA
ATOM      6  C   UNL     1       0.043  -0.757   2.412  0.00  0.00    +0.126 A 
ATOM      7  C   UNL     1       2.881  -0.449  -0.065  0.00  0.00    +0.066 C 
ENDROOT
BRANCH   4   8
ATOM      8  C   UNL     1       2.752  -1.882   4.594  0.00  0.00    +0.025 A 
ATOM      9  C   UNL     1       4.131  -2.082   4.544  0.00  0.00    +0.053 A 
ATOM     10  C   UNL     1       4.802  -2.539   5.662  0.00  0.00    +0.162 A 
ATOM     11  C   UNL     1       4.106  -2.798   6.833  0.00  0.00    +0.193 A 
ATOM     12  C   UNL     1       2.734  -2.600   6.887  0.00  0.00    +0.162 A 
ATOM     13  C   UNL     1       2.057  -2.138   5.775  0.00  0.00    +0.053 A 
ATOM     14  F   UNL     1       2.060  -2.854   8.030  0.00  0.00    -0.202 F 
ATOM     15  F   UNL     1       4.765  -3.246   7.924  0.00  0.00    -0.199 F 
ATOM     16  F   UNL     1       6.138  -2.734   5.614  0.00  0.00    -0.202 F 
ENDBRANCH   4   8
BRANCH   6  17
ATOM     17  N   UNL     1      -1.326  -0.554   2.489  0.00  0.00    -0.332 N 
ATOM     18  C   UNL     1      -2.037  -0.824   3.741  0.00  0.00    +0.127 C 
ATOM     19  H   UNL     1      -1.813  -0.233   1.714  0.00  0.00    +0.147 HD
ENDBRANCH   6  17
BRANCH   1  21
ATOM     20  C   UNL     1      -0.019   1.526   0.010  0.00  0.00    +0.009 C 
ATOM     21  C   UNL     1       0.002  -0.004   0.002  0.00  0.00    +0.037 C 
ENDBRANCH   1  21
TORSDOF 3
