REMARK  Name = ZINC12923384
REMARK  12 active torsions:
REMARK  status: ('A' for Active; 'I' for Inactive)
REMARK    1  A    between atoms: C_1  and  C_2
REMARK    2  A    between atoms: C_2  and  C_3
REMARK    3  A    between atoms: C_3  and  C_4
REMARK    4  A    between atoms: C_4  and  N_5
REMARK    5  A    between atoms: C_6  and  N_35
REMARK    6  A    between atoms: C_7  and  N_14
REMARK    7  A    between atoms: N_14  and  C_15
REMARK    8  A    between atoms: C_15  and  C_16
REMARK    9  A    between atoms: C_16  and  C_17
REMARK   10  A    between atoms: C_17  and  C_18
REMARK   11  A    between atoms: C_19  and  C_21
REMARK   12  A    between atoms: C_22  and  C_34
REMARK                            x       y       z     vdW  Elec       q    Type
REMARK                         _______ _______ _______ _____ _____    ______ ____
ROOT
ATOM      1  N   UNL     1      -5.104   8.979   0.330  0.00  0.00    -0.260 N 
ATOM      2  C   UNL     1      -4.787   8.267  -0.770  0.00  0.00    +0.258 C 
ATOM      3  O   UNL     1      -5.114   8.670  -1.871  0.00  0.00    -0.269 OA
ENDROOT
BRANCH   2   4
ATOM      4  C   UNL     1      -4.047   7.008  -0.640  0.00  0.00    +0.080 A 
ATOM      5  C   UNL     1      -3.751   6.090  -1.605  0.00  0.00    -0.017 A 
ATOM      6  C   UNL     1      -3.029   4.941  -1.274  0.00  0.00    +0.076 A 
ATOM      7  C   UNL     1      -2.651   4.821   0.082  0.00  0.00    +0.116 A 
ATOM      8  S   UNL     1      -3.312   6.293   0.822  0.00  0.00    -0.064 S 
ATOM      9  N   UNL     1      -1.964   3.778   0.521  0.00  0.00    -0.226 NA
ATOM     10  C   UNL     1      -1.593   2.800  -0.269  0.00  0.00    +0.114 A 
ATOM     11  N   UNL     1      -1.899   2.802  -1.591  0.00  0.00    -0.296 N 
ATOM     12  C   UNL     1      -2.598   3.823  -2.140  0.00  0.00    +0.263 A 
ATOM     13  O   UNL     1      -2.867   3.822  -3.329  0.00  0.00    -0.267 OA
ATOM     14  C   UNL     1      -1.375   1.593  -2.251  0.00  0.00    +0.127 C 
ATOM     15  C   UNL     1      -0.311   1.022  -1.291  0.00  0.00    +0.029 C 
ATOM     16  C   UNL     1      -0.802   1.550   0.075  0.00  0.00    +0.076 C 
ATOM     17  C   UNL     1      -4.202   6.317  -3.025  0.00  0.00    +0.046 C 
ENDBRANCH   2   4
BRANCH   1  20
ATOM     18  N   UNL     1      -6.271  12.322  -0.651  0.00  0.00    -0.280 N 
ATOM     19  C   UNL     1      -5.476  11.203  -0.558  0.00  0.00    +0.127 A 
ATOM     20  C   UNL     1      -5.897  10.140   0.214  0.00  0.00    +0.140 A 
ATOM     21  C   UNL     1      -7.134  10.231   0.879  0.00  0.00    +0.277 A 
ATOM     22  O   UNL     1      -7.533   9.304   1.564  0.00  0.00    -0.266 OA
ATOM     23  N   UNL     1      -7.873  11.351   0.758  0.00  0.00    -0.273 N 
ATOM     24  H   UNL     1      -8.749  11.420   1.236  0.00  0.00    +0.173 HD
ATOM     25  C   UNL     1      -7.446  12.378   0.001  0.00  0.00    +0.331 A 
ATOM     26  O   UNL     1      -8.135  13.375  -0.095  0.00  0.00    -0.246 OA
BRANCH  19  27
ATOM     27  N   UNL     1      -4.275  11.146  -1.224  0.00  0.00    -0.343 N 
ATOM     28  H   UNL     1      -3.742  10.336  -1.196  0.00  0.00    +0.144 HD
ATOM     29  H   UNL     1      -3.961  11.916  -1.724  0.00  0.00    +0.144 HD
ENDBRANCH  19  27
BRANCH  18  30
ATOM     30  C   UNL     1      -5.837  13.458  -1.467  0.00  0.00    +0.128 C 
BRANCH  30  31
ATOM     31  C   UNL     1      -6.350  13.285  -2.898  0.00  0.00    +0.021 C 
BRANCH  31  33
ATOM     32  C   UNL     1      -6.409  14.298  -5.181  0.00  0.00    +0.004 C 
ATOM     33  C   UNL     1      -5.896  14.472  -3.750  0.00  0.00    -0.002 C 
ENDBRANCH  31  33
ENDBRANCH  30  31
ENDBRANCH  18  30
ENDBRANCH   1  20
BRANCH   1  34
ATOM     34  C   UNL     1      -4.625   8.547   1.645  0.00  0.00    +0.114 C 
BRANCH  34  35
ATOM     35  C   UNL     1      -3.201   9.062   1.865  0.00  0.00    +0.019 C 
BRANCH  35  36
ATOM     36  C   UNL     1      -2.702   8.611   3.239  0.00  0.00    -0.002 C 
ATOM     37  C   UNL     1      -1.278   9.126   3.458  0.00  0.00    +0.004 C 
ENDBRANCH  35  36
ENDBRANCH  34  35
ENDBRANCH   1  34
TORSDOF 9
