REMARK  Name = ZINC11592732
REMARK  9 active torsions:
REMARK  status: ('A' for Active; 'I' for Inactive)
REMARK    1  A    between atoms: C_1  and  C_2
REMARK    2  A    between atoms: C_2  and  N_3
REMARK    3  A    between atoms: N_13  and  CA_14
REMARK    4  A    between atoms: CA_14  and  C_16
REMARK    5  A    between atoms: CA_14  and  C_22
REMARK    6  A    between atoms: N_24  and  CA_25
REMARK    7  A    between atoms: CA_32  and  C_38
REMARK    8  A    between atoms: C_34  and  C_36
REMARK    9  A    between atoms: C_34  and  C_37
REMARK                            x       y       z     vdW  Elec       q    Type
REMARK                         _______ _______ _______ _____ _____    ______ ____
ROOT
ATOM      1  CA  UNL     1       5.020  -2.594   0.316  0.00  0.00    +0.191 C 
ENDROOT
BRANCH   1  12
ATOM      2  N   UNL     1      -0.142   1.079   0.961  0.00  0.00    -0.293 N 
ATOM      3  C   UNL     1       0.029  -0.374   0.967  0.00  0.00    +0.127 C 
ATOM      4  C   UNL     1       1.219  -0.776   0.101  0.00  0.00    +0.137 C 
ATOM      5  N   UNL     1       2.409  -0.012   0.476  0.00  0.00    -0.217 N 
ATOM      6  C   UNL     1       2.299   1.284   0.828  0.00  0.00    +0.309 C 
ATOM      7  O   UNL     1       3.290   1.952   1.035  0.00  0.00    -0.264 OA
ATOM      8  C   UNL     1       0.936   1.889   0.960  0.00  0.00    +0.302 C 
ATOM      9  O   UNL     1       0.804   3.090   1.065  0.00  0.00    -0.265 OA
ATOM     10  C   UNL     1       3.619  -0.606   0.469  0.00  0.00    +0.310 C 
ATOM     11  O   UNL     1       4.618   0.048   0.694  0.00  0.00    -0.252 OA
ATOM     12  N   UNL     1       3.720  -1.926   0.213  0.00  0.00    -0.284 N 
ATOM     13  H   UNL     1       2.933  -2.433  -0.039  0.00  0.00    +0.151 HD
BRANCH   2  15
ATOM     14  C   UNL     1      -1.959   1.857  -0.479  0.00  0.00    +0.024 C 
ATOM     15  C   UNL     1      -1.489   1.656   0.963  0.00  0.00    +0.105 C 
ENDBRANCH   2  15
ENDBRANCH   1  12
BRANCH   1  16
ATOM     16  C   UNL     1       5.772  -2.432  -0.979  0.00  0.00    -0.018 A 
ATOM     17  C   UNL     1       5.104  -2.535  -2.185  0.00  0.00    +0.006 A 
ATOM     18  C   UNL     1       5.793  -2.382  -3.373  0.00  0.00    +0.000 A 
ATOM     19  C   UNL     1       7.153  -2.135  -3.356  0.00  0.00    +0.000 A 
ATOM     20  C   UNL     1       7.823  -2.036  -2.151  0.00  0.00    +0.000 A 
ATOM     21  C   UNL     1       7.133  -2.185  -0.963  0.00  0.00    +0.006 A 
ENDBRANCH   1  16
BRANCH   1  22
ATOM     22  C   UNL     1       4.810  -4.060   0.595  0.00  0.00    +0.239 C 
ATOM     23  O   UNL     1       3.686  -4.503   0.698  0.00  0.00    -0.273 OA
ATOM     24  N   UNL     1       5.872  -4.879   0.731  0.00  0.00    -0.300 N 
ATOM     25  H   UNL     1       6.771  -4.525   0.648  0.00  0.00    +0.150 HD
BRANCH  24  26
ATOM     26  CA  UNL     1       5.668  -6.304   1.002  0.00  0.00    +0.190 C 
ATOM     27  C   UNL     1       6.845  -7.175   0.576  0.00  0.00    +0.165 C 
ATOM     28  N   UNL     1       6.832  -7.625   1.984  0.00  0.00    -0.271 N 
ATOM     29  C   UNL     1       5.951  -6.687   2.433  0.00  0.00    +0.240 C 
ATOM     30  O   UNL     1       5.561  -6.318   3.521  0.00  0.00    -0.273 OA
ATOM     31  CA  UNL     1       6.454  -9.025   2.204  0.00  0.00    +0.206 C 
ATOM     32  C   UNL     1       6.776  -9.909   0.968  0.00  0.00    +0.042 C 
ATOM     33  S   UNL     1       6.372  -8.686  -0.358  0.00  0.00    -0.127 S 
ATOM     34  C   UNL     1       8.252 -10.310   0.932  0.00  0.00    +0.025 C 
ATOM     35  C   UNL     1       5.864 -11.136   0.900  0.00  0.00    +0.025 C 
BRANCH  31  36
ATOM     36  C   UNL     1       7.208  -9.556   3.396  0.00  0.00    +0.377 C 
ATOM     37  O   UNL     1       8.200  -8.986   3.786  0.00  0.00    -0.244 OA
ATOM     38  OXT UNL     1       6.779 -10.663   4.023  0.00  0.00    -0.244 OA
ENDBRANCH  31  36
ENDBRANCH  24  26
ENDBRANCH   1  22
TORSDOF 6
