REMARK  Name = ZINC39674851
REMARK  7 active torsions:
REMARK  status: ('A' for Active; 'I' for Inactive)
REMARK    1  A    between atoms: C_1  and  C_2
REMARK    2  A    between atoms: C_4  and  C_14
REMARK    3  A    between atoms: C_7  and  C_12
REMARK    4  A    between atoms: C_14  and  C_15
REMARK    5  A    between atoms: C_15  and  N_16
REMARK    6  A    between atoms: C_17  and  C_19
REMARK    7  A    between atoms: C_30  and  C_32
REMARK                            x       y       z     vdW  Elec       q    Type
REMARK                         _______ _______ _______ _____ _____    ______ ____
ROOT
ATOM      1  C   UNL     1       1.373  -1.003  -7.394  0.00  0.00    +0.100 C 
ATOM      2  C   UNL     1       1.322   0.509  -7.705  0.00  0.00    +0.121 C 
ATOM      3  N   UNL     1       2.663   0.824  -8.253  0.00  0.00    -0.295 N 
ATOM      4  C   UNL     1       2.997  -0.343  -9.104  0.00  0.00    +0.115 C 
ATOM      5  C   UNL     1       2.470  -1.560  -8.317  0.00  0.00    -0.004 C 
ATOM      6  C   UNL     1       1.883  -2.594  -9.273  0.00  0.00    -0.010 C 
ATOM      7  C   UNL     1       3.003  -3.175 -10.140  0.00  0.00    -0.082 C 
ATOM      8  N   UNL     1       4.019  -3.795  -9.280  0.00  0.00    +0.379 N 
ATOM      9  C   UNL     1       4.644  -2.776  -8.429  0.00  0.00    -0.082 C 
ATOM     10  C   UNL     1       3.593  -2.178  -7.489  0.00  0.00    -0.010 C 
ATOM     11  C   UNL     1       3.410   1.923  -8.029  0.00  0.00    +0.265 C 
ATOM     12  O   UNL     1       3.041   2.754  -7.223  0.00  0.00    -0.268 OA
ATOM     13  H   UNL     1       3.583  -4.495  -8.699  0.00  0.00    -0.086 HD
ATOM     14  H   UNL     1       4.724  -4.230  -9.855  0.00  0.00    -0.086 HD
ENDROOT
BRANCH  11  15
ATOM     15  C   UNL     1       4.682   2.119  -8.765  0.00  0.00    +0.126 A 
ATOM     16  C   UNL     1       5.504   3.206  -8.436  0.00  0.00    +0.033 A 
ATOM     17  C   UNL     1       6.678   3.397  -9.107  0.00  0.00    +0.012 A 
ATOM     18  C   UNL     1       7.024   2.481 -10.118  0.00  0.00    +0.000 A 
ATOM     19  C   UNL     1       8.216   2.616 -10.847  0.00  0.00    +0.010 A 
ATOM     20  C   UNL     1       8.518   1.711 -11.818  0.00  0.00    +0.001 A 
ATOM     21  C   UNL     1       7.659   0.649 -12.100  0.00  0.00    +0.002 A 
ATOM     22  C   UNL     1       6.496   0.487 -11.414  0.00  0.00    +0.028 A 
ATOM     23  C   UNL     1       6.147   1.402 -10.402  0.00  0.00    +0.072 A 
ATOM     24  N   UNL     1       5.016   1.263  -9.711  0.00  0.00    -0.242 NA
ENDBRANCH  11  15
BRANCH   1  26
ATOM     25  N   UNL     1       1.273  -2.316  -5.300  0.00  0.00    -0.315 N 
ATOM     26  C   UNL     1       1.738  -1.230  -5.950  0.00  0.00    +0.218 C 
ATOM     27  O   UNL     1       2.449  -0.435  -5.372  0.00  0.00    -0.275 OA
ATOM     28  H   UNL     1       0.704  -2.951  -5.762  0.00  0.00    +0.149 HD
BRANCH  25  29
ATOM     29  C   UNL     1       1.627  -2.536  -3.896  0.00  0.00    +0.108 C 
BRANCH  29  30
ATOM     30  C   UNL     1       0.975  -3.829  -3.402  0.00  0.00    +0.052 C 
BRANCH  30  33
ATOM     31  C   UNL     1      -0.615  -5.237  -0.954  0.00  0.00    +0.035 C 
ATOM     32  C   UNL     1       0.910  -5.211  -1.082  0.00  0.00    +0.103 C 
ATOM     33  C   UNL     1       1.339  -4.056  -1.957  0.00  0.00    -0.037 C 
ATOM     34  C   UNL     1       2.119  -3.264  -1.178  0.00  0.00    +0.000 A 
ATOM     35  C   UNL     1       2.802  -2.048  -1.447  0.00  0.00    +0.028 A 
ATOM     36  C   UNL     1       3.539  -1.438  -0.459  0.00  0.00    +0.052 A 
ATOM     37  C   UNL     1       3.640  -2.015   0.877  0.00  0.00    +0.021 A 
ATOM     38  C   UNL     1       3.014  -3.168   1.190  0.00  0.00    +0.027 A 
ATOM     39  C   UNL     1       2.214  -3.860   0.172  0.00  0.00    +0.043 A 
ATOM     40  N   UNL     1       1.524  -4.974   0.229  0.00  0.00    -0.378 N 
ATOM     41  H   UNL     1       1.433  -5.546   1.007  0.00  0.00    +0.160 HD
BRANCH  36  42
ATOM     42  C   UNL     1       4.221  -0.212  -0.748  0.00  0.00    +0.099 C 
ATOM     43  N   UNL     1       4.762   0.760  -0.977  0.00  0.00    -0.191 NA
ENDBRANCH  36  42
ENDBRANCH  30  33
ENDBRANCH  29  30
ENDBRANCH  25  29
ENDBRANCH   1  26
TORSDOF 6
