REMARK  Name = ZINC34927024
REMARK  7 active torsions:
REMARK  status: ('A' for Active; 'I' for Inactive)
REMARK    1  A    between atoms: C_1  and  O_2
REMARK    2  A    between atoms: O_2  and  C_3
REMARK    3  A    between atoms: C_6  and  C_13
REMARK    4  A    between atoms: C_7  and  O_11
REMARK    5  A    between atoms: C_8  and  O_9
REMARK    6  A    between atoms: O_9  and  C_10
REMARK    7  A    between atoms: O_11  and  C_12
REMARK                            x       y       z     vdW  Elec       q    Type
REMARK                         _______ _______ _______ _____ _____    ______ ____
ROOT
ATOM      1  C   UNL     1       2.941  -2.319  -4.210  0.00  0.00    +0.194 C 
ATOM      2  N   UNL     1       3.875  -3.288  -3.623  0.00  0.00    -0.304 N 
ATOM      3  C   UNL     1       5.072  -2.873  -3.168  0.00  0.00    +0.138 C 
ATOM      4  N   UNL     1       5.480  -1.612  -3.333  0.00  0.00    -0.273 N 
ATOM      5  C   UNL     1       4.826  -0.778  -4.123  0.00  0.00    +0.150 C 
ATOM      6  N   UNL     1       3.726  -1.229  -4.808  0.00  0.00    -0.298 N 
ATOM      7  N   UNL     1       5.239   0.516  -4.255  0.00  0.00    -0.334 N 
ATOM      8  S   UNL     1       6.092  -3.985  -2.361  0.00  0.00    -0.018 S 
ATOM      9  H   UNL     1       3.630  -4.225  -3.564  0.00  0.00    +0.150 HD
ATOM     10  H   UNL     1       6.017   0.830  -3.768  0.00  0.00    +0.145 HD
ATOM     11  H   UNL     1       4.754   1.123  -4.837  0.00  0.00    +0.145 HD
ATOM     12  H   UNL     1       3.474  -0.841  -5.661  0.00  0.00    +0.151 HD
ATOM     13  H   UNL     1       6.271  -1.302  -2.864  0.00  0.00    +0.156 HD
ENDROOT
BRANCH   1  17
ATOM     14  C   UNL     1       0.382  -0.745  -1.162  0.00  0.00    +0.165 A 
ATOM     15  C   UNL     1       0.847   0.078  -2.177  0.00  0.00    +0.050 A 
ATOM     16  C   UNL     1       1.673  -0.434  -3.160  0.00  0.00    +0.014 A 
ATOM     17  C   UNL     1       2.040  -1.766  -3.135  0.00  0.00    +0.036 A 
ATOM     18  C   UNL     1       1.580  -2.595  -2.123  0.00  0.00    +0.172 A 
ATOM     19  C   UNL     1       0.754  -2.083  -1.130  0.00  0.00    +0.204 A 
BRANCH  14  21
ATOM     20  C   UNL     1      -0.772   1.144  -0.291  0.00  0.00    +0.277 C 
ATOM     21  O   UNL     1      -0.431  -0.240  -0.195  0.00  0.00    -0.491 OA
ENDBRANCH  14  21
BRANCH  19  22
ATOM     22  O   UNL     1       0.305  -2.892  -0.132  0.00  0.00    -0.488 OA
ATOM     23  C   UNL     1      -0.990  -3.472  -0.300  0.00  0.00    +0.277 C 
ENDBRANCH  19  22
BRANCH  18  24
ATOM     24  O   UNL     1       1.941  -3.906  -2.100  0.00  0.00    -0.491 OA
ATOM     25  C   UNL     1       1.143  -4.812  -2.864  0.00  0.00    +0.277 C 
ENDBRANCH  18  24
ENDBRANCH   1  17
TORSDOF 4
