REMARK  Name = ZINC48604735
REMARK  7 active torsions:
REMARK  status: ('A' for Active; 'I' for Inactive)
REMARK    1  A    between atoms: C_1  and  C_2
REMARK    2  A    between atoms: C_2  and  CA_3
REMARK    3  A    between atoms: CA_3  and  C_5
REMARK    4  A    between atoms: CA_3  and  N_7
REMARK    5  A    between atoms: C_5  and  O_6
REMARK    6  A    between atoms: C_8  and  C_10
REMARK    7  A    between atoms: N_12  and  C_13
REMARK                            x       y       z     vdW  Elec       q    Type
REMARK                         _______ _______ _______ _____ _____    ______ ____
ROOT
ATOM      1  C   UNL     1      -6.103  -0.338  -1.682  0.00  0.00    +0.303 C 
ATOM      2  O   UNL     1      -7.222  -0.745  -1.918  0.00  0.00    -0.265 OA
ATOM      3  N   UNL     1      -5.476   0.462  -2.567  0.00  0.00    -0.278 N 
ATOM      4  H   UNL     1      -4.611   0.842  -2.349  0.00  0.00    +0.155 HD
ENDROOT
BRANCH   3   5
ATOM      5  C   UNL     1      -6.074   0.745  -3.799  0.00  0.00    +0.038 A 
ATOM      6  C   UNL     1      -5.288   0.888  -4.936  0.00  0.00    +0.027 A 
ATOM      7  C   UNL     1      -5.876   1.169  -6.154  0.00  0.00    +0.051 A 
ATOM      8  C   UNL     1      -7.250   1.308  -6.245  0.00  0.00    +0.167 A 
ATOM      9  C   UNL     1      -8.043   1.163  -5.106  0.00  0.00    +0.169 A 
ATOM     10  C   UNL     1      -7.454   0.878  -3.887  0.00  0.00    +0.073 A 
ATOM     11  O   UNL     1      -9.352   1.345  -5.467  0.00  0.00    -0.447 OA
ATOM     12  C   UNL     1      -9.271   2.079  -6.696  0.00  0.00    +0.254 C 
ATOM     13  O   UNL     1      -8.072   1.582  -7.308  0.00  0.00    -0.448 OA
ATOM     14  C   UNL     1      -9.179   3.587  -6.438  0.00  0.00    +0.093 C 
ATOM     15  C   UNL     1      -9.965   4.217  -7.617  0.00  0.00    +0.008 C 
ATOM     16  C   UNL     1     -11.131   3.218  -7.829  0.00  0.00    +0.008 C 
ATOM     17  C   UNL     1     -10.494   1.833  -7.578  0.00  0.00    +0.093 C 
ENDBRANCH   3   5
BRANCH   1  19
ATOM     18  N   UNL     1      -6.048  -1.524   0.475  0.00  0.00    -0.303 N 
ATOM     19  C   UNL     1      -5.421  -0.724  -0.410  0.00  0.00    +0.300 C 
ATOM     20  O   UNL     1      -4.303  -0.317  -0.174  0.00  0.00    -0.265 OA
ATOM     21  H   UNL     1      -6.942  -1.849   0.286  0.00  0.00    +0.150 HD
BRANCH  18  22
ATOM     22  CA  UNL     1      -5.379  -1.902   1.722  0.00  0.00    +0.098 C 
BRANCH  22  24
ATOM     23  C   UNL     1      -5.624  -4.341   1.237  0.00  0.00    +0.006 C 
ATOM     24  C   UNL     1      -5.957  -3.225   2.229  0.00  0.00    +0.021 C 
ENDBRANCH  22  24
BRANCH  22  25
ATOM     25  C   UNL     1      -5.603  -0.812   2.772  0.00  0.00    +0.178 C 
BRANCH  25  26
ATOM     26  O   UNL     1      -6.993  -0.740   3.095  0.00  0.00    -0.393 OA
ATOM     27  H   UNL     1      -7.209  -0.069   3.756  0.00  0.00    +0.209 HD
ENDBRANCH  25  26
ENDBRANCH  22  25
ENDBRANCH  18  22
ENDBRANCH   1  19
TORSDOF 6
