REMARK  Name = ZINC39666447
REMARK  7 active torsions:
REMARK  status: ('A' for Active; 'I' for Inactive)
REMARK    1  A    between atoms: C_1  and  C_2
REMARK    2  A    between atoms: C_2  and  C_4
REMARK    3  A    between atoms: C_2  and  O_27
REMARK    4  A    between atoms: C_4  and  N_5
REMARK    5  A    between atoms: C_6  and  C_8
REMARK    6  A    between atoms: C_19  and  C_21
REMARK    7  A    between atoms: O_27  and  C_28
REMARK                            x       y       z     vdW  Elec       q    Type
REMARK                         _______ _______ _______ _____ _____    ______ ____
ROOT
ATOM      1  C   UNL     1      -2.595  -4.240   0.438  0.00  0.00    +0.100 C 
ATOM      2  C   UNL     1      -2.136  -4.673   1.848  0.00  0.00    +0.121 C 
ATOM      3  N   UNL     1      -3.393  -4.880   2.604  0.00  0.00    -0.296 N 
ATOM      4  C   UNL     1      -4.309  -5.520   1.630  0.00  0.00    +0.115 C 
ATOM      5  C   UNL     1      -4.020  -4.801   0.297  0.00  0.00    -0.004 C 
ATOM      6  C   UNL     1      -5.016  -3.665   0.085  0.00  0.00    -0.010 C 
ATOM      7  C   UNL     1      -6.418  -4.251  -0.109  0.00  0.00    -0.082 C 
ATOM      8  N   UNL     1      -6.418  -5.151  -1.268  0.00  0.00    +0.379 N 
ATOM      9  C   UNL     1      -5.526  -6.290  -1.018  0.00  0.00    -0.082 C 
ATOM     10  C   UNL     1      -4.087  -5.790  -0.862  0.00  0.00    -0.010 C 
ATOM     11  C   UNL     1      -3.647  -4.558   3.888  0.00  0.00    +0.247 C 
ATOM     12  O   UNL     1      -2.826  -3.935   4.533  0.00  0.00    -0.270 OA
ATOM     13  H   UNL     1      -7.355  -5.488  -1.431  0.00  0.00    -0.086 HD
ATOM     14  H   UNL     1      -6.098  -4.648  -2.083  0.00  0.00    -0.086 HD
ENDROOT
BRANCH  11  15
ATOM     15  C   UNL     1      -4.925  -4.963   4.513  0.00  0.00    +0.037 A 
ATOM     16  C   UNL     1      -5.627  -6.064   4.021  0.00  0.00    +0.013 A 
ATOM     17  C   UNL     1      -6.819  -6.437   4.609  0.00  0.00    +0.001 A 
ATOM     18  C   UNL     1      -7.317  -5.721   5.683  0.00  0.00    +0.000 A 
ATOM     19  C   UNL     1      -6.626  -4.628   6.174  0.00  0.00    +0.001 A 
ATOM     20  C   UNL     1      -5.431  -4.248   5.600  0.00  0.00    +0.013 A 
ENDBRANCH  11  15
BRANCH   1  22
ATOM     21  N   UNL     1      -2.568  -2.149  -0.883  0.00  0.00    -0.312 N 
ATOM     22  C   UNL     1      -2.609  -2.737   0.329  0.00  0.00    +0.218 C 
ATOM     23  O   UNL     1      -2.658  -2.057   1.331  0.00  0.00    -0.275 OA
ATOM     24  H   UNL     1      -2.529  -2.693  -1.685  0.00  0.00    +0.149 HD
BRANCH  21  25
ATOM     25  C   UNL     1      -2.582  -0.688  -0.989  0.00  0.00    +0.148 C 
BRANCH  25  27
ATOM     26  C   UNL     1      -2.416   1.239  -2.571  0.00  0.00    +0.053 C 
ATOM     27  C   UNL     1      -2.528  -0.283  -2.464  0.00  0.00    +0.187 C 
BRANCH  27  28
ATOM     28  O   UNL     1      -3.718  -0.721  -3.122  0.00  0.00    -0.486 OA
BRANCH  28  29
ATOM     29  C   UNL     1      -3.643  -0.921  -4.464  0.00  0.00    +0.139 A 
ATOM     30  C   UNL     1      -2.426  -0.798  -5.118  0.00  0.00    +0.047 A 
ATOM     31  C   UNL     1      -2.352  -1.003  -6.482  0.00  0.00    +0.004 A 
ATOM     32  C   UNL     1      -3.489  -1.330  -7.197  0.00  0.00    +0.002 A 
ATOM     33  C   UNL     1      -4.704  -1.453  -6.548  0.00  0.00    +0.023 A 
ATOM     34  C   UNL     1      -4.783  -1.255  -5.182  0.00  0.00    +0.083 A 
ATOM     35 CL   UNL     1      -6.307  -1.417  -4.367  0.00  0.00    -0.080 Cl
ENDBRANCH  28  29
ENDBRANCH  27  28
ENDBRANCH  25  27
ENDBRANCH  21  25
ENDBRANCH   1  22
TORSDOF 6
