REMARK  Name = ZINC38533063
REMARK  3 active torsions:
REMARK  status: ('A' for Active; 'I' for Inactive)
REMARK    1  A    between atoms: C_3  and  C_8
REMARK    2  A    between atoms: C_5  and  N_7
REMARK    3  A    between atoms: C_16  and  C_21
REMARK                            x       y       z     vdW  Elec       q    Type
REMARK                         _______ _______ _______ _____ _____    ______ ____
ROOT
ATOM      1  C   UNL     1       3.656   2.173  -0.003  0.00  0.00    +0.248 C 
ATOM      2  O   UNL     1       4.179   1.580   0.924  0.00  0.00    -0.270 OA
ATOM      3  N   UNL     1       3.636   3.512  -0.015  0.00  0.00    -0.281 N 
ATOM      4  C   UNL     1       4.776   4.196   0.078  0.00  0.00    +0.036 C 
ATOM      5  C   UNL     1       6.055   3.477   0.055  0.00  0.00    +0.025 C 
ATOM      6  C   UNL     1       7.215   4.149   0.148  0.00  0.00    +0.029 C 
ATOM      7  C   UNL     1       7.193   5.621   0.273  0.00  0.00    +0.060 C 
ATOM      8  N   UNL     1       8.156   6.489   0.376  0.00  0.00    -0.360 N 
ATOM      9  C   UNL     1       7.579   7.833   0.474  0.00  0.00    +0.219 C 
ATOM     10  N   UNL     1       6.121   7.671   0.415  0.00  0.00    -0.220 NA
ATOM     11  C   UNL     1       5.887   6.317   0.292  0.00  0.00    +0.075 C 
ATOM     12  C   UNL     1       4.737   5.599   0.191  0.00  0.00    +0.050 C 
ATOM     13  H   UNL     1       2.792   3.984  -0.091  0.00  0.00    +0.155 HD
ATOM     14  H   UNL     1       9.103   6.281   0.388  0.00  0.00    +0.162 HD
ENDROOT
BRANCH   1  17
ATOM     15  C   UNL     1       1.872   1.381  -3.216  0.00  0.00    +0.003 A 
ATOM     16  C   UNL     1       2.443   2.091  -2.179  0.00  0.00    +0.013 A 
ATOM     17  C   UNL     1       3.042   1.414  -1.116  0.00  0.00    +0.039 A 
ATOM     18  C   UNL     1       3.062   0.019  -1.106  0.00  0.00    +0.035 A 
ATOM     19  C   UNL     1       2.486  -0.685  -2.152  0.00  0.00    +0.025 A 
ATOM     20  C   UNL     1       1.891  -0.001  -3.206  0.00  0.00    +0.023 A 
BRANCH  19  21
ATOM     21  N   UNL     1       2.502  -2.082  -2.146  0.00  0.00    -0.358 N 
ATOM     22  H   UNL     1       2.917  -2.559  -1.411  0.00  0.00    +0.142 HD
ATOM     23  H   UNL     1       2.099  -2.575  -2.878  0.00  0.00    +0.142 HD
ENDBRANCH  19  21
ENDBRANCH   1  17
BRANCH   9  24
ATOM     24  C   UNL     1       7.976   8.471   1.780  0.00  0.00    +0.012 A 
ATOM     25  C   UNL     1       7.138   9.387   2.397  0.00  0.00    +0.010 A 
ATOM     26  C   UNL     1       7.545   9.949   3.597  0.00  0.00    +0.020 A 
ATOM     27  C   UNL     1       8.764   9.581   4.135  0.00  0.00    +0.111 A 
ATOM     28  N   UNL     1       9.536   8.707   3.519  0.00  0.00    -0.263 NA
ATOM     29  C   UNL     1       9.178   8.147   2.380  0.00  0.00    +0.118 A 
ENDBRANCH   9  24
TORSDOF 3
