REMARK  Name = ZINC61639358
REMARK  6 active torsions:
REMARK  status: ('A' for Active; 'I' for Inactive)
REMARK    1  A    between atoms: C_1  and  C_2
REMARK    2  A    between atoms: C_2  and  C_3
REMARK    3  A    between atoms: C_3  and  C_4
REMARK    4  A    between atoms: N_8  and  C_12
REMARK    5  A    between atoms: C_12  and  C_13
REMARK    6  A    between atoms: C_17  and  N_19
REMARK                            x       y       z     vdW  Elec       q    Type
REMARK                         _______ _______ _______ _____ _____    ______ ____
ROOT
ATOM      1  C   UNL     1       0.739  -2.027  -1.265  0.00  0.00    +0.161 C 
ATOM      2  C   UNL     1       1.381  -2.545  -2.537  0.00  0.00    +0.244 C 
ATOM      3  O   UNL     1       0.999  -2.369  -3.674  0.00  0.00    -0.273 OA
ATOM      4  N   UNL     1       2.465  -3.241  -2.141  0.00  0.00    -0.219 N 
ATOM      5  C   UNL     1       2.596  -3.235  -0.809  0.00  0.00    +0.309 C 
ATOM      6  O   UNL     1       3.497  -3.795  -0.216  0.00  0.00    -0.252 OA
ATOM      7  N   UNL     1       1.615  -2.540  -0.198  0.00  0.00    -0.288 N 
ATOM      8  H   UNL     1       1.507  -2.402   0.757  0.00  0.00    +0.151 HD
ENDROOT
BRANCH   1   9
ATOM      9  C   UNL     1       0.718  -0.497  -1.257  0.00  0.00    +0.031 C 
BRANCH   9  11
ATOM     10  C   UNL     1      -0.019   1.526   0.010  0.00  0.00    +0.004 C 
ATOM     11  C   UNL     1       0.002  -0.004   0.002  0.00  0.00    -0.001 C 
ENDBRANCH   9  11
ENDBRANCH   1   9
BRANCH   4  12
ATOM     12  C   UNL     1       3.386  -3.921  -3.055  0.00  0.00    +0.174 C 
BRANCH  12  13
ATOM     13  C   UNL     1       4.490  -2.974  -3.452  0.00  0.00    +0.079 A 
ATOM     14  C   UNL     1       4.331  -2.170  -4.565  0.00  0.00    +0.064 A 
ATOM     15  C   UNL     1       5.352  -1.300  -4.925  0.00  0.00    +0.025 A 
ATOM     16  C   UNL     1       6.498  -1.270  -4.151  0.00  0.00    +0.045 A 
ATOM     17  C   UNL     1       6.589  -2.107  -3.044  0.00  0.00    +0.117 A 
ATOM     18  N   UNL     1       5.592  -2.919  -2.729  0.00  0.00    -0.234 NA
ATOM     19 CL   UNL     1       2.873  -2.248  -5.502  0.00  0.00    -0.082 Cl
BRANCH  17  20
ATOM     20  N   UNL     1       7.736  -2.087  -2.258  0.00  0.00    -0.343 N 
ATOM     21  H   UNL     1       8.468  -1.491  -2.482  0.00  0.00    +0.144 HD
ATOM     22  H   UNL     1       7.804  -2.669  -1.485  0.00  0.00    +0.144 HD
ENDBRANCH  17  20
ENDBRANCH  12  13
ENDBRANCH   4  12
TORSDOF 5
