REMARK  Name = ZINC16361668
REMARK  10 active torsions:
REMARK  status: ('A' for Active; 'I' for Inactive)
REMARK    1  A    between atoms: C_1  and  C_2
REMARK    2  A    between atoms: C_2  and  O_3
REMARK    3  A    between atoms: O_3  and  C_4
REMARK    4  A    between atoms: C_5  and  O_32
REMARK    5  A    between atoms: C_8  and  C_13
REMARK    6  A    between atoms: C_9  and  N_10
REMARK    7  A    between atoms: C_15  and  C_22
REMARK    8  A    between atoms: C_16  and  C_21
REMARK    9  A    between atoms: N_24  and  C_25
REMARK   10  A    between atoms: C_25  and  C_26
REMARK                            x       y       z     vdW  Elec       q    Type
REMARK                         _______ _______ _______ _____ _____    ______ ____
ROOT
ATOM      1  C   UNL     1       0.000   1.159  -0.172  0.00  0.00    +0.144 C 
ATOM      2  C   UNL     1      -0.550   1.648   1.152  0.00  0.00    +0.056 C 
ATOM      3  C   UNL     1      -1.759   2.245   1.149  0.00  0.00    +0.019 C 
ATOM      4  N   UNL     1      -2.464   2.405  -0.011  0.00  0.00    -0.273 N 
ATOM      5  C   UNL     1      -2.026   1.993  -1.208  0.00  0.00    +0.304 C 
ATOM      6  O   UNL     1      -2.725   2.178  -2.185  0.00  0.00    -0.252 OA
ATOM      7  N   UNL     1      -0.837   1.379  -1.364  0.00  0.00    -0.288 N 
ATOM      8  C   UNL     1      -2.343   2.746   2.445  0.00  0.00    +0.061 C 
ATOM      9  H   UNL     1      -3.329   2.841   0.035  0.00  0.00    +0.156 HD
ATOM     10  H   UNL     1      -0.539   1.088  -2.240  0.00  0.00    +0.151 HD
ENDROOT
BRANCH   1  15
ATOM     11  C   UNL     1       3.480   1.882  -1.452  0.00  0.00    +0.192 A 
ATOM     12  C   UNL     1       3.758   3.094  -0.825  0.00  0.00    +0.161 A 
ATOM     13  C   UNL     1       2.815   3.670   0.010  0.00  0.00    +0.049 A 
ATOM     14  C   UNL     1       1.599   3.045   0.215  0.00  0.00    +0.012 A 
ATOM     15  C   UNL     1       1.325   1.839  -0.404  0.00  0.00    +0.011 A 
ATOM     16  C   UNL     1       2.262   1.259  -1.239  0.00  0.00    +0.176 A 
BRANCH  16  17
ATOM     17  N   UNL     1       1.963  -0.030  -1.903  0.00  0.00    +0.061 N 
ATOM     18  O   UNL     1       1.510  -0.041  -3.034  0.00  0.00    -0.126 OA
ATOM     19  O   UNL     1       2.170  -1.079  -1.320  0.00  0.00    -0.126 OA
ENDBRANCH  16  17
BRANCH  12  20
ATOM     20  O   UNL     1       4.953   3.709  -1.032  0.00  0.00    -0.503 OA
ATOM     21  H   UNL     1       4.955   4.323  -1.780  0.00  0.00    +0.292 HD
ENDBRANCH  12  20
BRANCH  11  22
ATOM     22  O   UNL     1       4.403   1.312  -2.273  0.00  0.00    -0.486 OA
BRANCH  22  24
ATOM     23  C   UNL     1       5.591   1.094  -4.366  0.00  0.00    +0.048 C 
ATOM     24  C   UNL     1       4.418   1.748  -3.634  0.00  0.00    +0.226 C 
ENDBRANCH  22  24
ENDBRANCH  11  22
ENDBRANCH   1  15
BRANCH   2  25
ATOM     25  C   UNL     1       0.180   1.482   2.355  0.00  0.00    +0.244 C 
ATOM     26  O   UNL     1      -0.292   1.860   3.412  0.00  0.00    -0.270 OA
ATOM     27  N   UNL     1       1.398   0.905   2.330  0.00  0.00    -0.307 N 
ATOM     28  H   UNL     1       1.807   0.673   1.482  0.00  0.00    +0.149 HD
BRANCH  27  29
ATOM     29  C   UNL     1       2.103   0.627   3.583  0.00  0.00    +0.139 C 
BRANCH  29  30
ATOM     30  C   UNL     1       3.480   0.097   3.278  0.00  0.00    -0.030 A 
ATOM     31  C   UNL     1       3.665  -1.252   3.038  0.00  0.00    +0.005 A 
ATOM     32  C   UNL     1       4.927  -1.737   2.754  0.00  0.00    +0.000 A 
ATOM     33  C   UNL     1       6.007  -0.875   2.719  0.00  0.00    +0.000 A 
ATOM     34  C   UNL     1       5.824   0.473   2.965  0.00  0.00    +0.000 A 
ATOM     35  C   UNL     1       4.561   0.959   3.244  0.00  0.00    +0.005 A 
ENDBRANCH  29  30
ENDBRANCH  27  29
ENDBRANCH   2  25
TORSDOF 8
