REMARK  Name = ZINC20443943
REMARK  5 active torsions:
REMARK  status: ('A' for Active; 'I' for Inactive)
REMARK    1  A    between atoms: C_1  and  C_2
REMARK    2  A    between atoms: C_2  and  C_4
REMARK    3  A    between atoms: C_4  and  S_5
REMARK    4  A    between atoms: S_5  and  C_6
REMARK    5  A    between atoms: N_16  and  C_19
REMARK                            x       y       z     vdW  Elec       q    Type
REMARK                         _______ _______ _______ _____ _____    ______ ____
ROOT
ATOM      1  C   UNL     1       1.158  -0.653  -0.334  0.00  0.00    +0.191 A 
ATOM      2  N   UNL     1       0.022   0.035  -0.309  0.00  0.00    -0.207 NA
ATOM      3  C   UNL     1      -0.016   1.318   0.009  0.00  0.00    +0.129 A 
ATOM      4  C   UNL     1       1.195   1.990   0.336  0.00  0.00    +0.051 A 
ATOM      5  C   UNL     1       1.394   3.389   0.715  0.00  0.00    -0.022 A 
ATOM      6  C   UNL     1       2.658   3.781   0.976  0.00  0.00    +0.010 A 
ATOM      7  S   UNL     1       3.649   2.333   0.738  0.00  0.00    -0.072 S 
ATOM      8  C   UNL     1       2.361   1.199   0.287  0.00  0.00    +0.115 A 
ATOM      9  N   UNL     1       2.316  -0.078  -0.040  0.00  0.00    -0.215 NA
ATOM     10  C   UNL     1       3.102   5.154   1.377  0.00  0.00    +0.126 C 
ATOM     11  N   UNL     1       2.000   6.095   1.103  0.00  0.00    -0.300 NA
ATOM     12  C   UNL     1       0.735   5.585   1.651  0.00  0.00    +0.089 C 
ATOM     13  C   UNL     1       0.248   4.392   0.824  0.00  0.00    +0.052 C 
ATOM     14  C   UNL     1       2.303   7.431   1.633  0.00  0.00    +0.105 C 
ATOM     15  N   UNL     1      -1.219   2.001   0.019  0.00  0.00    -0.343 N 
ATOM     16  H   UNL     1      -1.243   3.068   0.284  0.00  0.00    +0.144 HD
ATOM     17  H   UNL     1      -2.151   1.476  -0.239  0.00  0.00    +0.144 HD
ENDROOT
BRANCH   1  18
ATOM     18  S   UNL     1       1.125  -2.360  -0.768  0.00  0.00    -0.082 S 
BRANCH  18  19
ATOM     19  C   UNL     1      -0.649  -2.578  -1.054  0.00  0.00    +0.107 C 
BRANCH  19  21
ATOM     20  C   UNL     1      -0.572  -4.485  -2.834  0.00  0.00    +0.039 C 
ATOM     21  C   UNL     1      -0.923  -4.006  -1.449  0.00  0.00    -0.069 C 
ATOM     22  C   UNL     1      -1.465  -4.832  -0.588  0.00  0.00    +0.008 C 
ENDBRANCH  19  21
ENDBRANCH  18  19
ENDBRANCH   1  18
TORSDOF 3
