REMARK  Name = ZINC05624281
REMARK  8 active torsions:
REMARK  status: ('A' for Active; 'I' for Inactive)
REMARK    1  A    between atoms: C_1  and  C_2
REMARK    2  A    between atoms: C_5  and  N_8
REMARK    3  A    between atoms: C_12  and  S_14
REMARK    4  A    between atoms: S_14  and  C_15
REMARK    5  A    between atoms: C_15  and  C_16
REMARK    6  A    between atoms: C_16  and  C_18
REMARK    7  A    between atoms: C_21  and  O_25
REMARK    8  A    between atoms: C_22  and  O_24
REMARK                            x       y       z     vdW  Elec       q    Type
REMARK                         _______ _______ _______ _____ _____    ______ ____
ROOT
ATOM      1  N   UNL     1       0.057  -4.168  -0.021  0.00  0.00    -0.292 N 
ATOM      2  C   UNL     1       0.177  -4.868   1.174  0.00  0.00    +0.187 A 
ATOM      3  N   UNL     1       0.191  -4.413   2.412  0.00  0.00    -0.125 NA
ATOM      4  N   UNL     1       0.321  -5.291   3.463  0.00  0.00    -0.133 NA
ATOM      5  C   UNL     1       0.431  -6.584   3.228  0.00  0.00    +0.160 A 
ATOM      6  S   UNL     1       0.347  -6.626   1.444  0.00  0.00    -0.024 S 
ATOM      7  H   UNL     1      -0.021  -4.649  -0.859  0.00  0.00    +0.154 HD
ENDROOT
BRANCH   1  12
ATOM      8  C   UNL     1       0.029   1.503   0.005  0.00  0.00    +0.044 C 
ATOM      9  C   UNL     1       0.036  -0.004  -0.002  0.00  0.00    -0.050 A 
ATOM     10  C   UNL     1       0.647  -0.695   1.028  0.00  0.00    +0.005 A 
ATOM     11  C   UNL     1       0.656  -2.076   1.025  0.00  0.00    +0.023 A 
ATOM     12  C   UNL     1       0.050  -2.771  -0.014  0.00  0.00    +0.033 A 
ATOM     13  C   UNL     1      -0.564  -2.073  -1.047  0.00  0.00    +0.023 A 
ATOM     14  C   UNL     1      -0.573  -0.692  -1.035  0.00  0.00    +0.005 A 
ENDBRANCH   1  12
BRANCH   5  15
ATOM     15  S   UNL     1       0.607  -7.915   4.369  0.00  0.00    -0.089 S 
BRANCH  15  16
ATOM     16  C   UNL     1       0.604  -7.106   5.992  0.00  0.00    +0.156 C 
BRANCH  16  17
ATOM     17  C   UNL     1       0.750  -8.146   7.072  0.00  0.00    +0.173 C 
ATOM     18  O   UNL     1       0.847  -9.318   6.777  0.00  0.00    -0.291 OA
BRANCH  17  19
ATOM     19  C   UNL     1       0.776  -7.740   8.484  0.00  0.00    +0.022 A 
ATOM     20  C   UNL     1       0.658  -6.388   8.828  0.00  0.00    +0.015 A 
ATOM     21  C   UNL     1       0.682  -6.011  10.152  0.00  0.00    +0.050 A 
ATOM     22  C   UNL     1       0.823  -6.968  11.148  0.00  0.00    +0.158 A 
ATOM     23  C   UNL     1       0.940  -8.317  10.814  0.00  0.00    +0.159 A 
ATOM     24  C   UNL     1       0.912  -8.705   9.489  0.00  0.00    +0.060 A 
BRANCH  23  25
ATOM     25  O   UNL     1       1.078  -9.251  11.793  0.00  0.00    -0.503 OA
ATOM     26  H   UNL     1       0.240  -9.607  12.117  0.00  0.00    +0.292 HD
ENDBRANCH  23  25
BRANCH  22  27
ATOM     27  O   UNL     1       0.846  -6.589  12.452  0.00  0.00    -0.503 OA
ATOM     28  H   UNL     1      -0.025  -6.566  12.870  0.00  0.00    +0.292 HD
ENDBRANCH  22  27
ENDBRANCH  17  19
ENDBRANCH  16  17
ENDBRANCH  15  16
ENDBRANCH   5  15
TORSDOF 7
