REMARK  Name = ZINC32665974
REMARK  9 active torsions:
REMARK  status: ('A' for Active; 'I' for Inactive)
REMARK    1  A    between atoms: C_1  and  C_2
REMARK    2  A    between atoms: C_2  and  C_3
REMARK    3  A    between atoms: C_3  and  N_4
REMARK    4  A    between atoms: C_5  and  C_23
REMARK    5  A    between atoms: C_6  and  C_19
REMARK    6  A    between atoms: C_7  and  C_12
REMARK    7  A    between atoms: C_15  and  O_18
REMARK    8  A    between atoms: C_19  and  O_21
REMARK    9  A    between atoms: O_21  and  C_22
REMARK                            x       y       z     vdW  Elec       q    Type
REMARK                         _______ _______ _______ _____ _____    ______ ____
ROOT
ATOM      1  N   UNL     1      -2.056  -1.668  -0.800  0.00  0.00    -0.286 N 
ATOM      2  C   UNL     1      -1.285  -1.071  -1.755  0.00  0.00    +0.021 C 
ATOM      3  C   UNL     1      -0.274  -0.243  -1.416  0.00  0.00    +0.078 C 
ATOM      4  C   UNL     1      -0.024   0.000   0.059  0.00  0.00    +0.141 C 
ATOM      5  N   UNL     1      -0.913  -0.692   1.008  0.00  0.00    -0.315 N 
ATOM      6  C   UNL     1      -1.881  -1.490   0.515  0.00  0.00    +0.138 C 
ATOM      7  S   UNL     1      -2.921  -2.301   1.607  0.00  0.00    -0.018 S 
ATOM      8  C   UNL     1      -1.566  -1.341  -3.210  0.00  0.00    +0.061 C 
ATOM      9  H   UNL     1      -0.777  -0.552   2.091  0.00  0.00    +0.149 HD
ENDROOT
BRANCH   4  10
ATOM     10  C   UNL     1      -0.139   1.481   0.312  0.00  0.00    -0.022 A 
ATOM     11  C   UNL     1      -1.381   2.054   0.510  0.00  0.00    +0.009 A 
ATOM     12  C   UNL     1      -1.488   3.410   0.748  0.00  0.00    +0.046 A 
ATOM     13  C   UNL     1      -0.348   4.201   0.775  0.00  0.00    +0.117 A 
ATOM     14  C   UNL     1       0.897   3.625   0.570  0.00  0.00    +0.046 A 
ATOM     15  C   UNL     1       0.999   2.267   0.339  0.00  0.00    +0.009 A 
BRANCH  13  16
ATOM     16  O   UNL     1      -0.451   5.536   1.003  0.00  0.00    -0.507 OA
ATOM     17  H   UNL     1       0.453   6.162   1.025  0.00  0.00    +0.292 HD
ENDBRANCH  13  16
ENDBRANCH   4  10
BRANCH   3  18
ATOM     18  C   UNL     1       0.525   0.377  -2.404  0.00  0.00    +0.339 C 
ATOM     19  O   UNL     1       0.307   0.167  -3.583  0.00  0.00    -0.245 OA
BRANCH  18  20
ATOM     20  O   UNL     1       1.530   1.200  -2.041  0.00  0.00    -0.465 OA
ATOM     21  C   UNL     1       2.297   1.792  -3.092  0.00  0.00    +0.280 C 
ENDBRANCH  18  20
ENDBRANCH   3  18
BRANCH   1  22
ATOM     22  C   UNL     1      -3.137  -2.555  -1.239  0.00  0.00    +0.112 C 
BRANCH  22  24
ATOM     23  C   UNL     1      -5.510  -2.649  -2.014  0.00  0.00    +0.005 C 
ATOM     24  C   UNL     1      -4.382  -1.724  -1.556  0.00  0.00    +0.016 C 
ENDBRANCH  22  24
ENDBRANCH   1  22
TORSDOF 6
