REMARK  Name = ZINC35556474
REMARK  6 active torsions:
REMARK  status: ('A' for Active; 'I' for Inactive)
REMARK    1  A    between atoms: C_1  and  C_2
REMARK    2  A    between atoms: C_2  and  N_3
REMARK    3  A    between atoms: N_3  and  C_4
REMARK    4  A    between atoms: C_4  and  C_6
REMARK    5  A    between atoms: C_4  and  C_16
REMARK    6  A    between atoms: C_20  and  C_21
REMARK                            x       y       z     vdW  Elec       q    Type
REMARK                         _______ _______ _______ _____ _____    ______ ____
ROOT
ATOM      1  C   UNL     1      -1.356  -1.981   0.004  0.00  0.00    -0.007 C 
ENDROOT
BRANCH   1   2
ATOM      2  C   UNL     1      -0.737  -2.482   1.284  0.00  0.00    -0.053 A 
ATOM      3  C   UNL     1      -1.035  -1.857   2.484  0.00  0.00    +0.004 A 
ATOM      4  C   UNL     1      -0.477  -2.304   3.661  0.00  0.00    +0.032 A 
ATOM      5  C   UNL     1       0.395  -3.394   3.643  0.00  0.00    +0.113 A 
ATOM      6  C   UNL     1       0.694  -4.024   2.426  0.00  0.00    +0.159 A 
ATOM      7  C   UNL     1       0.119  -3.564   1.252  0.00  0.00    +0.051 A 
ATOM      8  O   UNL     1       1.551  -5.029   2.719  0.00  0.00    -0.406 OA
ATOM      9  C   UNL     1       1.769  -5.022   4.045  0.00  0.00    +0.441 A 
ATOM     10  O   UNL     1       2.575  -5.886   4.701  0.00  0.00    -0.221 OA
ATOM     11  N   UNL     1       1.091  -4.058   4.607  0.00  0.00    -0.172 NA
ENDBRANCH   1   2
BRANCH   1  12
ATOM     12  C   UNL     1      -2.766  -2.502  -0.109  0.00  0.00    -0.017 A 
ATOM     13  C   UNL     1      -3.952  -1.793   0.187  0.00  0.00    +0.043 A 
ATOM     14  C   UNL     1      -4.977  -2.631  -0.052  0.00  0.00    +0.195 A 
ATOM     15  O   UNL     1      -4.477  -3.803  -0.475  0.00  0.00    -0.468 OA
ATOM     16  C   UNL     1      -3.137  -3.729  -0.516  0.00  0.00    +0.104 A 
ATOM     17  C   UNL     1      -2.206  -4.835  -0.943  0.00  0.00    +0.086 C 
ENDBRANCH   1  12
BRANCH   1  18
ATOM     18  N   UNL     1      -1.376  -0.512   0.012  0.00  0.00    +0.386 N 
ATOM     19  H   UNL     1      -1.848  -0.187   0.843  0.00  0.00    -0.085 HD
ATOM     20  H   UNL     1      -1.864  -0.178  -0.805  0.00  0.00    -0.085 HD
BRANCH  18  22
ATOM     21  C   UNL     1      -0.019   1.526   0.010  0.00  0.00    -0.017 C 
ATOM     22  C   UNL     1       0.002  -0.004   0.002  0.00  0.00    -0.085 C 
ENDBRANCH  18  22
ENDBRANCH   1  18
TORSDOF 4
