REMARK  Name = ZINC14544703
REMARK  4 active torsions:
REMARK  status: ('A' for Active; 'I' for Inactive)
REMARK    1  A    between atoms: C_1  and  O_2
REMARK    2  A    between atoms: O_2  and  C_3
REMARK    3  A    between atoms: C_6  and  N_29
REMARK    4  A    between atoms: C_10  and  C_19
REMARK                            x       y       z     vdW  Elec       q    Type
REMARK                         _______ _______ _______ _____ _____    ______ ____
ROOT
ATOM      1  C   UNL     1      -4.573   2.961  -2.626  0.00  0.00    +0.141 A 
ATOM      2  C   UNL     1      -5.084   4.201  -2.286  0.00  0.00    +0.050 A 
ATOM      3  C   UNL     1      -4.385   5.014  -1.413  0.00  0.00    +0.037 A 
ATOM      4  C   UNL     1      -3.185   4.589  -0.882  0.00  0.00    +0.132 A 
ATOM      5  C   UNL     1      -2.663   3.344  -1.214  0.00  0.00    +0.014 A 
ATOM      6  C   UNL     1      -3.356   2.530  -2.090  0.00  0.00    +0.076 A 
ATOM      7  N   UNL     1      -2.881   1.272  -2.471  0.00  0.00    -0.334 N 
ATOM      8  C   UNL     1      -1.996   0.679  -1.446  0.00  0.00    +0.107 C 
ATOM      9  C   UNL     1      -0.821   1.629  -1.204  0.00  0.00    +0.029 C 
ATOM     10  C   UNL     1      -1.356   2.943  -0.597  0.00  0.00    +0.051 C 
ATOM     11  C   UNL     1      -1.519   2.631   0.873  0.00  0.00    -0.023 C 
ATOM     12  C   UNL     1      -0.778   1.602   1.210  0.00  0.00    -0.030 C 
ATOM     13  C   UNL     1      -0.013   1.086   0.008  0.00  0.00    +0.033 C 
ATOM     14  H   UNL     1      -3.643   0.649  -2.691  0.00  0.00    +0.147 HD
ENDROOT
BRANCH   8  15
ATOM     15  C   UNL     1      -1.478  -0.647  -1.940  0.00  0.00    -0.002 A 
ATOM     16  C   UNL     1      -1.370  -1.035  -3.221  0.00  0.00    +0.089 A 
ATOM     17  N   UNL     1      -0.856  -2.301  -3.283  0.00  0.00    -0.360 N 
ATOM     18  H   UNL     1      -0.685  -2.794  -4.101  0.00  0.00    +0.165 HD
ATOM     19  C   UNL     1      -0.622  -2.774  -2.011  0.00  0.00    +0.047 A 
ATOM     20  C   UNL     1      -1.002  -1.759  -1.114  0.00  0.00    +0.005 A 
ATOM     21  C   UNL     1      -0.873  -1.960   0.261  0.00  0.00    +0.010 A 
ATOM     22  C   UNL     1      -0.379  -3.145   0.730  0.00  0.00    +0.001 A 
ATOM     23  C   UNL     1      -0.004  -4.150  -0.150  0.00  0.00    +0.002 A 
ATOM     24  C   UNL     1      -0.122  -3.972  -1.512  0.00  0.00    +0.026 A 
ENDBRANCH   8  15
BRANCH   4  25
ATOM     25  N   UNL     1      -2.446   5.467   0.051  0.00  0.00    +0.057 N 
ATOM     26  O   UNL     1      -2.898   6.559   0.347  0.00  0.00    -0.126 OA
ATOM     27  O   UNL     1      -1.386   5.098   0.524  0.00  0.00    -0.126 OA
ENDBRANCH   4  25
BRANCH   1  29
ATOM     28  C   UNL     1      -6.494   2.660  -3.995  0.00  0.00    +0.277 C 
ATOM     29  O   UNL     1      -5.258   2.159  -3.484  0.00  0.00    -0.493 OA
ENDBRANCH   1  29
TORSDOF 3
