REMARK  Name = ZINC21901835
REMARK  7 active torsions:
REMARK  status: ('A' for Active; 'I' for Inactive)
REMARK    1  A    between atoms: C_1  and  C_2
REMARK    2  A    between atoms: C_5  and  C_24
REMARK    3  A    between atoms: C_6  and  C_8
REMARK    4  A    between atoms: C_8  and  C_10
REMARK    5  A    between atoms: C_8  and  N_11
REMARK    6  A    between atoms: C_12  and  C_14
REMARK    7  A    between atoms: C_14  and  N_15
REMARK                            x       y       z     vdW  Elec       q    Type
REMARK                         _______ _______ _______ _____ _____    ______ ____
ROOT
ATOM      1  N   UNL     1      -5.490   3.499  -1.596  0.00  0.00    -0.307 N 
ATOM      2  C   UNL     1      -4.183   3.730  -1.361  0.00  0.00    +0.235 C 
ATOM      3  O   UNL     1      -3.416   3.873  -2.289  0.00  0.00    -0.274 OA
ATOM      4  H   UNL     1      -6.186   3.369  -0.754  0.00  0.00    +0.149 HD
ENDROOT
BRANCH   1   5
ATOM      5  C   UNL     1      -5.984   3.421  -2.973  0.00  0.00    +0.100 C 
ATOM      6  C   UNL     1      -6.291   4.829  -3.485  0.00  0.00    +0.033 C 
BRANCH   5  12
ATOM      7  C   UNL     1     -10.031   1.576  -0.678  0.00  0.00    +0.044 C 
ATOM      8  C   UNL     1      -9.175   1.705  -1.912  0.00  0.00    -0.050 A 
ATOM      9  C   UNL     1      -9.541   1.058  -3.078  0.00  0.00    +0.003 A 
ATOM     10  C   UNL     1      -8.756   1.176  -4.209  0.00  0.00    +0.004 A 
ATOM     11  C   UNL     1      -7.604   1.940  -4.175  0.00  0.00    -0.046 A 
ATOM     12  C   UNL     1      -7.239   2.587  -3.010  0.00  0.00    -0.024 A 
ATOM     13  C   UNL     1      -8.021   2.465  -1.877  0.00  0.00    +0.009 A 
ATOM     14  C   UNL     1      -6.748   2.068  -5.409  0.00  0.00    +0.044 C 
ENDBRANCH   5  12
ENDBRANCH   1   5
BRANCH   2  15
ATOM     15  C   UNL     1      -3.675   3.810   0.056  0.00  0.00    +0.241 C 
BRANCH  15  16
ATOM     16  N   UNL     1      -2.233   4.067   0.044  0.00  0.00    -0.235 N 
ATOM     17  C   UNL     1      -1.230   3.127   0.030  0.00  0.00    +0.090 A 
ATOM     18  C   UNL     1      -1.209   1.737   0.017  0.00  0.00    +0.029 A 
ATOM     19  C   UNL     1      -0.013   1.076   0.008  0.00  0.00    +0.002 A 
ATOM     20  C   UNL     1       1.184   1.781   0.000  0.00  0.00    +0.002 A 
ATOM     21  C   UNL     1       1.191   3.145   0.007  0.00  0.00    +0.032 A 
ATOM     22  C   UNL     1      -0.022   3.847   0.022  0.00  0.00    +0.113 A 
ATOM     23  N   UNL     1      -0.328   5.160   0.032  0.00  0.00    -0.129 NA
ATOM     24  N   UNL     1      -1.604   5.321   0.044  0.00  0.00    -0.064 NA
ENDBRANCH  15  16
ENDBRANCH   2  15
TORSDOF 4
