REMARK  Name = ZINC44938599
REMARK  5 active torsions:
REMARK  status: ('A' for Active; 'I' for Inactive)
REMARK    1  A    between atoms: C_4  and  C_7
REMARK    2  A    between atoms: C_7  and  C_34
REMARK    3  A    between atoms: C_13  and  C_15
REMARK    4  A    between atoms: C_21  and  C_23
REMARK    5  A    between atoms: N_25  and  N_26
REMARK                            x       y       z     vdW  Elec       q    Type
REMARK                         _______ _______ _______ _____ _____    ______ ____
ROOT
ATOM      1  C   UNL     1       5.823  -5.003   1.692  0.00  0.00    +0.091 C 
ATOM      2  C   UNL     1       6.364  -5.723   0.455  0.00  0.00    +0.040 C 
ATOM      3  C   UNL     1       6.287  -7.210   0.648  0.00  0.00    -0.030 C 
ATOM      4  C   UNL     1       6.134  -7.785   1.797  0.00  0.00    -0.030 C 
ATOM      5  C   UNL     1       6.002  -7.046   3.097  0.00  0.00    +0.040 C 
ATOM      6  C   UNL     1       6.486  -5.604   2.938  0.00  0.00    +0.092 C 
ENDROOT
BRANCH   1  13
ATOM      7  C   UNL     1       3.387  -1.088  -0.206  0.00  0.00    +0.085 C 
ATOM      8  C   UNL     1       4.343  -0.587   0.878  0.00  0.00    +0.045 C 
ATOM      9  C   UNL     1       5.695  -1.293   0.729  0.00  0.00    +0.109 C 
ATOM     10  N   UNL     1       5.474  -2.745   0.743  0.00  0.00    -0.301 N 
ATOM     11  C   UNL     1       4.505  -3.322  -0.199  0.00  0.00    +0.109 C 
ATOM     12  C   UNL     1       3.167  -2.593  -0.039  0.00  0.00    +0.045 C 
ATOM     13  C   UNL     1       6.147  -3.534   1.605  0.00  0.00    +0.220 C 
ATOM     14  O   UNL     1       7.013  -3.061   2.309  0.00  0.00    -0.275 OA
BRANCH   7  18
ATOM     15  C   UNL     1      -0.354   0.945   0.141  0.00  0.00    +0.000 A 
ATOM     16  C   UNL     1       0.805   1.663  -0.088  0.00  0.00    +0.000 A 
ATOM     17  C   UNL     1       2.015   1.005  -0.200  0.00  0.00    +0.005 A 
ATOM     18  C   UNL     1       2.068  -0.371  -0.083  0.00  0.00    -0.027 A 
ATOM     19  C   UNL     1       0.909  -1.090   0.146  0.00  0.00    +0.005 A 
ATOM     20  C   UNL     1      -0.302  -0.432   0.257  0.00  0.00    +0.000 A 
ENDBRANCH   7  18
BRANCH   7  21
ATOM     21  C   UNL     1       3.968  -0.822  -1.533  0.00  0.00    +0.074 C 
ATOM     22  N   UNL     1       4.416  -0.617  -2.556  0.00  0.00    -0.196 NA
ENDBRANCH   7  21
ENDBRANCH   1  13
BRANCH   6  23
ATOM     23  C   UNL     1       7.984  -5.592   2.770  0.00  0.00    +0.233 C 
ATOM     24  O   UNL     1       8.522  -6.426   2.072  0.00  0.00    -0.274 OA
ATOM     25  N   UNL     1       8.725  -4.656   3.396  0.00  0.00    -0.235 N 
ATOM     26  H   UNL     1       8.294  -3.990   3.954  0.00  0.00    +0.173 HD
BRANCH  25  27
ATOM     27  N   UNL     1      10.117  -4.646   3.240  0.00  0.00    -0.248 N 
ATOM     28  C   UNL     1      10.881  -3.680   3.884  0.00  0.00    +0.137 A 
ATOM     29  C   UNL     1      12.262  -3.672   3.720  0.00  0.00    +0.045 A 
ATOM     30  C   UNL     1      13.012  -2.706   4.368  0.00  0.00    +0.006 A 
ATOM     31  C   UNL     1      12.352  -1.776   5.160  0.00  0.00    +0.040 A 
ATOM     32  C   UNL     1      10.977  -1.843   5.279  0.00  0.00    +0.131 A 
ATOM     33  N   UNL     1      10.287  -2.773   4.645  0.00  0.00    -0.219 NA
ATOM     34 CL   UNL     1      10.145  -0.684   6.268  0.00  0.00    -0.062 Cl
ATOM     35  H   UNL     1      10.547  -5.312   2.682  0.00  0.00    +0.172 HD
ENDBRANCH  25  27
ENDBRANCH   6  23
TORSDOF 5
