REMARK  Name = ZINC39464351
REMARK  6 active torsions:
REMARK  status: ('A' for Active; 'I' for Inactive)
REMARK    1  A    between atoms: C_1  and  S_2
REMARK    2  A    between atoms: S_2  and  C_3
REMARK    3  A    between atoms: C_8  and  S_9
REMARK    4  A    between atoms: S_9  and  C_10
REMARK    5  A    between atoms: P_15  and  C_21
REMARK    6  A    between atoms: C_26  and  O_27
REMARK                            x       y       z     vdW  Elec       q    Type
REMARK                         _______ _______ _______ _____ _____    ______ ____
ROOT
ATOM      1  C   UNL     1       0.877  -0.427   1.472  0.00  0.00    +0.021 A 
ATOM      2  C   UNL     1       1.349   0.568   2.312  0.00  0.00    +0.019 A 
ATOM      3  C   UNL     1       2.038   0.239   3.470  0.00  0.00    -0.040 A 
ATOM      4  C   UNL     1       2.258  -1.083   3.793  0.00  0.00    -0.022 A 
ATOM      5  C   UNL     1       1.787  -2.085   2.955  0.00  0.00    +0.021 A 
ATOM      6  C   UNL     1       1.093  -1.766   1.800  0.00  0.00    +0.021 A 
ATOM      7  C   UNL     1       3.003  -1.490   5.038  0.00  0.00    +0.129 C 
ATOM      8  C   UNL     1       2.279  -2.673   5.688  0.00  0.00    +0.194 C 
ATOM      9  O   UNL     1       3.060  -3.131   6.810  0.00  0.00    -0.311 OA
ATOM     10  P   UNL     1       3.564  -2.032   7.898  0.00  0.00    +0.318 P 
ATOM     11  O   UNL     1       2.476  -1.722   8.853  0.00  0.00    -0.266 OA
ATOM     12  N   UNL     1       3.957  -0.686   7.022  0.00  0.00    -0.175 NA
ATOM     13  N   UNL     1       3.106  -0.376   5.980  0.00  0.00    -0.225 NA
ATOM     14  C   UNL     1       3.592   0.838   5.306  0.00  0.00    +0.108 C 
ATOM     15  C   UNL     1       2.531   1.357   4.354  0.00  0.00    +0.052 C 
ATOM     16  H   UNL     1       4.733  -0.146   7.238  0.00  0.00    +0.151 HD
ENDROOT
BRANCH  10  17
ATOM     17  C   UNL     1       5.019  -2.652   8.787  0.00  0.00    +0.094 A 
ATOM     18  C   UNL     1       6.287  -2.393   8.303  0.00  0.00    +0.018 A 
ATOM     19  C   UNL     1       7.396  -2.866   8.980  0.00  0.00    +0.001 A 
ATOM     20  C   UNL     1       7.239  -3.599  10.142  0.00  0.00    +0.004 A 
ATOM     21  C   UNL     1       5.974  -3.860  10.630  0.00  0.00    +0.046 A 
ATOM     22  C   UNL     1       4.859  -3.382   9.956  0.00  0.00    +0.131 A 
BRANCH  22  23
ATOM     23  O   UNL     1       3.613  -3.633  10.437  0.00  0.00    -0.506 OA
ATOM     24  H   UNL     1       3.221  -4.452  10.106  0.00  0.00    +0.292 HD
ENDBRANCH  22  23
ENDBRANCH  10  17
BRANCH   1  26
ATOM     25  C   UNL     1      -0.022   1.810   0.012  0.00  0.00    +0.090 C 
ATOM     26  S   UNL     1       0.002  -0.004   0.002  0.00  0.00    -0.127 S 
ENDBRANCH   1  26
BRANCH   6  27
ATOM     27  S   UNL     1       0.492  -3.044   0.747  0.00  0.00    -0.127 S 
ATOM     28  C   UNL     1       1.006  -4.574   1.575  0.00  0.00    +0.090 C 
ENDBRANCH   6  27
TORSDOF 4
