REMARK  Name = ZINC42879159
REMARK  4 active torsions:
REMARK  status: ('A' for Active; 'I' for Inactive)
REMARK    1  A    between atoms: C_6  and  N_7
REMARK    2  A    between atoms: N_7  and  C_8
REMARK    3  A    between atoms: C_8  and  C_9
REMARK    4  A    between atoms: C_14  and  O_15
REMARK                            x       y       z     vdW  Elec       q    Type
REMARK                         _______ _______ _______ _____ _____    ______ ____
ROOT
ATOM      1  C   UNL     1      -2.479  -0.007   0.026  0.00  0.00    +0.140 C 
ENDROOT
BRANCH   1   2
ATOM      2  C   UNL     1      -3.610  -1.003   0.032  0.00  0.00    +0.015 A 
ATOM      3  C   UNL     1      -4.326  -1.228   1.194  0.00  0.00    +0.058 A 
ATOM      4  C   UNL     1      -5.366  -2.142   1.202  0.00  0.00    +0.167 A 
ATOM      5  C   UNL     1      -5.691  -2.836   0.039  0.00  0.00    +0.170 A 
ATOM      6  C   UNL     1      -4.974  -2.608  -1.124  0.00  0.00    +0.095 A 
ATOM      7  C   UNL     1      -3.936  -1.688  -1.129  0.00  0.00    +0.125 A 
ATOM      8  O   UNL     1      -6.740  -3.668   0.305  0.00  0.00    -0.452 OA
ATOM      9  C   UNL     1      -6.789  -3.778   1.740  0.00  0.00    +0.466 C 
ATOM     10  O   UNL     1      -6.212  -2.541   2.198  0.00  0.00    -0.453 OA
BRANCH   7  11
ATOM     11  O   UNL     1      -3.235  -1.460  -2.271  0.00  0.00    -0.506 OA
ATOM     12  H   UNL     1      -2.466  -2.036  -2.382  0.00  0.00    +0.292 HD
ENDBRANCH   7  11
ENDBRANCH   1   2
BRANCH   1  13
ATOM     13  N   UNL     1      -1.200  -0.721   0.010  0.00  0.00    -0.337 N 
ATOM     14  H   UNL     1      -1.186  -1.691   0.005  0.00  0.00    +0.146 HD
BRANCH  13  20
ATOM     15  C   UNL     1      -0.017   1.384   0.010  0.00  0.00    +0.029 A 
ATOM     16  C   UNL     1       1.171   2.091   0.002  0.00  0.00    +0.043 A 
ATOM     17  C   UNL     1       2.380   1.418  -0.013  0.00  0.00    +0.161 A 
ATOM     18  C   UNL     1       2.403   0.032  -0.021  0.00  0.00    +0.195 A 
ATOM     19  C   UNL     1       1.216  -0.681  -0.013  0.00  0.00    +0.182 A 
ATOM     20  C   UNL     1       0.002  -0.004   0.002  0.00  0.00    +0.066 A 
ATOM     21  F   UNL     1       1.238  -2.032  -0.021  0.00  0.00    -0.200 F 
ATOM     22  F   UNL     1       3.585  -0.624  -0.037  0.00  0.00    -0.199 F 
ATOM     23  F   UNL     1       3.538   2.113  -0.022  0.00  0.00    -0.202 F 
ENDBRANCH  13  20
ENDBRANCH   1  13
TORSDOF 4
