REMARK  Name = ZINC25497689
REMARK  6 active torsions:
REMARK  status: ('A' for Active; 'I' for Inactive)
REMARK    1  A    between atoms: C_1  and  C_2
REMARK    2  A    between atoms: C_4  and  C_8
REMARK    3  A    between atoms: C_5  and  C_7
REMARK    4  A    between atoms: C_8  and  C_10
REMARK    5  A    between atoms: C_8  and  N_11
REMARK    6  A    between atoms: C_13  and  C_22
REMARK                            x       y       z     vdW  Elec       q    Type
REMARK                         _______ _______ _______ _____ _____    ______ ____
ROOT
ATOM      1  N   UNL     1       1.389   1.591   2.429  0.00  0.00    -0.321 N 
ATOM      2  C   UNL     1       0.020   1.808   2.422  0.00  0.00    +0.141 A 
ATOM      3  C   UNL     1      -0.718   1.572   1.248  0.00  0.00    +0.078 A 
ATOM      4  N   UNL     1      -2.013   1.776   1.221  0.00  0.00    -0.247 NA
ATOM      5  C   UNL     1      -2.644   2.203   2.322  0.00  0.00    +0.090 A 
ATOM      6  C   UNL     1      -4.031   2.425   2.321  0.00  0.00    +0.030 A 
ATOM      7  C   UNL     1      -4.646   2.864   3.453  0.00  0.00    +0.002 A 
ATOM      8  C   UNL     1      -3.919   3.098   4.618  0.00  0.00    +0.002 A 
ATOM      9  C   UNL     1      -2.574   2.894   4.656  0.00  0.00    +0.030 A 
ATOM     10  C   UNL     1      -1.905   2.441   3.507  0.00  0.00    +0.091 A 
ATOM     11  N   UNL     1      -0.582   2.233   3.517  0.00  0.00    -0.229 NA
ATOM     12  C   UNL     1      -0.013   1.086   0.008  0.00  0.00    +0.069 C 
ATOM     13  H   UNL     1       1.895   1.236   1.519  0.00  0.00    +0.148 HD
ENDROOT
BRANCH   1  14
ATOM     14  C   UNL     1       2.163   1.835   3.649  0.00  0.00    +0.100 C 
ATOM     15  C   UNL     1       2.544   3.315   3.724  0.00  0.00    +0.033 C 
BRANCH  14  19
ATOM     16  C   UNL     1       5.853  -0.758   1.285  0.00  0.00    +0.051 C 
ATOM     17  C   UNL     1       5.080  -0.182   2.443  0.00  0.00    -0.013 A 
ATOM     18  C   UNL     1       3.951   0.568   2.428  0.00  0.00    +0.016 A 
ATOM     19  C   UNL     1       3.413   0.994   3.628  0.00  0.00    -0.017 A 
ATOM     20  C   UNL     1       4.025   0.641   4.785  0.00  0.00    -0.008 A 
ATOM     21  S   UNL     1       5.410  -0.318   4.193  0.00  0.00    -0.098 S 
ATOM     22  C   UNL     1       3.636   0.971   6.203  0.00  0.00    +0.052 C 
ENDBRANCH  14  19
ENDBRANCH   1  14
TORSDOF 2
