REMARK  Name = ZINC49554487
REMARK  12 active torsions:
REMARK  status: ('A' for Active; 'I' for Inactive)
REMARK    1  A    between atoms: C_1  and  C_2
REMARK    2  A    between atoms: C_2  and  C_3
REMARK    3  A    between atoms: C_2  and  C_4
REMARK    4  A    between atoms: C_4  and  C_5
REMARK    5  A    between atoms: C_5  and  C_7
REMARK    6  A    between atoms: C_5  and  N_11
REMARK    7  A    between atoms: C_7  and  N_8
REMARK    8  A    between atoms: N_8  and  C_9
REMARK    9  A    between atoms: N_8  and  C_10
REMARK   10  A    between atoms: N_11  and  S_12
REMARK   11  A    between atoms: S_12  and  C_15
REMARK   12  A    between atoms: C_18  and  N_22
REMARK                            x       y       z     vdW  Elec       q    Type
REMARK                         _______ _______ _______ _____ _____    ______ ____
ROOT
ATOM      1  S   UNL     1       1.755   2.271   0.422  0.00  0.00    +0.060 S 
ATOM      2  O   UNL     1       1.342   3.621   0.583  0.00  0.00    -0.153 OA
ATOM      3  O   UNL     1       1.025   1.181   0.969  0.00  0.00    -0.153 OA
ENDROOT
BRANCH   1   4
ATOM      4  C   UNL     1       3.388   2.161   1.075  0.00  0.00    +0.124 A 
ATOM      5  C   UNL     1       4.118   3.313   1.303  0.00  0.00    +0.032 A 
ATOM      6  C   UNL     1       5.398   3.231   1.815  0.00  0.00    +0.025 A 
ATOM      7  C   UNL     1       5.952   1.989   2.101  0.00  0.00    +0.026 A 
ATOM      8  C   UNL     1       5.217   0.834   1.871  0.00  0.00    +0.044 A 
ATOM      9  C   UNL     1       3.934   0.923   1.363  0.00  0.00    +0.069 A 
ATOM     10 CL   UNL     1       3.011  -0.520   1.081  0.00  0.00    -0.081 Cl
BRANCH   7  11
ATOM     11  N   UNL     1       7.247   1.903   2.618  0.00  0.00    -0.358 N 
ATOM     12  H   UNL     1       7.760   2.711   2.777  0.00  0.00    +0.142 HD
ATOM     13  H   UNL     1       7.633   1.036   2.817  0.00  0.00    +0.142 HD
ENDBRANCH   7  11
ENDBRANCH   1   4
BRANCH   1  14
ATOM     14  N   UNL     1       1.860   2.000  -1.208  0.00  0.00    -0.189 NA
ATOM     15  H   UNL     1       1.677   2.719  -1.832  0.00  0.00    +0.148 HD
BRANCH  14  16
ATOM     16  C   UNL     1       2.228   0.673  -1.708  0.00  0.00    +0.060 C 
BRANCH  16  17
ATOM     17  C   UNL     1       0.961  -0.140  -1.980  0.00  0.00    +0.021 C 
BRANCH  17  19
ATOM     18  C   UNL     1       2.065  -2.295  -1.364  0.00  0.00    +0.007 C 
ATOM     19  C   UNL     1       1.347  -1.534  -2.480  0.00  0.00    -0.016 C 
ATOM     20  C   UNL     1       0.084  -2.297  -2.887  0.00  0.00    +0.007 C 
ENDBRANCH  17  19
ENDBRANCH  16  17
BRANCH  16  21
ATOM     21  C   UNL     1       3.028   0.820  -3.004  0.00  0.00    -0.059 C 
BRANCH  21  22
ATOM     22  N   UNL     1       4.180   1.702  -2.771  0.00  0.00    +0.377 N 
ATOM     23  C   UNL     1       5.114   1.052  -1.843  0.00  0.00    -0.097 C 
ATOM     24  C   UNL     1       4.860   1.966  -4.046  0.00  0.00    -0.097 C 
ATOM     25  H   UNL     1       3.861   2.573  -2.373  0.00  0.00    -0.083 HD
ENDBRANCH  21  22
ENDBRANCH  16  21
ENDBRANCH  14  16
ENDBRANCH   1  14
TORSDOF 8
