REMARK  Name = ZINC62827862
REMARK  8 active torsions:
REMARK  status: ('A' for Active; 'I' for Inactive)
REMARK    1  A    between atoms: C_1  and  C_2
REMARK    2  A    between atoms: C_3  and  C_20
REMARK    3  A    between atoms: C_5  and  N_10
REMARK    4  A    between atoms: C_6  and  C_7
REMARK    5  A    between atoms: N_13  and  C_14
REMARK    6  A    between atoms: C_14  and  C_15
REMARK    7  A    between atoms: C_15  and  S_16
REMARK    8  A    between atoms: S_16  and  N_19
REMARK                            x       y       z     vdW  Elec       q    Type
REMARK                         _______ _______ _______ _____ _____    ______ ____
ROOT
ATOM      1  N   UNL     1       0.054  -3.122   2.078  0.00  0.00    -0.263 N 
ATOM      2  C   UNL     1       0.071  -4.430   1.754  0.00  0.00    +0.304 C 
ATOM      3  O   UNL     1       0.070  -4.767   0.586  0.00  0.00    -0.252 OA
ATOM      4  N   UNL     1       0.088  -5.364   2.725  0.00  0.00    -0.298 N 
ATOM      5  H   UNL     1       0.055  -2.852   3.009  0.00  0.00    +0.157 HD
ATOM      6  H   UNL     1       0.088  -5.095   3.657  0.00  0.00    +0.150 HD
ENDROOT
BRANCH   1  11
ATOM      7  C   UNL     1      -0.018   1.503   0.010  0.00  0.00    +0.045 C 
ATOM      8  C   UNL     1       0.002  -0.004   0.002  0.00  0.00    -0.025 A 
ATOM      9  C   UNL     1       0.007  -0.712  -1.141  0.00  0.00    -0.008 A 
ATOM     10  S   UNL     1       0.033  -2.400  -0.581  0.00  0.00    -0.078 S 
ATOM     11  C   UNL     1       0.037  -2.162   1.080  0.00  0.00    +0.088 A 
ATOM     12  C   UNL     1       0.024  -0.779   1.224  0.00  0.00    +0.095 A 
ATOM     13  C   UNL     1      -0.007  -0.198  -2.558  0.00  0.00    +0.052 C 
BRANCH  12  14
ATOM     14  C   UNL     1       0.028  -0.161   2.499  0.00  0.00    +0.389 C 
ATOM     15  O   UNL     1       0.012   1.061   2.588  0.00  0.00    -0.240 OA
ATOM     16  O   UNL     1       0.047  -0.848   3.513  0.00  0.00    -0.240 OA
ENDBRANCH  12  14
ENDBRANCH   1  11
BRANCH   4  17
ATOM     17  C   UNL     1       0.106  -6.786   2.373  0.00  0.00    +0.130 C 
BRANCH  17  18
ATOM     18  C   UNL     1       0.122  -7.627   3.651  0.00  0.00    +0.203 C 
BRANCH  18  19
ATOM     19  S   UNL     1       0.145  -9.388   3.216  0.00  0.00    +0.028 S 
ATOM     20  O   UNL     1      -1.088  -9.759   2.613  0.00  0.00    -0.158 OA
ATOM     21  O   UNL     1       1.381  -9.725   2.602  0.00  0.00    -0.158 OA
BRANCH  19  22
ATOM     22  N   UNL     1       0.162 -10.185   4.667  0.00  0.00    -0.208 NA
ATOM     23  H   UNL     1       0.158  -9.683   5.497  0.00  0.00    +0.144 HD
ATOM     24  H   UNL     1       0.175 -11.155   4.688  0.00  0.00    +0.144 HD
ENDBRANCH  19  22
ENDBRANCH  18  19
ENDBRANCH  17  18
ENDBRANCH   4  17
TORSDOF 6
