REMARK  Name = ZINC66722003
REMARK  8 active torsions:
REMARK  status: ('A' for Active; 'I' for Inactive)
REMARK    1  A    between atoms: C_1  and  C_2
REMARK    2  A    between atoms: C_2  and  C_3
REMARK    3  A    between atoms: C_6  and  N_12
REMARK    4  A    between atoms: C_8  and  N_9
REMARK    5  A    between atoms: C_13  and  C_15
REMARK    6  A    between atoms: N_17  and  C_18
REMARK    7  A    between atoms: C_18  and  C_19
REMARK    8  A    between atoms: C_19  and  C_24
REMARK                            x       y       z     vdW  Elec       q    Type
REMARK                         _______ _______ _______ _____ _____    ______ ____
ROOT
ATOM      1  N   UNL     1       2.654  -1.833  -4.660  0.00  0.00    -0.278 N 
ATOM      2  C   UNL     1       1.940  -2.154  -5.758  0.00  0.00    +0.303 C 
ATOM      3  O   UNL     1       0.727  -2.138  -5.719  0.00  0.00    -0.265 OA
ATOM      4  H   UNL     1       3.621  -1.905  -4.673  0.00  0.00    +0.155 HD
ENDROOT
BRANCH   1   8
ATOM      5  C   UNL     1       0.706  -0.530  -1.218  0.00  0.00    -0.017 A 
ATOM      6  C   UNL     1       1.938  -0.001  -1.556  0.00  0.00    +0.007 A 
ATOM      7  C   UNL     1       2.587  -0.431  -2.696  0.00  0.00    +0.024 A 
ATOM      8  C   UNL     1       2.001  -1.396  -3.505  0.00  0.00    +0.036 A 
ATOM      9  C   UNL     1       0.763  -1.926  -3.163  0.00  0.00    +0.056 A 
ATOM     10  C   UNL     1       0.122  -1.495  -2.018  0.00  0.00    +0.131 A 
BRANCH  10  11
ATOM     11  N   UNL     1      -1.195  -2.063  -1.650  0.00  0.00    +0.057 N 
ATOM     12  O   UNL     1      -1.667  -2.966  -2.300  0.00  0.00    -0.126 OA
ATOM     13  O   UNL     1      -1.798  -1.623  -0.699  0.00  0.00    -0.126 OA
ENDBRANCH  10  11
BRANCH   5  15
ATOM     14  C   UNL     1       0.199  -1.085   1.145  0.00  0.00    +0.009 C 
ATOM     15  C   UNL     1       0.001  -0.059   0.028  0.00  0.00    +0.034 C 
ENDBRANCH   5  15
ENDBRANCH   1   8
BRANCH   2  16
ATOM     16  C   UNL     1       2.642  -2.530  -7.021  0.00  0.00    +0.299 C 
ATOM     17  O   UNL     1       3.855  -2.546  -7.060  0.00  0.00    -0.265 OA
ATOM     18  N   UNL     1       1.928  -2.851  -8.119  0.00  0.00    -0.307 N 
ATOM     19  H   UNL     1       0.959  -2.838  -8.088  0.00  0.00    +0.149 HD
BRANCH  18  20
ATOM     20  C   UNL     1       2.617  -3.219  -9.358  0.00  0.00    +0.111 C 
BRANCH  20  21
ATOM     21  C   UNL     1       1.583  -3.534 -10.441  0.00  0.00    -0.017 C 
ATOM     22  C   UNL     1       0.733  -4.752 -10.022  0.00  0.00    +0.008 C 
ATOM     23  C   UNL     1       0.496  -5.523 -11.345  0.00  0.00    +0.001 C 
ATOM     24  C   UNL     1       1.849  -5.364 -12.081  0.00  0.00    +0.001 C 
ATOM     25  C   UNL     1       2.293  -3.924 -11.750  0.00  0.00    +0.008 C 
ATOM     26  C   UNL     1       0.682  -2.320 -10.675  0.00  0.00    +0.013 C 
ENDBRANCH  20  21
ENDBRANCH  18  20
ENDBRANCH   2  16
TORSDOF 6
