REMARK  Name = ZINC13570044
REMARK  7 active torsions:
REMARK  status: ('A' for Active; 'I' for Inactive)
REMARK    1  A    between atoms: C_1  and  C_2
REMARK    2  A    between atoms: C_8  and  C_28
REMARK    3  A    between atoms: C_11  and  C_12
REMARK    4  A    between atoms: C_11  and  O_23
REMARK    5  A    between atoms: C_13  and  C_22
REMARK    6  A    between atoms: C_14  and  C_19
REMARK    7  A    between atoms: C_17  and  C_18
REMARK                            x       y       z     vdW  Elec       q    Type
REMARK                         _______ _______ _______ _____ _____    ______ ____
ROOT
ATOM      1  C   UNL     1      -2.872   7.936  -0.054  0.00  0.00    +0.089 C 
ATOM      2  C   UNL     1      -2.632   6.450   0.004  0.00  0.00    +0.136 A 
ATOM      3  C   UNL     1      -1.435   5.822  -0.055  0.00  0.00    +0.091 A 
ATOM      4  C   UNL     1      -1.767   4.444   0.041  0.00  0.00    +0.172 A 
ATOM      5  N   UNL     1      -3.070   4.388   0.138  0.00  0.00    -0.063 NA
ATOM      6  O   UNL     1      -3.562   5.492   0.124  0.00  0.00    -0.358 OA
ATOM      7  N   UNL     1      -0.882   3.367   0.028  0.00  0.00    -0.232 N 
ATOM      8  C   UNL     1       0.580   3.466   0.015  0.00  0.00    +0.187 C 
ATOM      9  C   UNL     1       1.109   2.051   0.003  0.00  0.00    +0.075 C 
ATOM     10  C   UNL     1       2.436   1.660  -0.012  0.00  0.00    +0.135 C 
ATOM     11  C   UNL     1      -0.014   1.214   0.009  0.00  0.00    +0.250 C 
ATOM     12  O   UNL     1       0.002  -0.004   0.002  0.00  0.00    -0.282 OA
ATOM     13  C   UNL     1      -1.231   2.069   0.018  0.00  0.00    +0.293 C 
ATOM     14  O   UNL     1      -2.372   1.656   0.021  0.00  0.00    -0.266 OA
ENDROOT
BRANCH  10  15
ATOM     15  C   UNL     1       2.781   0.231  -0.022  0.00  0.00    +0.041 A 
ATOM     16  C   UNL     1       3.346  -0.490  -1.099  0.00  0.00    -0.010 A 
ATOM     17  C   UNL     1       3.502  -1.778  -0.679  0.00  0.00    +0.105 A 
ATOM     18  N   UNL     1       3.050  -1.869   0.620  0.00  0.00    -0.354 N 
ATOM     19  H   UNL     1       3.047  -2.675   1.158  0.00  0.00    +0.166 HD
ATOM     20  C   UNL     1       2.619  -0.663   1.025  0.00  0.00    +0.024 A 
ATOM     21  C   UNL     1       2.054  -0.339   2.383  0.00  0.00    +0.064 C 
ATOM     22  C   UNL     1       3.709   0.060  -2.455  0.00  0.00    +0.047 C 
BRANCH  17  23
ATOM     23  C   UNL     1       4.056  -2.880  -1.475  0.00  0.00    +0.258 C 
ATOM     24  O   UNL     1       4.424  -2.681  -2.618  0.00  0.00    -0.269 OA
ATOM     25  N   UNL     1       4.156  -4.113  -0.940  0.00  0.00    -0.324 N 
ATOM     26  H   UNL     1       3.863  -4.272  -0.030  0.00  0.00    +0.145 HD
ATOM     27  H   UNL     1       4.522  -4.842  -1.466  0.00  0.00    +0.145 HD
ENDBRANCH  17  23
ENDBRANCH  10  15
BRANCH   8  28
ATOM     28  C   UNL     1       1.037   4.198  -1.221  0.00  0.00    +0.130 A 
ATOM     29  C   UNL     1       2.067   5.061  -1.288  0.00  0.00    +0.047 A 
ATOM     30  C   UNL     1       2.139   5.509  -2.628  0.00  0.00    +0.041 A 
ATOM     31  C   UNL     1       1.149   4.893  -3.298  0.00  0.00    +0.195 A 
ATOM     32  O   UNL     1       0.488   4.096  -2.442  0.00  0.00    -0.466 OA
ENDBRANCH   8  28
BRANCH  10  33
ATOM     33  O   UNL     1       3.414   2.590  -0.017  0.00  0.00    -0.506 OA
ATOM     34  H   UNL     1       4.305   2.137  -0.027  0.00  0.00    +0.292 HD
ENDBRANCH  10  33
TORSDOF 4
