REMARK  Name = ZINC63795388
REMARK  6 active torsions:
REMARK  status: ('A' for Active; 'I' for Inactive)
REMARK    1  A    between atoms: C_1  and  O_2
REMARK    2  A    between atoms: O_2  and  C_3
REMARK    3  A    between atoms: N_11  and  C_12
REMARK    4  A    between atoms: C_12  and  C_14
REMARK    5  A    between atoms: C_17  and  C_20
REMARK    6  A    between atoms: C_20  and  N_21
REMARK                            x       y       z     vdW  Elec       q    Type
REMARK                         _______ _______ _______ _____ _____    ______ ____
ROOT
ATOM      1  C   UNL     1       4.375  -5.531   6.828  0.00  0.00    +0.077 C 
ATOM      2  C   UNL     1       3.318  -6.453   7.438  0.00  0.00    +0.013 C 
ATOM      3  C   UNL     1       3.999  -7.488   8.335  0.00  0.00    +0.005 C 
ATOM      4  C   UNL     1       4.760  -6.773   9.453  0.00  0.00    +0.004 C 
ATOM      5  C   UNL     1       5.817  -5.851   8.843  0.00  0.00    +0.005 C 
ATOM      6  C   UNL     1       5.136  -4.816   7.946  0.00  0.00    +0.013 C 
ENDROOT
BRANCH   1   7
ATOM      7  C   UNL     1       3.704  -4.511   5.945  0.00  0.00    +0.241 C 
ATOM      8  O   UNL     1       3.822  -3.326   6.187  0.00  0.00    -0.273 OA
BRANCH   7  17
ATOM      9  C   UNL     1       0.644  -0.620   1.030  0.00  0.00    +0.121 A 
ATOM     10  C   UNL     1       1.214   0.132   2.050  0.00  0.00    +0.048 A 
ATOM     11  C   UNL     1       1.843  -0.474   3.113  0.00  0.00    +0.030 A 
ATOM     12  C   UNL     1       1.924  -1.871   3.194  0.00  0.00    +0.055 A 
ATOM     13  C   UNL     1       1.341  -2.607   2.153  0.00  0.00    +0.042 A 
ATOM     14  C   UNL     1       0.708  -2.005   1.091  0.00  0.00    +0.062 A 
ATOM     15  S   UNL     1       1.653  -4.288   2.623  0.00  0.00    -0.052 S 
ATOM     16  C   UNL     1       2.476  -4.007   4.061  0.00  0.00    +0.164 A 
ATOM     17  N   UNL     1       2.983  -4.908   4.901  0.00  0.00    -0.156 NA
ATOM     18  N   UNL     1       2.508  -2.656   4.173  0.00  0.00    -0.335 N 
ATOM     19  H   UNL     1       2.939  -2.241   4.937  0.00  0.00    +0.168 HD
BRANCH   9  21
ATOM     20  C   UNL     1       0.003   1.423  -0.005  0.00  0.00    +0.277 C 
ATOM     21  O   UNL     1       0.026  -0.005  -0.014  0.00  0.00    -0.495 OA
ENDBRANCH   9  21
ENDBRANCH   7  17
ENDBRANCH   1   7
BRANCH   4  22
ATOM     22  C   UNL     1       5.441  -7.809  10.350  0.00  0.00    +0.105 C 
BRANCH  22  23
ATOM     23  N   UNL     1       6.071  -7.130  11.491  0.00  0.00    -0.243 NA
ATOM     24  C   UNL     1       6.805  -8.094  12.342  0.00  0.00    +0.168 C 
ATOM     25  N   UNL     1       6.591  -7.587  13.723  0.00  0.00    -0.335 NA
ATOM     26  N   UNL     1       5.205  -7.096  13.678  0.00  0.00    +0.408 N 
ATOM     27  N   UNL     1       5.066  -6.502  12.346  0.00  0.00    -0.281 NA
ATOM     28  H   UNL     1       6.690  -8.328  14.401  0.00  0.00    +0.105 HD
ATOM     29  H   UNL     1       4.557  -7.862  13.791  0.00  0.00    -0.032 HD
ATOM     30  H   UNL     1       4.137  -6.648  11.980  0.00  0.00    +0.121 HD
ATOM     31  H   UNL     1       5.055  -6.399  14.392  0.00  0.00    -0.032 HD
ENDBRANCH  22  23
ENDBRANCH   4  22
TORSDOF 5
