REMARK  Name = ZINC07377621
REMARK  4 active torsions:
REMARK  status: ('A' for Active; 'I' for Inactive)
REMARK    1  A    between atoms: C_1  and  C_2
REMARK    2  A    between atoms: N_13  and  C_16
REMARK    3  A    between atoms: C_16  and  C_17
REMARK    4  A    between atoms: N_19  and  C_20
REMARK                            x       y       z     vdW  Elec       q    Type
REMARK                         _______ _______ _______ _____ _____    ______ ____
ROOT
ATOM      1  C   UNL     1      -2.777  -9.813   5.437  0.00  0.00    +0.008 C 
ATOM      2  C   UNL     1      -2.513  -8.752   4.366  0.00  0.00    -0.009 C 
ATOM      3  C   UNL     1      -3.366  -7.512   4.649  0.00  0.00    +0.008 C 
ATOM      4  C   UNL     1      -2.927  -6.362   3.742  0.00  0.00    +0.037 C 
ATOM      5  C   UNL     1      -2.932  -6.847   2.295  0.00  0.00    -0.023 A 
ATOM      6  C   UNL     1      -2.916  -8.167   2.011  0.00  0.00    -0.004 A 
ATOM      7  S   UNL     1      -2.931  -8.255   0.240  0.00  0.00    -0.073 S 
ATOM      8  C   UNL     1      -2.959  -6.516  -0.112  0.00  0.00    +0.116 A 
ATOM      9  C   UNL     1      -2.955  -5.925   1.161  0.00  0.00    +0.076 A 
ATOM     10  C   UNL     1      -2.974  -4.491   1.180  0.00  0.00    +0.263 A 
ATOM     11  O   UNL     1      -2.973  -3.885   2.238  0.00  0.00    -0.267 OA
ATOM     12  N   UNL     1      -2.994  -3.826   0.010  0.00  0.00    -0.290 N 
ATOM     13  C   UNL     1      -3.002  -4.485  -1.177  0.00  0.00    +0.203 A 
ATOM     14  N   UNL     1      -2.979  -5.790  -1.227  0.00  0.00    -0.230 NA
ATOM     15  C   UNL     1      -2.890  -9.305   2.985  0.00  0.00    +0.046 C 
ENDROOT
BRANCH  12  16
ATOM     16  C   UNL     1      -3.014  -2.361   0.018  0.00  0.00    +0.222 C 
BRANCH  16  17
ATOM     17  C   UNL     1      -1.601  -1.839   0.007  0.00  0.00    +0.233 C 
ATOM     18  O   UNL     1      -0.668  -2.615  -0.006  0.00  0.00    -0.274 OA
ATOM     19  N   UNL     1      -1.372  -0.511   0.012  0.00  0.00    -0.308 N 
ATOM     20  H   UNL     1      -2.118   0.109   0.023  0.00  0.00    +0.149 HD
BRANCH  19  21
ATOM     21  C   UNL     1       0.002  -0.004   0.002  0.00  0.00    +0.035 C 
ATOM     22  C   UNL     1      -0.019   1.526   0.010  0.00  0.00    +0.029 C 
ATOM     23  C   UNL     1       1.417   2.055  -0.000  0.00  0.00    -0.008 C 
ATOM     24  C   UNL     1       2.133   1.562  -1.259  0.00  0.00    +0.007 C 
ATOM     25  C   UNL     1       2.154   0.032  -1.268  0.00  0.00    -0.008 C 
ATOM     26  C   UNL     1       0.718  -0.497  -1.257  0.00  0.00    +0.029 C 
ATOM     27  C   UNL     1       2.894  -0.475  -0.028  0.00  0.00    +0.007 C 
ATOM     28  C   UNL     1       2.178   0.019   1.231  0.00  0.00    -0.008 C 
ATOM     29  C   UNL     1       2.157   1.548   1.239  0.00  0.00    +0.007 C 
ATOM     30  C   UNL     1       0.742  -0.511   1.242  0.00  0.00    +0.029 C 
ENDBRANCH  19  21
ENDBRANCH  16  17
ENDBRANCH  12  16
TORSDOF 3
