REMARK  Name = ZINC39148706
REMARK  14 active torsions:
REMARK  status: ('A' for Active; 'I' for Inactive)
REMARK    1  A    between atoms: C_1  and  C_2
REMARK    2  A    between atoms: C_4  and  C_9
REMARK    3  A    between atoms: C_5  and  C_8
REMARK    4  A    between atoms: C_9  and  C_11
REMARK    5  A    between atoms: N_15  and  C_28
REMARK    6  A    between atoms: C_16  and  C_18
REMARK    7  A    between atoms: C_21  and  C_24
REMARK    8  A    between atoms: C_24  and  O_26
REMARK    9  A    between atoms: O_26  and  C_27
REMARK   10  A    between atoms: C_28  and  C_29
REMARK   11  A    between atoms: C_29  and  C_30
REMARK   12  A    between atoms: C_30  and  N_31
REMARK   13  A    between atoms: N_31  and  C_32
REMARK   14  A    between atoms: N_31  and  C_33
REMARK                            x       y       z     vdW  Elec       q    Type
REMARK                         _______ _______ _______ _____ _____    ______ ____
ROOT
ATOM      1  C   UNL     1      -2.387   0.243  -1.986  0.00  0.00    +0.076 C 
ATOM      2  C   UNL     1      -3.307   0.611  -2.909  0.00  0.00    +0.249 C 
ATOM      3  C   UNL     1      -2.623   1.278  -4.037  0.00  0.00    +0.288 C 
ATOM      4  O   UNL     1      -3.176   1.722  -5.023  0.00  0.00    -0.266 OA
ATOM      5  N   UNL     1      -1.297   1.319  -3.810  0.00  0.00    -0.284 N 
ATOM      6  C   UNL     1      -1.041   0.684  -2.512  0.00  0.00    +0.145 C 
ATOM      7  O   UNL     1      -4.640   0.401  -2.814  0.00  0.00    -0.282 OA
ENDROOT
BRANCH   6   8
ATOM      8  C   UNL     1      -0.139  -0.510  -2.692  0.00  0.00    -0.022 A 
ATOM      9  C   UNL     1      -0.347  -1.377  -3.750  0.00  0.00    +0.006 A 
ATOM     10  C   UNL     1       0.475  -2.472  -3.920  0.00  0.00    +0.015 A 
ATOM     11  C   UNL     1       1.519  -2.703  -3.022  0.00  0.00    +0.059 A 
ATOM     12  C   UNL     1       1.723  -1.824  -1.957  0.00  0.00    +0.015 A 
ATOM     13  C   UNL     1       0.897  -0.730  -1.802  0.00  0.00    +0.006 A 
BRANCH  11  14
ATOM     14  C   UNL     1       2.403  -3.874  -3.198  0.00  0.00    +0.339 C 
ATOM     15  O   UNL     1       2.223  -4.637  -4.126  0.00  0.00    -0.245 OA
BRANCH  14  16
ATOM     16  O   UNL     1       3.409  -4.094  -2.330  0.00  0.00    -0.464 OA
ATOM     17  C   UNL     1       4.225  -5.245  -2.561  0.00  0.00    +0.280 C 
ENDBRANCH  14  16
ENDBRANCH  11  14
ENDBRANCH   6   8
BRANCH   1  18
ATOM     18  C   UNL     1      -2.648  -0.445  -0.717  0.00  0.00    +0.195 C 
ATOM     19  O   UNL     1      -3.084  -1.582  -0.719  0.00  0.00    -0.287 OA
BRANCH  18  22
ATOM     20  C   UNL     1      -3.009   2.646   0.247  0.00  0.00    +0.040 C 
ATOM     21  C   UNL     1      -1.951   1.677   0.778  0.00  0.00    +0.160 C 
ATOM     22  C   UNL     1      -2.382   0.237   0.557  0.00  0.00    +0.048 C 
ATOM     23  C   UNL     1      -2.465  -0.269   1.810  0.00  0.00    +0.069 C 
ATOM     24  N   UNL     1      -2.142   0.674   2.721  0.00  0.00    -0.158 NA
ATOM     25  N   UNL     1      -1.844   1.775   2.243  0.00  0.00    -0.179 NA
ATOM     26  C   UNL     1      -2.861  -1.685   2.141  0.00  0.00    +0.068 C 
ENDBRANCH  18  22
ENDBRANCH   1  18
BRANCH   5  27
ATOM     27  C   UNL     1      -0.289   1.901  -4.699  0.00  0.00    +0.107 C 
BRANCH  27  28
ATOM     28  C   UNL     1      -0.090   3.377  -4.348  0.00  0.00    +0.000 C 
BRANCH  28  29
ATOM     29  C   UNL     1       0.963   3.985  -5.277  0.00  0.00    -0.078 C 
BRANCH  29  30
ATOM     30  N   UNL     1       1.154   5.402  -4.939  0.00  0.00    +0.376 N 
ATOM     31  C   UNL     1       1.718   5.512  -3.587  0.00  0.00    -0.097 C 
ATOM     32  C   UNL     1       2.075   6.015  -5.906  0.00  0.00    -0.097 C 
ATOM     33  H   UNL     1       0.265   5.878  -4.973  0.00  0.00    -0.083 HD
ENDBRANCH  29  30
ENDBRANCH  28  29
ENDBRANCH  27  28
ENDBRANCH   5  27
TORSDOF 9
