REMARK  Name = ZINC09970431
REMARK  11 active torsions:
REMARK  status: ('A' for Active; 'I' for Inactive)
REMARK    1  A    between atoms: C_1  and  C_2
REMARK    2  A    between atoms: C_2  and  C_17
REMARK    3  A    between atoms: C_3  and  C_15
REMARK    4  A    between atoms: C_3  and  O_16
REMARK    5  A    between atoms: C_4  and  C_13
REMARK    6  A    between atoms: C_4  and  O_14
REMARK    7  A    between atoms: C_5  and  C_11
REMARK    8  A    between atoms: C_5  and  O_12
REMARK    9  A    between atoms: C_6  and  C_8
REMARK   10  A    between atoms: C_6  and  O_9
REMARK   11  A    between atoms: O_9  and  C_10
REMARK                            x       y       z     vdW  Elec       q    Type
REMARK                         _______ _______ _______ _____ _____    ______ ____
ROOT
ATOM      1  C   UNL     1      -0.013   1.086   0.008  0.00  0.00    +0.044 C 
ATOM      2  C   UNL     1      -0.730   1.580   1.268  0.00  0.00    +0.098 C 
ATOM      3  C   UNL     1      -0.904   3.091   1.228  0.00  0.00    +0.123 C 
ATOM      4  C   UNL     1       0.291   3.879   1.741  0.00  0.00    +0.127 C 
ATOM      5  C   UNL     1       0.910   3.267   2.991  0.00  0.00    +0.147 C 
ATOM      6  C   UNL     1       1.130   1.764   2.839  0.00  0.00    +0.199 C 
ATOM      7  O   UNL     1      -0.070   1.128   2.435  0.00  0.00    -0.337 OA
ATOM      8  C   UNL     1       1.540   1.198   4.213  0.00  0.00    +0.077 C 
ATOM      9  C   UNL     1       2.260   3.943   3.269  0.00  0.00    +0.050 C 
ATOM     10  C   UNL     1       1.347   4.051   0.645  0.00  0.00    +0.047 C 
ATOM     11  C   UNL     1      -1.187   3.514  -0.225  0.00  0.00    +0.047 C 
ATOM     12  C   UNL     1      -2.143   0.949   1.260  0.00  0.00    +0.044 C 
ENDROOT
BRANCH   6  13
ATOM     13  O   UNL     1       2.193   1.502   1.924  0.00  0.00    -0.350 OA
ATOM     14  C   UNL     1       2.434   0.112   1.696  0.00  0.00    +0.197 C 
ENDBRANCH   6  13
BRANCH   5  15
ATOM     15  O   UNL     1       0.047   3.502   4.112  0.00  0.00    -0.381 OA
ATOM     16  H   UNL     1       0.395   3.174   4.952  0.00  0.00    +0.211 HD
ENDBRANCH   5  15
BRANCH   4  17
ATOM     17  O   UNL     1      -0.175   5.203   2.090  0.00  0.00    -0.383 OA
ATOM     18  H   UNL     1       0.522   5.795   2.405  0.00  0.00    +0.210 HD
ENDBRANCH   4  17
BRANCH   3  19
ATOM     19  O   UNL     1      -2.058   3.440   2.013  0.00  0.00    -0.383 OA
ATOM     20  H   UNL     1      -2.882   3.041   1.701  0.00  0.00    +0.210 HD
ENDBRANCH   3  19
TORSDOF 4
