REMARK  Name = ZINC08628148
REMARK  4 active torsions:
REMARK  status: ('A' for Active; 'I' for Inactive)
REMARK    1  A    between atoms: C_1  and  C_2
REMARK    2  A    between atoms: C_2  and  C_3
REMARK    3  A    between atoms: N_24  and  C_27
REMARK    4  A    between atoms: C_27  and  C_28
REMARK                            x       y       z     vdW  Elec       q    Type
REMARK                         _______ _______ _______ _____ _____    ______ ____
ROOT
ATOM      1  C   UNL     1      -1.885   7.380  -2.663  0.00  0.00    -0.026 A 
ATOM      2  C   UNL     1      -1.515   7.209  -3.981  0.00  0.00    +0.005 A 
ATOM      3  C   UNL     1      -1.200   5.952  -4.461  0.00  0.00    +0.001 A 
ATOM      4  C   UNL     1      -1.257   4.858  -3.615  0.00  0.00    +0.004 A 
ATOM      5  C   UNL     1      -1.626   5.025  -2.299  0.00  0.00    -0.027 A 
ATOM      6  C   UNL     1      -1.946   6.285  -1.805  0.00  0.00    +0.039 A 
ATOM      7  N   UNL     1      -2.288   6.201  -0.454  0.00  0.00    -0.286 N 
ATOM      8  C   UNL     1      -2.226   4.938   0.007  0.00  0.00    +0.212 C 
ATOM      9  O   UNL     1      -2.477   4.567   1.135  0.00  0.00    -0.277 OA
ATOM     10  C   UNL     1      -1.785   4.072  -1.144  0.00  0.00    +0.053 C 
ATOM     11  C   UNL     1      -0.605   3.243  -0.873  0.00  0.00    +0.088 C 
ATOM     12  C   UNL     1      -1.225   2.099   0.018  0.00  0.00    +0.073 C 
ATOM     13  C   UNL     1      -2.414   1.752  -0.884  0.00  0.00    -0.054 C 
ATOM     14  C   UNL     1      -4.128   3.435  -0.866  0.00  0.00    -0.076 C 
ATOM     15  C   UNL     1      -4.795   2.080  -0.514  0.00  0.00    -0.020 C 
ATOM     16  C   UNL     1      -3.582   1.256  -0.009  0.00  0.00    -0.016 C 
ATOM     17  C   UNL     1      -0.014   1.208   0.009  0.00  0.00    +0.224 C 
ATOM     18  O   UNL     1       0.002  -0.004   0.002  0.00  0.00    -0.275 OA
ATOM     19  N   UNL     1       1.064   2.047   0.003  0.00  0.00    -0.237 N 
ATOM     20  C   UNL     1       0.732   3.335  -0.339  0.00  0.00    +0.225 C 
ATOM     21  O   UNL     1       1.413   4.331  -0.218  0.00  0.00    -0.275 OA
ATOM     22  H   UNL     1      -2.541   6.964   0.089  0.00  0.00    +0.155 HD
ATOM     23  N   UNL     1      -2.824   3.044  -1.457  0.00  0.00    +0.395 N 
ATOM     24  H   UNL     1      -2.921   2.956  -2.476  0.00  0.00    -0.079 HD
ENDROOT
BRANCH   1  26
ATOM     25  C   UNL     1      -0.989   9.380  -1.503  0.00  0.00    +0.009 C 
ATOM     26  C   UNL     1      -2.226   8.756  -2.151  0.00  0.00    +0.033 C 
ENDBRANCH   1  26
BRANCH  19  27
ATOM     27  C   UNL     1       2.427   1.619   0.326  0.00  0.00    +0.151 C 
BRANCH  27  28
ATOM     28  C   UNL     1       3.123   1.168  -0.933  0.00  0.00    -0.030 A 
ATOM     29  C   UNL     1       3.054  -0.156  -1.325  0.00  0.00    +0.005 A 
ATOM     30  C   UNL     1       3.688  -0.568  -2.481  0.00  0.00    +0.000 A 
ATOM     31  C   UNL     1       4.401   0.341  -3.241  0.00  0.00    +0.000 A 
ATOM     32  C   UNL     1       4.475   1.664  -2.846  0.00  0.00    +0.000 A 
ATOM     33  C   UNL     1       3.836   2.077  -1.692  0.00  0.00    +0.005 A 
ENDBRANCH  27  28
ENDBRANCH  19  27
TORSDOF 3
