REMARK  Name = ZINC01432054
REMARK  4 active torsions:
REMARK  status: ('A' for Active; 'I' for Inactive)
REMARK    1  A    between atoms: C_10  and  C_15
REMARK    2  A    between atoms: C_18  and  O_21
REMARK    3  A    between atoms: O_21  and  C_22
REMARK    4  A    between atoms: C_22  and  C_23
REMARK                            x       y       z     vdW  Elec       q    Type
REMARK                         _______ _______ _______ _____ _____    ______ ____
ROOT
ATOM      1  C   UNL     1       0.002  -0.004   0.002  0.00  0.00    +0.002 A 
ATOM      2  C   UNL     1       1.207  -0.690  -0.014  0.00  0.00    +0.002 A 
ATOM      3  C   UNL     1       2.403  -0.004  -0.022  0.00  0.00    +0.028 A 
ATOM      4  C   UNL     1       2.406   1.384  -0.014  0.00  0.00    +0.072 A 
ATOM      5  C   UNL     1       1.185   2.084   0.002  0.00  0.00    +0.091 A 
ATOM      6  C   UNL     1      -0.017   1.372   0.010  0.00  0.00    +0.030 A 
ATOM      7  N   UNL     1       1.481   3.413   0.007  0.00  0.00    -0.214 NA
ATOM      8  C   UNL     1       2.770   3.571  -0.007  0.00  0.00    +0.205 A 
ATOM      9  N   UNL     1       3.391   2.344  -0.018  0.00  0.00    -0.287 N 
ATOM     10  C   UNL     1       4.845   2.190  -0.026  0.00  0.00    +0.217 C 
ATOM     11  C   UNL     1       4.867   4.614  -0.293  0.00  0.00    +0.159 C 
ATOM     12  N   UNL     1       3.519   4.741  -0.017  0.00  0.00    -0.259 N 
ATOM     13  N   UNL     1       5.592   5.751  -0.564  0.00  0.00    -0.332 N 
ATOM     14  H   UNL     1       3.115   5.605   0.162  0.00  0.00    +0.158 HD
ATOM     15  H   UNL     1       6.539   5.687  -0.761  0.00  0.00    +0.145 HD
ATOM     16  H   UNL     1       5.155   6.617  -0.558  0.00  0.00    +0.145 HD
ATOM     17  N   UNL     1       5.578   3.479  -0.331  0.00  0.00    -0.337 N 
ATOM     18  H   UNL     1       6.579   3.483  -0.559  0.00  0.00    +0.164 HD
ENDROOT
BRANCH  10  19
ATOM     19  C   UNL     1       5.304   1.691   1.320  0.00  0.00    -0.004 A 
ATOM     20  C   UNL     1       5.442   2.575   2.373  0.00  0.00    +0.011 A 
ATOM     21  C   UNL     1       5.857   2.119   3.610  0.00  0.00    +0.046 A 
ATOM     22  C   UNL     1       6.146   0.774   3.790  0.00  0.00    +0.121 A 
ATOM     23  C   UNL     1       6.012  -0.110   2.730  0.00  0.00    +0.046 A 
ATOM     24  C   UNL     1       5.591   0.350   1.497  0.00  0.00    +0.011 A 
BRANCH  22  25
ATOM     25  O   UNL     1       6.561   0.324   5.003  0.00  0.00    -0.481 OA
BRANCH  25  26
ATOM     26  C   UNL     1       6.677   1.291   6.049  0.00  0.00    +0.353 C 
BRANCH  26  27
ATOM     27  C   UNL     1       7.145   0.613   7.311  0.00  0.00    +0.393 C 
ATOM     28  O   UNL     1       7.358  -0.577   7.314  0.00  0.00    -0.243 OA
ATOM     29  O   UNL     1       7.326   1.330   8.431  0.00  0.00    -0.243 OA
ENDBRANCH  26  27
ENDBRANCH  25  26
ENDBRANCH  22  25
ENDBRANCH  10  19
TORSDOF 4
