REMARK  Name = ZINC39607176
REMARK  9 active torsions:
REMARK  status: ('A' for Active; 'I' for Inactive)
REMARK    1  A    between atoms: C_1  and  C_2
REMARK    2  A    between atoms: C_5  and  C_9
REMARK    3  A    between atoms: C_6  and  C_8
REMARK    4  A    between atoms: C_9  and  N_10
REMARK    5  A    between atoms: C_11  and  C_13
REMARK    6  A    between atoms: C_24  and  C_26
REMARK    7  A    between atoms: C_27  and  C_37
REMARK    8  A    between atoms: C_30  and  C_31
REMARK    9  A    between atoms: C_33  and  C_36
REMARK                            x       y       z     vdW  Elec       q    Type
REMARK                         _______ _______ _______ _____ _____    ______ ____
ROOT
ATOM      1  C   UNL     1      -2.909  -6.633   0.512  0.00  0.00    +0.100 C 
ATOM      2  C   UNL     1      -3.350  -6.313   1.958  0.00  0.00    +0.121 C 
ATOM      3  N   UNL     1      -4.125  -7.502   2.384  0.00  0.00    -0.296 N 
ATOM      4  C   UNL     1      -3.380  -8.651   1.815  0.00  0.00    +0.115 C 
ATOM      5  C   UNL     1      -2.930  -8.168   0.422  0.00  0.00    -0.004 C 
ATOM      6  C   UNL     1      -3.925  -8.622  -0.641  0.00  0.00    -0.010 C 
ATOM      7  C   UNL     1      -3.886 -10.149  -0.750  0.00  0.00    -0.082 C 
ATOM      8  N   UNL     1      -2.529 -10.581  -1.105  0.00  0.00    +0.379 N 
ATOM      9  C   UNL     1      -1.592 -10.222  -0.033  0.00  0.00    -0.082 C 
ATOM     10  C   UNL     1      -1.535  -8.698   0.107  0.00  0.00    -0.010 C 
ATOM     11  C   UNL     1      -5.253  -7.532   3.122  0.00  0.00    +0.252 C 
ATOM     12  O   UNL     1      -5.774  -8.597   3.392  0.00  0.00    -0.270 OA
ATOM     13  H   UNL     1      -2.519 -11.582  -1.236  0.00  0.00    -0.086 HD
ATOM     14  H   UNL     1      -2.246 -10.130  -1.962  0.00  0.00    -0.086 HD
ENDROOT
BRANCH  11  15
ATOM     15  C   UNL     1      -5.852  -6.276   3.602  0.00  0.00    +0.108 A 
ATOM     16  C   UNL     1      -6.824  -5.497   2.927  0.00  0.00    +0.093 A 
ATOM     17  N   UNL     1      -7.103  -4.466   3.667  0.00  0.00    -0.082 NA
ATOM     18  O   UNL     1      -6.329  -4.528   4.849  0.00  0.00    -0.352 OA
ATOM     19  C   UNL     1      -5.575  -5.638   4.803  0.00  0.00    +0.201 A 
ATOM     20  C   UNL     1      -7.430  -5.810   1.583  0.00  0.00    +0.070 C 
BRANCH  19  21
ATOM     21  C   UNL     1      -4.623  -6.094   5.838  0.00  0.00    +0.152 A 
ATOM     22  C   UNL     1      -4.347  -5.442   7.066  0.00  0.00    +0.079 A 
ATOM     23  C   UNL     1      -3.429  -6.169   7.726  0.00  0.00    +0.135 A 
ATOM     24  O   UNL     1      -3.119  -7.237   6.976  0.00  0.00    -0.359 OA
ATOM     25  N   UNL     1      -3.885  -7.179   5.787  0.00  0.00    -0.075 NA
ATOM     26  C   UNL     1      -2.847  -5.839   9.077  0.00  0.00    +0.089 C 
ENDBRANCH  19  21
ENDBRANCH  11  15
BRANCH   1  28
ATOM     27  N   UNL     1      -1.149  -5.750  -0.985  0.00  0.00    -0.311 N 
ATOM     28  C   UNL     1      -1.518  -6.111   0.260  0.00  0.00    +0.218 C 
ATOM     29  O   UNL     1      -0.731  -6.015   1.178  0.00  0.00    -0.275 OA
ATOM     30  H   UNL     1      -1.778  -5.827  -1.719  0.00  0.00    +0.149 HD
BRANCH  27  31
ATOM     31  C   UNL     1       0.204  -5.243  -1.230  0.00  0.00    +0.139 C 
BRANCH  31  36
ATOM     32  C   UNL     1       0.801  -3.985  -6.838  0.00  0.00    +0.044 C 
ATOM     33  C   UNL     1       0.645  -4.313  -5.375  0.00  0.00    -0.050 A 
ATOM     34  C   UNL     1       1.145  -5.502  -4.877  0.00  0.00    +0.004 A 
ATOM     35  C   UNL     1       1.003  -5.803  -3.535  0.00  0.00    +0.006 A 
ATOM     36  C   UNL     1       0.360  -4.915  -2.692  0.00  0.00    -0.027 A 
ATOM     37  C   UNL     1      -0.139  -3.726  -3.191  0.00  0.00    -0.046 A 
ATOM     38  C   UNL     1       0.008  -3.423  -4.532  0.00  0.00    +0.007 A 
ATOM     39  C   UNL     1      -0.839  -2.759  -2.272  0.00  0.00    +0.044 C 
ENDBRANCH  31  36
ENDBRANCH  27  31
ENDBRANCH   1  28
TORSDOF 5
