REMARK  Name = ZINC36148869
REMARK  4 active torsions:
REMARK  status: ('A' for Active; 'I' for Inactive)
REMARK    1  A    between atoms: C_1  and  C_2
REMARK    2  A    between atoms: N_14  and  C_16
REMARK    3  A    between atoms: C_16  and  C_17
REMARK    4  A    between atoms: C_17  and  C_18
REMARK                            x       y       z     vdW  Elec       q    Type
REMARK                         _______ _______ _______ _____ _____    ______ ____
ROOT
ATOM      1  C   UNL     1      -0.018   1.503   0.010  0.00  0.00    +0.047 C 
ATOM      2  C   UNL     1       0.002  -0.004   0.002  0.00  0.00    -0.007 A 
ATOM      3  C   UNL     1       0.006  -0.685  -1.198  0.00  0.00    +0.027 A 
ATOM      4  C   UNL     1       0.025  -2.069  -1.207  0.00  0.00    +0.042 A 
ATOM      5  C   UNL     1       0.035  -2.767  -0.013  0.00  0.00    +0.027 A 
ATOM      6  C   UNL     1       0.030  -2.088   1.194  0.00  0.00    -0.004 A 
ATOM      7  C   UNL     1       0.023  -0.704   1.204  0.00  0.00    +0.127 A 
ATOM      8  O   UNL     1       0.040   0.004   2.365  0.00  0.00    -0.487 OA
ATOM      9  C   UNL     1      -0.277  -0.683   3.568  0.00  0.00    +0.095 C 
ATOM     10  C   UNL     1       0.498  -1.998   3.634  0.00  0.00    +0.051 C 
ATOM     11  C   UNL     1       0.033  -2.887   2.472  0.00  0.00    +0.042 C 
ATOM     12  C   UNL     1      -1.791  -0.959   3.645  0.00  0.00    +0.027 C 
ATOM     13  C   UNL     1      -2.108  -0.720   5.144  0.00  0.00    -0.075 C 
ATOM     14  N   UNL     1      -1.229   0.422   5.502  0.00  0.00    +0.383 N 
ATOM     15  C   UNL     1       0.048   0.188   4.790  0.00  0.00    -0.030 C 
ATOM     16 CL   UNL     1       0.034  -2.928  -2.715  0.00  0.00    -0.084 Cl
ATOM     17  H   UNL     1      -1.643   1.290   5.197  0.00  0.00    -0.082 HD
ENDROOT
BRANCH  14  18
ATOM     18  C   UNL     1      -1.001   0.451   6.953  0.00  0.00    -0.067 C 
BRANCH  18  19
ATOM     19  C   UNL     1      -2.317   0.763   7.670  0.00  0.00    +0.106 C 
BRANCH  19  20
ATOM     20  C   UNL     1      -2.083   0.793   9.158  0.00  0.00    +0.354 C 
ATOM     21  O   UNL     1      -0.968   0.584   9.605  0.00  0.00    -0.246 OA
ATOM     22  O   UNL     1      -3.010   1.026   9.916  0.00  0.00    -0.246 OA
ENDBRANCH  19  20
ENDBRANCH  18  19
ENDBRANCH  14  18
TORSDOF 3
