REMARK  Name = ZINC34727035
REMARK  3 active torsions:
REMARK  status: ('A' for Active; 'I' for Inactive)
REMARK    1  A    between atoms: C_3  and  N_24
REMARK    2  A    between atoms: C_6  and  C_7
REMARK    3  A    between atoms: C_7  and  N_8
REMARK                            x       y       z     vdW  Elec       q    Type
REMARK                         _______ _______ _______ _____ _____    ______ ____
ROOT
ATOM      1  N   UNL     1      -1.725  -1.018  -1.368  0.00  0.00    -0.256 N 
ATOM      2  C   UNL     1      -2.515  -0.114  -1.975  0.00  0.00    +0.265 A 
ATOM      3  O   UNL     1      -2.865   0.892  -1.386  0.00  0.00    -0.267 OA
ATOM      4  C   UNL     1      -2.954  -0.357  -3.367  0.00  0.00    +0.074 A 
ATOM      5  C   UNL     1      -3.805   0.478  -4.214  0.00  0.00    -0.023 A 
ATOM      6  C   UNL     1      -4.030  -0.013  -5.448  0.00  0.00    -0.004 A 
ATOM      7  S   UNL     1      -3.140  -1.541  -5.494  0.00  0.00    -0.075 S 
ATOM      8  C   UNL     1      -2.497  -1.537  -3.951  0.00  0.00    +0.094 A 
ATOM      9  N   UNL     1      -1.693  -2.405  -3.259  0.00  0.00    -0.301 N 
ATOM     10  H   UNL     1      -1.387  -3.221  -3.686  0.00  0.00    +0.171 HD
ATOM     11  C   UNL     1      -1.318  -2.134  -1.995  0.00  0.00    +0.330 A 
ATOM     12  O   UNL     1      -0.600  -2.918  -1.405  0.00  0.00    -0.246 OA
ATOM     13  C   UNL     1      -4.857   0.612  -6.530  0.00  0.00    +0.043 C 
ATOM     14  C   UNL     1      -5.721   1.714  -5.898  0.00  0.00    +0.005 C 
ATOM     15  C   UNL     1      -4.835   2.590  -5.008  0.00  0.00    +0.005 C 
ATOM     16  C   UNL     1      -4.405   1.803  -3.767  0.00  0.00    +0.037 C 
ENDROOT
BRANCH   1  17
ATOM     17  C   UNL     1      -1.293  -0.775   0.010  0.00  0.00    +0.165 C 
BRANCH  17  23
ATOM     18  C   UNL     1      -0.017   1.378   0.010  0.00  0.00    +0.007 A 
ATOM     19  C   UNL     1       1.171   2.086   0.002  0.00  0.00    +0.033 A 
ATOM     20  C   UNL     1       2.377   1.411  -0.013  0.00  0.00    +0.126 A 
ATOM     21  C   UNL     1       2.396   0.029  -0.020  0.00  0.00    +0.033 A 
ATOM     22  C   UNL     1       1.208  -0.679  -0.012  0.00  0.00    +0.007 A 
ATOM     23  C   UNL     1       0.002  -0.004   0.002  0.00  0.00    -0.027 A 
BRANCH  20  24
ATOM     24  N   UNL     1       3.649   2.168  -0.022  0.00  0.00    +0.056 N 
ATOM     25  O   UNL     1       3.633   3.377  -0.016  0.00  0.00    -0.126 OA
ATOM     26  O   UNL     1       4.704   1.578  -0.035  0.00  0.00    -0.126 OA
ENDBRANCH  20  24
ENDBRANCH  17  23
ENDBRANCH   1  17
TORSDOF 3
