REMARK  Name = ZINC05437349
REMARK  5 active torsions:
REMARK  status: ('A' for Active; 'I' for Inactive)
REMARK    1  A    between atoms: C_1  and  C_2
REMARK    2  A    between atoms: N_17  and  C_20
REMARK    3  A    between atoms: C_20  and  O_21
REMARK    4  A    between atoms: C_22  and  C_26
REMARK    5  A    between atoms: C_23  and  N_25
REMARK                            x       y       z     vdW  Elec       q    Type
REMARK                         _______ _______ _______ _____ _____    ______ ____
ROOT
ATOM      1  C   UNL     1      -0.143   5.746   0.707  0.00  0.00    +0.008 C 
ATOM      2  C   UNL     1      -0.110   4.216   0.748  0.00  0.00    +0.001 C 
ATOM      3  C   UNL     1       1.123   3.709  -0.003  0.00  0.00    +0.078 C 
ATOM      4  C   UNL     1       1.135   2.198   0.003  0.00  0.00    +0.116 C 
ATOM      5  C   UNL     1      -0.018   1.502   0.010  0.00  0.00    +0.058 C 
ATOM      6  C   UNL     1      -1.266   2.154   0.032  0.00  0.00    +0.164 C 
ATOM      7  O   UNL     1      -2.284   1.493   0.022  0.00  0.00    -0.292 OA
ATOM      8  C   UNL     1      -1.361   3.655   0.062  0.00  0.00    +0.083 C 
ATOM      9  C   UNL     1       0.002  -0.004   0.002  0.00  0.00    +0.144 C 
ATOM     10  C   UNL     1      -0.368  -0.534  -1.348  0.00  0.00    -0.001 A 
ATOM     11  C   UNL     1       0.230  -0.387  -2.582  0.00  0.00    +0.007 A 
ATOM     12  C   UNL     1      -0.380  -1.023  -3.658  0.00  0.00    +0.000 A 
ATOM     13  C   UNL     1      -1.532  -1.765  -3.494  0.00  0.00    +0.002 A 
ATOM     14  C   UNL     1      -2.139  -1.917  -2.258  0.00  0.00    +0.024 A 
ATOM     15  C   UNL     1      -1.536  -1.284  -1.169  0.00  0.00    +0.043 A 
ATOM     16  N   UNL     1      -1.921  -1.265   0.160  0.00  0.00    -0.246 N 
ATOM     17  C   UNL     1      -1.077  -0.537   0.921  0.00  0.00    +0.242 C 
ATOM     18  O   UNL     1      -1.166  -0.346   2.115  0.00  0.00    -0.273 OA
ATOM     19  C   UNL     1       1.345  -0.518   0.432  0.00  0.00    +0.110 C 
ATOM     20  C   UNL     1       2.426   0.302   0.407  0.00  0.00    +0.199 C 
ATOM     21  O   UNL     1       2.328   1.575  -0.005  0.00  0.00    -0.445 OA
ENDROOT
BRANCH  20  22
ATOM     22  N   UNL     1       3.646  -0.182   0.812  0.00  0.00    -0.328 N 
ATOM     23  H   UNL     1       3.728  -1.100   1.112  0.00  0.00    +0.145 HD
ATOM     24  H   UNL     1       4.425   0.396   0.798  0.00  0.00    +0.145 HD
ENDBRANCH  20  22
BRANCH  19  25
ATOM     25  C   UNL     1       1.486  -1.874   0.869  0.00  0.00    +0.102 C 
ATOM     26  N   UNL     1       1.597  -2.950   1.216  0.00  0.00    -0.191 NA
ENDBRANCH  19  25
BRANCH  16  27
ATOM     27  C   UNL     1      -3.105  -1.954   0.679  0.00  0.00    +0.272 C 
BRANCH  27  28
ATOM     28  O   UNL     1      -4.134  -0.999   0.946  0.00  0.00    -0.377 OA
ATOM     29  H   UNL     1      -4.949  -1.385   1.293  0.00  0.00    +0.211 HD
ENDBRANCH  27  28
ENDBRANCH  16  27
TORSDOF 4
