REMARK  Name = ZINC54614727
REMARK  16 active torsions:
REMARK  status: ('A' for Active; 'I' for Inactive)
REMARK    1  A    between atoms: C_1  and  C_2
REMARK    2  A    between atoms: C_2  and  N_3
REMARK    3  A    between atoms: N_3  and  C_4
REMARK    4  A    between atoms: C_4  and  C_5
REMARK    5  A    between atoms: C_6  and  C_8
REMARK    6  A    between atoms: C_8  and  O_9
REMARK    7  A    between atoms: O_9  and  C_10
REMARK    8  A    between atoms: C_13  and  C_19
REMARK    9  A    between atoms: C_15  and  O_16
REMARK   10  A    between atoms: O_16  and  C_17
REMARK   11  A    between atoms: C_17  and  C_18
REMARK   12  A    between atoms: C_21  and  C_30
REMARK   13  A    between atoms: C_22  and  C_29
REMARK   14  A    between atoms: N_32  and  C_33
REMARK   15  A    between atoms: C_37  and  C_40
REMARK   16  A    between atoms: C_38  and  C_39
REMARK                            x       y       z     vdW  Elec       q    Type
REMARK                         _______ _______ _______ _____ _____    ______ ____
ROOT
ATOM      1  C   UNL     1      -0.281  -0.112   8.093  0.00  0.00    +0.179 C 
ATOM      2  C   UNL     1       0.043   1.255   8.633  0.00  0.00    +0.060 C 
ATOM      3  C   UNL     1       1.280   1.625   8.998  0.00  0.00    +0.018 C 
ATOM      4  N   UNL     1       2.354   0.773   8.917  0.00  0.00    -0.286 N 
ATOM      5  C   UNL     1       2.088  -0.569   8.689  0.00  0.00    +0.240 A 
ATOM      6  N   UNL     1       0.857  -1.000   8.306  0.00  0.00    -0.201 N 
ATOM      7  N   UNL     1       0.965  -2.384   8.183  0.00  0.00    -0.042 NA
ATOM      8  N   UNL     1       2.189  -2.684   8.478  0.00  0.00    -0.021 NA
ATOM      9  N   UNL     1       2.854  -1.619   8.774  0.00  0.00    -0.092 NA
ATOM     10  C   UNL     1       1.498   3.024   9.515  0.00  0.00    +0.061 C 
ATOM     11  H   UNL     1       3.264   1.097   9.014  0.00  0.00    +0.155 HD
ENDROOT
BRANCH   1  15
ATOM     12  C   UNL     1      -1.098   0.170   3.904  0.00  0.00    +0.163 A 
ATOM     13  C   UNL     1       0.121   0.597   4.406  0.00  0.00    +0.050 A 
ATOM     14  C   UNL     1       0.382   0.504   5.760  0.00  0.00    +0.010 A 
ATOM     15  C   UNL     1      -0.571  -0.014   6.617  0.00  0.00    -0.015 A 
ATOM     16  C   UNL     1      -1.789  -0.442   6.124  0.00  0.00    +0.055 A 
ATOM     17  C   UNL     1      -2.059  -0.347   4.768  0.00  0.00    +0.162 A 
BRANCH  12  18
ATOM     18  O   UNL     1      -1.357   0.260   2.572  0.00  0.00    -0.479 OA
BRANCH  18  19
ATOM     19  C   UNL     1      -0.323   0.800   1.746  0.00  0.00    +0.324 C 
BRANCH  19  21
ATOM     20  N   UNL     1       0.028   1.294  -0.652  0.00  0.00    -0.299 N 
ATOM     21  C   UNL     1      -0.787   0.822   0.312  0.00  0.00    +0.253 C 
ATOM     22  O   UNL     1      -1.893   0.416   0.026  0.00  0.00    -0.272 OA
BRANCH  20  24
ATOM     23  C   UNL     1       1.292   3.281   0.008  0.00  0.00    +0.024 C 
ATOM     24  C   UNL     1       1.364   1.785  -0.306  0.00  0.00    +0.104 C 
ENDBRANCH  20  24
BRANCH  20  25
ATOM     25  C   UNL     1      -0.423   1.316  -2.046  0.00  0.00    +0.104 C 
ATOM     26  C   UNL     1      -0.043  -0.001  -2.725  0.00  0.00    +0.024 C 
ENDBRANCH  20  25
ENDBRANCH  19  21
ENDBRANCH  18  19
ENDBRANCH  12  18
BRANCH  17  27
ATOM     27  O   UNL     1      -3.260  -0.762   4.282  0.00  0.00    -0.489 OA
BRANCH  27  28
ATOM     28  C   UNL     1      -4.238  -1.177   5.237  0.00  0.00    +0.226 C 
ATOM     29  C   UNL     1      -5.497  -1.649   4.506  0.00  0.00    +0.048 C 
ENDBRANCH  27  28
ENDBRANCH  17  27
ENDBRANCH   1  15
BRANCH   2  30
ATOM     30  C   UNL     1      -1.006   2.195   8.762  0.00  0.00    +0.248 C 
ATOM     31  O   UNL     1      -1.739   2.160   9.735  0.00  0.00    -0.270 OA
ATOM     32  N   UNL     1      -1.196   3.129   7.809  0.00  0.00    -0.281 N 
ATOM     33  H   UNL     1      -0.659   3.114   7.002  0.00  0.00    +0.155 HD
BRANCH  32  34
ATOM     34  C   UNL     1      -2.168   4.119   7.984  0.00  0.00    +0.037 A 
ATOM     35  C   UNL     1      -2.652   4.402   9.255  0.00  0.00    +0.023 A 
ATOM     36  C   UNL     1      -3.611   5.381   9.424  0.00  0.00    +0.002 A 
ATOM     37  C   UNL     1      -4.090   6.079   8.330  0.00  0.00    +0.004 A 
ATOM     38  C   UNL     1      -3.610   5.800   7.064  0.00  0.00    -0.046 A 
ATOM     39  C   UNL     1      -2.646   4.825   6.888  0.00  0.00    -0.026 A 
ATOM     40  C   UNL     1      -2.119   4.525   5.509  0.00  0.00    +0.046 C 
ATOM     41  C   UNL     1      -4.134   6.562   5.874  0.00  0.00    +0.044 C 
ENDBRANCH  32  34
ENDBRANCH   2  30
TORSDOF 10
