REMARK  Name = ZINC06909195
REMARK  4 active torsions:
REMARK  status: ('A' for Active; 'I' for Inactive)
REMARK    1  A    between atoms: C_3  and  C_6
REMARK    2  A    between atoms: C_9  and  S_12
REMARK    3  A    between atoms: S_12  and  C_13
REMARK    4  A    between atoms: C_13  and  C_14
REMARK                            x       y       z     vdW  Elec       q    Type
REMARK                         _______ _______ _______ _____ _____    ______ ____
ROOT
ATOM      1  S   UNL     1       7.582   1.266  -0.065  0.00  0.00    -0.079 S 
ENDROOT
BRANCH   1   5
ATOM      2  C   UNL     1       3.740   1.825  -0.024  0.00  0.00    +0.189 A 
ATOM      3  N   UNL     1       4.842   1.059  -0.039  0.00  0.00    -0.200 NA
ATOM      4  H   UNL     1       6.073   3.900  -0.038  0.00  0.00    +0.191 HD
ATOM      5  C   UNL     1       5.911   1.824  -0.046  0.00  0.00    +0.185 A 
ATOM      6  N   UNL     1       5.505   3.113  -0.036  0.00  0.00    -0.253 N 
ATOM      7  N   UNL     1       4.102   3.090  -0.027  0.00  0.00    -0.151 NA
BRANCH   2  10
ATOM      8  C   UNL     1      -0.016   1.353   0.009  0.00  0.00    +0.008 A 
ATOM      9  C   UNL     1       1.178   2.041   0.002  0.00  0.00    +0.019 A 
ATOM     10  C   UNL     1       2.347   1.329  -0.013  0.00  0.00    +0.058 A 
ATOM     11  S   UNL     1       1.752  -0.354  -0.017  0.00  0.00    -0.093 S 
ATOM     12  C   UNL     1       0.002  -0.004   0.002  0.00  0.00    +0.046 A 
ENDBRANCH   2  10
ENDBRANCH   1   5
BRANCH   1  13
ATOM     13  C   UNL     1       7.441  -0.543  -0.072  0.00  0.00    +0.151 C 
BRANCH  13  14
ATOM     14  C   UNL     1       8.818  -1.155  -0.088  0.00  0.00    +0.121 A 
ATOM     15  N   UNL     1       8.923  -2.510  -0.101  0.00  0.00    -0.309 N 
ATOM     16  H   UNL     1       8.126  -3.063  -0.101  0.00  0.00    +0.170 HD
ATOM     17  C   UNL     1      10.152  -3.080  -0.116  0.00  0.00    +0.266 A 
ATOM     18  O   UNL     1      10.279  -4.293  -0.129  0.00  0.00    -0.267 OA
ATOM     19  C   UNL     1      11.266  -2.241  -0.117  0.00  0.00    +0.102 A 
ATOM     20  C   UNL     1      11.130  -0.842  -0.103  0.00  0.00    +0.085 A 
ATOM     21  N   UNL     1       9.842  -0.364  -0.094  0.00  0.00    -0.232 NA
ATOM     22  C   UNL     1      12.330  -0.119  -0.106  0.00  0.00    +0.036 A 
ATOM     23  C   UNL     1      13.514  -0.768  -0.121  0.00  0.00    +0.048 A 
ATOM     24  S   UNL     1      13.023  -2.484  -0.133  0.00  0.00    -0.090 S 
ENDBRANCH  13  14
ENDBRANCH   1  13
TORSDOF 4
