REMARK  Name = ZINC05282809
REMARK  4 active torsions:
REMARK  status: ('A' for Active; 'I' for Inactive)
REMARK    1  A    between atoms: C_4  and  N_7
REMARK    2  A    between atoms: C_12  and  N_55
REMARK    3  A    between atoms: C_19  and  N_55
REMARK    4  A    between atoms: C_26  and  N_28
REMARK                            x       y       z     vdW  Elec       q    Type
REMARK                         _______ _______ _______ _____ _____    ______ ____
ROOT
ATOM      1  N   UNL     1       1.370  -1.863   0.742  0.00  0.00    -0.230 N 
ATOM      2  C   UNL     1       0.747  -0.588   1.186  0.00  0.00    +0.120 C 
ATOM      3  C   UNL     1       0.002  -0.004   0.002  0.00  0.00    +0.025 C 
ATOM      4  C   UNL     1      -0.019   1.518   0.010  0.00  0.00    -0.014 C 
ATOM      5  C   UNL     1       1.433   2.014  -0.001  0.00  0.00    -0.069 C 
ATOM      6  C   UNL     1       2.059   1.647   1.341  0.00  0.00    +0.015 C 
ATOM      7  C   UNL     1       1.954   0.191   1.662  0.00  0.00    +0.150 C 
ATOM      8  N   UNL     1       3.116  -0.599   1.261  0.00  0.00    -0.166 NA
ATOM      9  N   UNL     1       2.754  -1.680   0.793  0.00  0.00    -0.083 NA
ENDROOT
BRANCH   1  13
ATOM     10  C   UNL     1       0.708  -5.850  -0.624  0.00  0.00    +0.000 C 
ATOM     11  C   UNL     1       0.310  -4.694  -1.544  0.00  0.00    +0.002 C 
ATOM     12  C   UNL     1       1.044  -3.423  -1.113  0.00  0.00    +0.024 C 
ATOM     13  C   UNL     1       0.667  -3.080   0.329  0.00  0.00    +0.095 C 
ATOM     14  C   UNL     1       1.065  -4.236   1.249  0.00  0.00    +0.024 C 
ATOM     15  C   UNL     1       0.330  -5.507   0.819  0.00  0.00    +0.002 C 
ENDBRANCH   1  13
BRANCH   5  16
ATOM     16  N   UNL     1       1.461   3.479  -0.172  0.00  0.00    +0.384 N 
ATOM     17  H   UNL     1       2.330   3.851   0.229  0.00  0.00    -0.085 HD
ATOM     18  H   UNL     1       0.656   3.892   0.314  0.00  0.00    -0.085 HD
BRANCH  16  19
ATOM     19  C   UNL     1       1.397   3.829  -1.604  0.00  0.00    -0.042 C 
ATOM     20  C   UNL     1       2.805   3.795  -2.201  0.00  0.00    -0.012 C 
ATOM     21  C   UNL     1       3.696   4.797  -1.463  0.00  0.00    +0.018 C 
ATOM     22  C   UNL     1       3.112   6.204  -1.611  0.00  0.00    +0.083 C 
ATOM     23  C   UNL     1       1.704   6.237  -1.014  0.00  0.00    +0.049 C 
ATOM     24  C   UNL     1       0.814   5.235  -1.752  0.00  0.00    +0.157 C 
ATOM     25 CL   UNL     1       4.162   7.384  -0.741  0.00  0.00    -0.122 Cl
BRANCH  24  26
ATOM     26  N   UNL     1      -0.535   5.267  -1.180  0.00  0.00    +0.024 N 
ATOM     27  O   UNL     1      -0.704   5.001  -0.004  0.00  0.00    -0.131 OA
ATOM     28  O   UNL     1      -1.487   5.560  -1.881  0.00  0.00    -0.131 OA
ENDBRANCH  24  26
ENDBRANCH  16  19
ENDBRANCH   5  16
TORSDOF 4
