REMARK  Name = ZINC19322346
REMARK  5 active torsions:
REMARK  status: ('A' for Active; 'I' for Inactive)
REMARK    1  A    between atoms: C_1  and  C_2
REMARK    2  A    between atoms: C_5  and  O_22
REMARK    3  A    between atoms: C_6  and  N_8
REMARK    4  A    between atoms: N_10  and  C_11
REMARK    5  A    between atoms: O_22  and  C_23
REMARK                            x       y       z     vdW  Elec       q    Type
REMARK                         _______ _______ _______ _____ _____    ______ ____
ROOT
ATOM      1  N   UNL     1       0.313  -2.764   2.401  0.00  0.00    -0.292 N 
ATOM      2  C   UNL     1       0.111  -2.196   3.629  0.00  0.00    +0.144 C 
ATOM      3  N   UNL     1       0.189  -2.963   4.757  0.00  0.00    -0.358 N 
ATOM      4  S   UNL     1      -0.227  -0.576   3.749  0.00  0.00    -0.016 SA
ATOM      5  H   UNL     1       0.141  -2.546   5.631  0.00  0.00    +0.162 HD
ATOM      6  H   UNL     1      -0.148  -3.584   2.164  0.00  0.00    +0.154 HD
ENDROOT
BRANCH   3   7
ATOM      7  C   UNL     1       0.345  -4.416   4.646  0.00  0.00    +0.078 C 
ATOM      8  C   UNL     1       1.567  -4.756   3.782  0.00  0.00    +0.117 C 
ATOM      9  N   UNL     1       1.694  -6.221   3.707  0.00  0.00    -0.274 NA
ATOM     10  C   UNL     1       1.894  -6.787   5.051  0.00  0.00    +0.173 C 
ATOM     11  N   UNL     1       0.712  -6.492   5.876  0.00  0.00    -0.274 NA
ATOM     12  C   UNL     1       0.547  -5.037   6.035  0.00  0.00    +0.117 C 
ATOM     13  C   UNL     1      -0.493  -7.080   5.268  0.00  0.00    +0.173 C 
ATOM     14  N   UNL     1      -0.676  -6.512   3.922  0.00  0.00    -0.274 NA
ATOM     15  C   UNL     1      -0.909  -5.039   4.016  0.00  0.00    +0.117 C 
ATOM     16  C   UNL     1       0.496  -6.806   3.082  0.00  0.00    +0.173 C 
ENDBRANCH   3   7
BRANCH   1  22
ATOM     17  C   UNL     1       3.652   0.699   1.386  0.00  0.00    +0.044 C 
ATOM     18  C   UNL     1       2.815  -0.481   0.965  0.00  0.00    -0.048 A 
ATOM     19  C   UNL     1       2.908  -0.967  -0.326  0.00  0.00    +0.007 A 
ATOM     20  C   UNL     1       2.142  -2.049  -0.718  0.00  0.00    +0.048 A 
ATOM     21  C   UNL     1       1.278  -2.650   0.184  0.00  0.00    +0.141 A 
ATOM     22  C   UNL     1       1.185  -2.161   1.485  0.00  0.00    +0.075 A 
ATOM     23  C   UNL     1       1.960  -1.078   1.872  0.00  0.00    +0.030 A 
BRANCH  21  24
ATOM     24  O   UNL     1       0.523  -3.714  -0.200  0.00  0.00    -0.493 OA
ATOM     25  C   UNL     1       0.671  -4.161  -1.550  0.00  0.00    +0.277 C 
ENDBRANCH  21  24
ENDBRANCH   1  22
TORSDOF 3
