REMARK  Name = ZINC61592324
REMARK  4 active torsions:
REMARK  status: ('A' for Active; 'I' for Inactive)
REMARK    1  A    between atoms: C_1  and  N_2
REMARK    2  A    between atoms: C_8  and  S_9
REMARK    3  A    between atoms: S_9  and  C_10
REMARK    4  A    between atoms: C_15  and  N_16
REMARK                            x       y       z     vdW  Elec       q    Type
REMARK                         _______ _______ _______ _____ _____    ______ ____
ROOT
ATOM      1  C   UNL     1       0.101  -1.675   3.844  0.00  0.00    +0.037 A 
ATOM      2  C   UNL     1       0.214  -2.946   3.299  0.00  0.00    +0.022 A 
ATOM      3  C   UNL     1       0.267  -4.051   4.127  0.00  0.00    -0.025 A 
ATOM      4  C   UNL     1       0.208  -3.894   5.506  0.00  0.00    +0.038 A 
ATOM      5  C   UNL     1       0.096  -2.624   6.056  0.00  0.00    +0.047 A 
ATOM      6  C   UNL     1       0.047  -1.513   5.229  0.00  0.00    +0.040 A 
ATOM      7  N   UNL     1       0.262  -5.018   6.339  0.00  0.00    -0.285 N 
ATOM      8  C   UNL     1       0.735  -6.189   5.876  0.00  0.00    +0.218 C 
ATOM      9  O   UNL     1       0.762  -7.156   6.606  0.00  0.00    -0.275 OA
ATOM     10  C   UNL     1       1.231  -6.312   4.460  0.00  0.00    +0.101 C 
ATOM     11  C   UNL     1       0.390  -5.432   3.535  0.00  0.00    +0.046 C 
ATOM     12  H   UNL     1      -0.044  -4.951   7.258  0.00  0.00    +0.155 HD
ENDROOT
BRANCH   6  13
ATOM     13  N   UNL     1      -0.061  -0.232   5.781  0.00  0.00    -0.357 N 
ATOM     14  H   UNL     1      -0.099   0.544   5.201  0.00  0.00    +0.142 HD
ATOM     15  H   UNL     1      -0.098  -0.120   6.744  0.00  0.00    +0.142 HD
ENDBRANCH   6  13
BRANCH   1  16
ATOM     16  S   UNL     1       0.033  -0.266   2.788  0.00  0.00    -0.048 S 
BRANCH  16  24
ATOM     17  C   UNL     1      -1.451   2.322   1.446  0.00  0.00    +0.156 C 
ATOM     18  N   UNL     1      -2.199   1.320   2.210  0.00  0.00    -0.274 N 
ATOM     19  C   UNL     1      -3.527   1.333   2.441  0.00  0.00    +0.345 A 
ATOM     20  O   UNL     1      -4.316   2.175   2.053  0.00  0.00    -0.245 OA
ATOM     21  N   UNL     1      -3.823   0.243   3.179  0.00  0.00    -0.226 N 
ATOM     22  H   UNL     1      -4.702  -0.013   3.498  0.00  0.00    +0.194 HD
ATOM     23  N   UNL     1      -2.625  -0.451   3.400  0.00  0.00    -0.144 NA
ATOM     24  C   UNL     1      -1.666   0.201   2.811  0.00  0.00    +0.197 A 
ENDBRANCH  16  24
ENDBRANCH   1  16
TORSDOF 3
