REMARK  Name = ZINC39675129
REMARK  9 active torsions:
REMARK  status: ('A' for Active; 'I' for Inactive)
REMARK    1  A    between atoms: C_1  and  C_2
REMARK    2  A    between atoms: C_4  and  C_32
REMARK    3  A    between atoms: N_5  and  C_7
REMARK    4  A    between atoms: C_7  and  C_8
REMARK    5  A    between atoms: C_8  and  N_9
REMARK    6  A    between atoms: C_10  and  C_12
REMARK    7  A    between atoms: C_23  and  C_25
REMARK    8  A    between atoms: C_27  and  C_31
REMARK    9  A    between atoms: N_28  and  C_30
REMARK                            x       y       z     vdW  Elec       q    Type
REMARK                         _______ _______ _______ _____ _____    ______ ____
ROOT
ATOM      1  C   UNL     1       2.723  -6.622   3.912  0.00  0.00    +0.100 C 
ATOM      2  C   UNL     1       1.967  -7.789   3.238  0.00  0.00    +0.121 C 
ATOM      3  N   UNL     1       3.023  -8.574   2.555  0.00  0.00    -0.295 N 
ATOM      4  C   UNL     1       4.164  -8.559   3.502  0.00  0.00    +0.115 C 
ATOM      5  C   UNL     1       4.163  -7.132   4.087  0.00  0.00    -0.004 C 
ATOM      6  C   UNL     1       5.135  -6.246   3.314  0.00  0.00    -0.010 C 
ATOM      7  C   UNL     1       6.565  -6.739   3.549  0.00  0.00    -0.082 C 
ATOM      8  N   UNL     1       6.869  -6.698   4.984  0.00  0.00    +0.379 N 
ATOM      9  C   UNL     1       5.991  -7.624   5.709  0.00  0.00    -0.082 C 
ATOM     10  C   UNL     1       4.536  -7.168   5.566  0.00  0.00    -0.010 C 
ATOM     11  C   UNL     1       2.960  -9.167   1.347  0.00  0.00    +0.267 C 
ATOM     12  O   UNL     1       3.918  -9.781   0.920  0.00  0.00    -0.268 OA
ATOM     13  H   UNL     1       7.831  -6.965   5.130  0.00  0.00    -0.086 HD
ATOM     14  H   UNL     1       6.727  -5.761   5.330  0.00  0.00    -0.086 HD
ENDROOT
BRANCH  11  15
ATOM     15  C   UNL     1       1.726  -9.071   0.540  0.00  0.00    +0.147 A 
ATOM     16  C   UNL     1       1.507  -9.642  -0.736  0.00  0.00    +0.057 A 
ATOM     17  C   UNL     1       0.245  -9.293  -1.077  0.00  0.00    +0.037 A 
ATOM     18  N   UNL     1      -0.256  -8.558  -0.061  0.00  0.00    -0.271 N 
ATOM     19  N   UNL     1       0.617  -8.443   0.875  0.00  0.00    -0.167 NA
ATOM     20  C   UNL     1      -1.601  -7.980  -0.028  0.00  0.00    +0.172 C 
ATOM     21  C   UNL     1      -0.469  -9.656  -2.353  0.00  0.00    +0.065 C 
ENDBRANCH  11  15
BRANCH   1  23
ATOM     22  N   UNL     1       2.765  -4.172   3.574  0.00  0.00    -0.313 N 
ATOM     23  C   UNL     1       2.701  -5.402   3.028  0.00  0.00    +0.218 C 
ATOM     24  O   UNL     1       2.627  -5.528   1.824  0.00  0.00    -0.275 OA
ATOM     25  H   UNL     1       2.824  -4.072   4.537  0.00  0.00    +0.149 HD
BRANCH  22  26
ATOM     26  C   UNL     1       2.744  -2.986   2.714  0.00  0.00    +0.127 C 
BRANCH  26  27
ATOM     27  C   UNL     1       2.827  -1.727   3.579  0.00  0.00    +0.162 C 
BRANCH  27  32
ATOM     28  C   UNL     1       4.381   2.076   0.695  0.00  0.00    +0.067 C 
ATOM     29  C   UNL     1       3.508   1.115   1.461  0.00  0.00    +0.060 A 
ATOM     30  C   UNL     1       2.112   1.158   1.538  0.00  0.00    +0.047 A 
ATOM     31  C   UNL     1       1.706   0.129   2.317  0.00  0.00    +0.036 A 
ATOM     32  N   UNL     1       2.806  -0.542   2.719  0.00  0.00    -0.267 N 
ATOM     33  N   UNL     1       3.925   0.094   2.165  0.00  0.00    -0.176 NA
ATOM     34  C   UNL     1       0.281  -0.208   2.673  0.00  0.00    +0.065 C 
ENDBRANCH  27  32
ENDBRANCH  26  27
ENDBRANCH  22  26
ENDBRANCH   1  23
TORSDOF 5
