REMARK  Name = ZINC36526777
REMARK  22 active torsions:
REMARK  status: ('A' for Active; 'I' for Inactive)
REMARK    1  A    between atoms: C_1  and  C_2
REMARK    2  A    between atoms: C_2  and  C_3
REMARK    3  A    between atoms: C_3  and  C_4
REMARK    4  A    between atoms: C_4  and  C_5
REMARK    5  A    between atoms: C_5  and  C_7
REMARK    6  A    between atoms: C_5  and  C_9
REMARK    7  A    between atoms: C_7  and  C_8
REMARK    8  A    between atoms: N_11  and  C_12
REMARK    9  A    between atoms: N_11  and  C_13
REMARK   10  A    between atoms: C_13  and  C_15
REMARK   11  A    between atoms: C_13  and  C_24
REMARK   12  A    between atoms: C_16  and  O_23
REMARK   13  A    between atoms: C_18  and  O_22
REMARK   14  A    between atoms: C_20  and  O_21
REMARK   15  A    between atoms: N_26  and  C_27
REMARK   16  A    between atoms: C_27  and  C_28
REMARK   17  A    between atoms: C_27  and  C_29
REMARK   18  A    between atoms: C_27  and  C_30
REMARK   19  A    between atoms: C_30  and  C_31
REMARK   20  A    between atoms: C_31  and  C_32
REMARK   21  A    between atoms: C_31  and  C_33
REMARK   22  A    between atoms: C_31  and  C_34
REMARK                            x       y       z     vdW  Elec       q    Type
REMARK                         _______ _______ _______ _____ _____    ______ ____
ROOT
ATOM      1  C   UNL     1       1.045  -7.922  -5.288  0.00  0.00    +0.199 C 
ENDROOT
BRANCH   1   2
ATOM      2  C   UNL     1       1.663  -7.234  -6.479  0.00  0.00    +0.065 A 
ATOM      3  C   UNL     1       3.042  -7.140  -6.585  0.00  0.00    +0.129 A 
ATOM      4  C   UNL     1       3.611  -6.507  -7.681  0.00  0.00    +0.091 A 
ATOM      5  C   UNL     1       2.800  -5.970  -8.669  0.00  0.00    +0.124 A 
ATOM      6  C   UNL     1       1.420  -6.066  -8.563  0.00  0.00    +0.091 A 
ATOM      7  C   UNL     1       0.852  -6.702  -7.470  0.00  0.00    +0.129 A 
BRANCH   7   8
ATOM      8  O   UNL     1      -0.500  -6.800  -7.367  0.00  0.00    -0.506 OA
ATOM      9  H   UNL     1      -0.914  -6.058  -6.905  0.00  0.00    +0.292 HD
ENDBRANCH   7   8
BRANCH   5  10
ATOM     10  O   UNL     1       3.357  -5.349  -9.742  0.00  0.00    -0.507 OA
ATOM     11  H   UNL     1       3.538  -5.939 -10.487  0.00  0.00    +0.292 HD
ENDBRANCH   5  10
BRANCH   3  12
ATOM     12  O   UNL     1       3.836  -7.666  -5.617  0.00  0.00    -0.506 OA
ATOM     13  H   UNL     1       4.109  -8.579  -5.785  0.00  0.00    +0.292 HD
ENDBRANCH   3  12
ENDBRANCH   1   2
BRANCH   1  16
ATOM     14  C   UNL     1      -1.204  -7.461  -4.470  0.00  0.00    +0.219 C 
ATOM     15  O   UNL     1      -1.549  -8.546  -4.888  0.00  0.00    -0.275 OA
ATOM     16  N   UNL     1       0.059  -7.033  -4.668  0.00  0.00    -0.289 N 
ATOM     17  C   UNL     1       0.445  -5.679  -4.265  0.00  0.00    +0.133 C 
BRANCH  14  18
ATOM     18  C   UNL     1      -2.186  -6.592  -3.728  0.00  0.00    +0.075 C 
BRANCH  18  19
ATOM     19  C   UNL     1      -3.121  -7.474  -2.897  0.00  0.00    +0.009 C 
ATOM     20  C   UNL     1      -2.316  -8.190  -1.811  0.00  0.00    +0.004 C 
ENDBRANCH  18  19
BRANCH  18  21
ATOM     21  C   UNL     1      -3.008  -5.780  -4.731  0.00  0.00    +0.013 C 
BRANCH  21  22
ATOM     22  C   UNL     1      -3.917  -4.808  -3.977  0.00  0.00    +0.000 C 
BRANCH  22  24
ATOM     23  C   UNL     1      -5.649  -3.024  -4.227  0.00  0.00    +0.004 C 
ATOM     24  C   UNL     1      -4.739  -3.997  -4.981  0.00  0.00    -0.003 C 
ENDBRANCH  22  24
ENDBRANCH  21  22
ENDBRANCH  18  21
ENDBRANCH  14  18
ENDBRANCH   1  16
BRANCH   1  25
ATOM     25  C   UNL     1       2.120  -8.255  -4.286  0.00  0.00    +0.239 C 
ATOM     26  O   UNL     1       2.426  -7.448  -3.434  0.00  0.00    -0.273 OA
ATOM     27  N   UNL     1       2.742  -9.450  -4.338  0.00  0.00    -0.308 N 
ATOM     28  H   UNL     1       2.553 -10.064  -5.064  0.00  0.00    +0.149 HD
BRANCH  27  29
ATOM     29  C   UNL     1       3.703  -9.820  -3.296  0.00  0.00    +0.030 C 
ATOM     30  C   UNL     1       4.945  -8.934  -3.410  0.00  0.00    +0.031 C 
ATOM     31  C   UNL     1       3.063  -9.628  -1.920  0.00  0.00    +0.031 C 
BRANCH  29  32
ATOM     32  C   UNL     1       4.105 -11.286  -3.471  0.00  0.00    +0.031 C 
BRANCH  32  33
ATOM     33  C   UNL     1       2.905 -12.184  -3.168  0.00  0.00    -0.036 C 
ATOM     34  C   UNL     1       1.647 -11.588  -3.804  0.00  0.00    +0.010 C 
ATOM     35  C   UNL     1       3.153 -13.580  -3.742  0.00  0.00    +0.010 C 
ATOM     36  C   UNL     1       2.712 -12.283  -1.653  0.00  0.00    +0.010 C 
ENDBRANCH  32  33
ENDBRANCH  29  32
ENDBRANCH  27  29
ENDBRANCH   1  25
TORSDOF 14
