REMARK  Name = ZINC58406872
REMARK  3 active torsions:
REMARK  status: ('A' for Active; 'I' for Inactive)
REMARK    1  A    between atoms: C_9  and  N_11
REMARK    2  A    between atoms: N_11  and  S_12
REMARK    3  A    between atoms: S_12  and  C_15
REMARK                            x       y       z     vdW  Elec       q    Type
REMARK                         _______ _______ _______ _____ _____    ______ ____
ROOT
ATOM      1  S   UNL     1      -0.015  -2.921  -0.731  0.00  0.00    +0.072 S 
ATOM      2  O   UNL     1       0.243  -4.299  -0.498  0.00  0.00    -0.150 OA
ATOM      3  O   UNL     1      -1.220  -2.291  -0.319  0.00  0.00    -0.150 OA
ENDROOT
BRANCH   1   4
ATOM      4  C   UNL     1       0.115  -2.671  -2.470  0.00  0.00    +0.109 A 
ATOM      5  C   UNL     1      -0.531  -1.605  -3.068  0.00  0.00    +0.029 A 
ATOM      6  C   UNL     1      -0.427  -1.418  -4.431  0.00  0.00    +0.006 A 
ATOM      7  C   UNL     1       0.324  -2.291  -5.208  0.00  0.00    -0.044 A 
ATOM      8  C   UNL     1       0.972  -3.349  -4.612  0.00  0.00    -0.042 A 
ATOM      9  C   UNL     1       0.868  -3.534  -3.239  0.00  0.00    +0.032 A 
ATOM     10  C   UNL     1       1.816  -4.325  -5.389  0.00  0.00    +0.035 C 
ATOM     11  C   UNL     1       1.492  -4.247  -6.879  0.00  0.00    +0.005 C 
ATOM     12  C   UNL     1       1.565  -2.779  -7.315  0.00  0.00    +0.005 C 
ATOM     13  C   UNL     1       0.388  -2.032  -6.690  0.00  0.00    +0.035 C 
ENDBRANCH   1   4
BRANCH   1  14
ATOM     14  N   UNL     1       1.224  -2.081  -0.021  0.00  0.00    -0.216 N 
ATOM     15  H   UNL     1       1.888  -2.551   0.507  0.00  0.00    +0.174 HD
BRANCH  14  24
ATOM     16  C   UNL     1       0.249   1.446  -0.403  0.00  0.00    +0.004 A 
ATOM     17  C   UNL     1       1.474   2.068  -0.508  0.00  0.00    +0.026 A 
ATOM     18  C   UNL     1       2.645   1.316  -0.452  0.00  0.00    +0.048 A 
ATOM     19  C   UNL     1       2.564  -0.077  -0.289  0.00  0.00    +0.022 A 
ATOM     20  C   UNL     1       3.945  -0.565  -0.270  0.00  0.00    +0.029 A 
ATOM     21  C   UNL     1       4.741   0.506  -0.415  0.00  0.00    +0.083 A 
ATOM     22  N   UNL     1       3.981   1.640  -0.525  0.00  0.00    -0.361 N 
ATOM     23  H   UNL     1       4.332   2.537  -0.639  0.00  0.00    +0.165 HD
ATOM     24  C   UNL     1       1.312  -0.698  -0.183  0.00  0.00    +0.057 A 
ATOM     25  C   UNL     1       0.163   0.071  -0.242  0.00  0.00    +0.025 A 
ENDBRANCH  14  24
ENDBRANCH   1  14
TORSDOF 3
