REMARK  Name = ZINC50898792
REMARK  6 active torsions:
REMARK  status: ('A' for Active; 'I' for Inactive)
REMARK    1  A    between atoms: C_1  and  C_2
REMARK    2  A    between atoms: C_2  and  C_3
REMARK    3  A    between atoms: C_2  and  C_4
REMARK    4  A    between atoms: C_2  and  N_12
REMARK    5  A    between atoms: N_12  and  C_13
REMARK    6  A    between atoms: C_13  and  N_14
REMARK                            x       y       z     vdW  Elec       q    Type
REMARK                         _______ _______ _______ _____ _____    ______ ____
ROOT
ATOM      1  N   UNL     1       0.690  -0.478  -1.207  0.00  0.00    +0.398 N 
ATOM      2  H   UNL     1       0.703  -1.487  -1.212  0.00  0.00    -0.082 HD
ATOM      3  H   UNL     1       0.202  -0.144  -2.024  0.00  0.00    -0.082 HD
ENDROOT
BRANCH   1   5
ATOM      4  C   UNL     1      -0.019   1.526   0.010  0.00  0.00    -0.006 C 
ATOM      5  C   UNL     1       0.002  -0.004   0.002  0.00  0.00    -0.046 C 
ATOM      6  C   UNL     1       0.742  -0.511   1.242  0.00  0.00    -0.006 C 
BRANCH   5   7
ATOM      7  C   UNL     1      -1.412  -0.526   0.013  0.00  0.00    -0.057 A 
ATOM      8  C   UNL     1      -1.861  -1.326  -1.022  0.00  0.00    +0.004 A 
ATOM      9  C   UNL     1      -3.157  -1.804  -1.013  0.00  0.00    +0.021 A 
ATOM     10  C   UNL     1      -4.006  -1.483   0.031  0.00  0.00    +0.059 A 
ATOM     11  C   UNL     1      -3.557  -0.683   1.067  0.00  0.00    +0.059 A 
ATOM     12  C   UNL     1      -2.257  -0.209   1.059  0.00  0.00    +0.023 A 
ATOM     13 CL   UNL     1      -4.621  -0.279   2.377  0.00  0.00    -0.082 Cl
ATOM     14 CL   UNL     1      -5.635  -2.084   0.041  0.00  0.00    -0.082 Cl
ENDBRANCH   5   7
ENDBRANCH   1   5
BRANCH   1  15
ATOM     15  C   UNL     1       2.068   0.031  -1.217  0.00  0.00    +0.070 C 
BRANCH  15  16
ATOM     16  N   UNL     1       2.753  -0.442  -2.422  0.00  0.00    -0.246 N 
ATOM     17  C   UNL     1       3.655  -1.437  -2.317  0.00  0.00    +0.285 A 
ATOM     18  O   UNL     1       3.896  -1.937  -1.230  0.00  0.00    -0.265 OA
ATOM     19  C   UNL     1       4.317  -1.895  -3.476  0.00  0.00    +0.126 A 
ATOM     20  C   UNL     1       4.006  -1.297  -4.667  0.00  0.00    +0.084 A 
ATOM     21  C   UNL     1       3.050  -0.266  -4.665  0.00  0.00    +0.154 A 
ATOM     22  N   UNL     1       2.476   0.100  -3.553  0.00  0.00    -0.177 NA
ATOM     23 CL   UNL     1       4.773  -1.797  -6.142  0.00  0.00    -0.080 Cl
ATOM     24 CL   UNL     1       5.488  -3.174  -3.393  0.00  0.00    -0.076 Cl
ENDBRANCH  15  16
ENDBRANCH   1  15
TORSDOF 4
