REMARK  Name = ZINC12572688
REMARK  11 active torsions:
REMARK  status: ('A' for Active; 'I' for Inactive)
REMARK    1  A    between atoms: C_1  and  C_2
REMARK    2  A    between atoms: C_7  and  O_8
REMARK    3  A    between atoms: O_8  and  C_9
REMARK    4  A    between atoms: C_9  and  C_10
REMARK    5  A    between atoms: N_12  and  N_13
REMARK    6  A    between atoms: N_13  and  C_14
REMARK    7  A    between atoms: C_14  and  N_16
REMARK    8  A    between atoms: C_17  and  C_19
REMARK    9  A    between atoms: C_19  and  O_20
REMARK   10  A    between atoms: O_20  and  C_21
REMARK   11  A    between atoms: C_24  and  N_27
REMARK                            x       y       z     vdW  Elec       q    Type
REMARK                         _______ _______ _______ _____ _____    ______ ____
ROOT
ATOM      1  C   UNL     1       2.943   6.569   0.009  0.00  0.00    +0.153 C 
ATOM      2  S   UNL     1       2.696   8.263   0.021  0.00  0.00    -0.017 S 
ENDROOT
BRANCH   1   3
ATOM      3  N   UNL     1       4.195   6.071  -0.005  0.00  0.00    -0.264 N 
ATOM      4  C   UNL     1       5.253   6.907  -0.011  0.00  0.00    +0.256 C 
ATOM      5  O   UNL     1       5.078   8.106  -0.003  0.00  0.00    -0.272 OA
ATOM      6  H   UNL     1       4.335   5.111  -0.012  0.00  0.00    +0.157 HD
BRANCH   4   7
ATOM      7  C   UNL     1       6.653   6.350  -0.027  0.00  0.00    +0.324 C 
BRANCH   7   8
ATOM      8  O   UNL     1       7.594   7.426  -0.031  0.00  0.00    -0.483 OA
BRANCH   8   9
ATOM      9  C   UNL     1       8.911   7.093  -0.045  0.00  0.00    +0.121 A 
ATOM     10  C   UNL     1       9.291   5.759  -0.050  0.00  0.00    +0.048 A 
ATOM     11  C   UNL     1      10.631   5.423  -0.069  0.00  0.00    +0.036 A 
ATOM     12  C   UNL     1      11.593   6.416  -0.073  0.00  0.00    +0.126 A 
ATOM     13  C   UNL     1      11.217   7.747  -0.063  0.00  0.00    +0.036 A 
ATOM     14  C   UNL     1       9.879   8.087  -0.049  0.00  0.00    +0.048 A 
BRANCH  12  15
ATOM     15  N   UNL     1      13.028   6.054  -0.089  0.00  0.00    +0.056 N 
ATOM     16  O   UNL     1      13.877   6.928  -0.093  0.00  0.00    -0.126 OA
ATOM     17  O   UNL     1      13.361   4.882  -0.098  0.00  0.00    -0.126 OA
ENDBRANCH  12  15
ENDBRANCH   8   9
ENDBRANCH   7   8
ENDBRANCH   4   7
ENDBRANCH   1   3
BRANCH   1  18
ATOM     18  N   UNL     1       1.885   5.734   0.015  0.00  0.00    -0.245 N 
ATOM     19  H   UNL     1       0.984   6.092   0.025  0.00  0.00    +0.172 HD
BRANCH  18  22
ATOM     20  C   UNL     1       1.030   3.512   0.011  0.00  0.00    +0.267 C 
ATOM     21  O   UNL     1      -0.097   3.960   0.024  0.00  0.00    -0.271 OA
ATOM     22  N   UNL     1       2.088   4.348   0.005  0.00  0.00    -0.232 N 
ATOM     23  H   UNL     1       2.989   3.989  -0.005  0.00  0.00    +0.173 HD
BRANCH  20  24
ATOM     24  C   UNL     1       1.248   2.021   0.001  0.00  0.00    +0.326 C 
BRANCH  24  25
ATOM     25  O   UNL     1      -0.016   1.355   0.009  0.00  0.00    -0.482 OA
BRANCH  25  32
ATOM     26  C   UNL     1      -2.505   0.019   0.039  0.00  0.00    +0.047 C 
ATOM     27  C   UNL     1      -1.189  -0.715   0.015  0.00  0.00    -0.008 A 
ATOM     28  C   UNL     1      -1.168  -2.096   0.002  0.00  0.00    +0.022 A 
ATOM     29  C   UNL     1       0.040  -2.771  -0.013  0.00  0.00    +0.018 A 
ATOM     30  C   UNL     1       1.229  -2.063  -0.021  0.00  0.00    +0.019 A 
ATOM     31  C   UNL     1       1.212  -0.682  -0.013  0.00  0.00    +0.047 A 
ATOM     32  C   UNL     1       0.002  -0.004   0.002  0.00  0.00    +0.124 A 
ATOM     33 BR   UNL     1       0.065  -4.661  -0.023  0.00  0.00    -0.050 Br
ENDBRANCH  25  32
ENDBRANCH  24  25
ENDBRANCH  20  24
ENDBRANCH  18  22
ENDBRANCH   1  18
TORSDOF 10
