REMARK  Name = ZINC06199442
REMARK  5 active torsions:
REMARK  status: ('A' for Active; 'I' for Inactive)
REMARK    1  A    between atoms: C_1  and  C_2
REMARK    2  A    between atoms: C_5  and  S_8
REMARK    3  A    between atoms: S_8  and  N_11
REMARK    4  A    between atoms: C_14  and  O_24
REMARK    5  A    between atoms: C_16  and  C_17
REMARK                            x       y       z     vdW  Elec       q    Type
REMARK                         _______ _______ _______ _____ _____    ______ ____
ROOT
ATOM      1  N   UNL     1      -4.052  -3.423   0.441  0.00  0.00    -0.101 NA
ATOM      2  C   UNL     1      -3.213  -2.420   0.333  0.00  0.00    +0.217 C 
ATOM      3  N   UNL     1      -3.485  -1.100   0.254  0.00  0.00    -0.185 NA
ATOM      4  C   UNL     1      -2.552  -0.212   0.150  0.00  0.00    +0.229 C 
ATOM      5  C   UNL     1      -1.159  -0.699   0.120  0.00  0.00    +0.078 C 
ATOM      6  C   UNL     1       0.003  -0.003   0.018  0.00  0.00    +0.028 C 
ATOM      7  S   UNL     1      -1.429  -2.463   0.247  0.00  0.00    -0.043 S 
ENDROOT
BRANCH   6   8
ATOM      8  C   UNL     1      -0.027   1.438  -0.266  0.00  0.00    -0.024 A 
ATOM      9  C   UNL     1      -0.908   1.948  -1.227  0.00  0.00    +0.008 A 
ATOM     10  C   UNL     1      -0.933   3.302  -1.484  0.00  0.00    +0.001 A 
ATOM     11  C   UNL     1      -0.083   4.156  -0.802  0.00  0.00    +0.000 A 
ATOM     12  C   UNL     1       0.796   3.659   0.145  0.00  0.00    +0.001 A 
ATOM     13  C   UNL     1       0.830   2.308   0.418  0.00  0.00    +0.008 A 
ENDBRANCH   6   8
BRANCH   1  14
ATOM     14  S   UNL     1      -5.682  -3.137   0.496  0.00  0.00    +0.101 S 
ATOM     15  O   UNL     1      -5.931  -2.440   1.709  0.00  0.00    -0.146 OA
ATOM     16  O   UNL     1      -6.046  -2.611  -0.773  0.00  0.00    -0.146 OA
BRANCH  14  21
ATOM     17  C   UNL     1      -8.417  -8.492   0.992  0.00  0.00    +0.044 C 
ATOM     18  C   UNL     1      -7.734  -7.154   0.868  0.00  0.00    -0.050 A 
ATOM     19  C   UNL     1      -7.366  -6.459   2.004  0.00  0.00    +0.005 A 
ATOM     20  C   UNL     1      -6.739  -5.232   1.891  0.00  0.00    +0.029 A 
ATOM     21  C   UNL     1      -6.481  -4.701   0.641  0.00  0.00    +0.113 A 
ATOM     22  C   UNL     1      -6.854  -5.394  -0.495  0.00  0.00    +0.029 A 
ATOM     23  C   UNL     1      -7.476  -6.623  -0.382  0.00  0.00    +0.005 A 
ENDBRANCH  14  21
ENDBRANCH   1  14
BRANCH   4  24
ATOM     24  O   UNL     1      -2.840   1.107   0.072  0.00  0.00    -0.492 OA
ATOM     25  H   UNL     1      -3.778   1.312   0.184  0.00  0.00    +0.294 HD
ENDBRANCH   4  24
TORSDOF 4
