REMARK  Name = ZINC65739590
REMARK  12 active torsions:
REMARK  status: ('A' for Active; 'I' for Inactive)
REMARK    1  A    between atoms: C_3  and  O_41
REMARK    2  A    between atoms: C_6  and  C_7
REMARK    3  A    between atoms: C_12  and  O_18
REMARK    4  A    between atoms: O_18  and  C_19
REMARK    5  A    between atoms: C_21  and  O_40
REMARK    6  A    between atoms: C_23  and  O_39
REMARK    7  A    between atoms: C_25  and  O_38
REMARK    8  A    between atoms: C_27  and  C_30
REMARK    9  A    between atoms: C_30  and  O_31
REMARK   10  A    between atoms: O_31  and  C_32
REMARK   11  A    between atoms: C_32  and  C_34
REMARK   12  A    between atoms: C_34  and  C_35
REMARK                            x       y       z     vdW  Elec       q    Type
REMARK                         _______ _______ _______ _____ _____    ______ ____
ROOT
ATOM      1  O   UNL     1      -6.960  -3.333   1.196  0.00  0.00    -0.461 OA
ENDROOT
BRANCH   1   7
ATOM      2  C   UNL     1      -1.271  -0.765   0.011  0.00  0.00    +0.064 A 
ATOM      3  C   UNL     1      -2.131  -0.698  -1.040  0.00  0.00    +0.208 A 
ATOM      4  O   UNL     1      -3.279  -1.378  -1.077  0.00  0.00    -0.462 OA
ATOM      5  C   UNL     1      -3.813  -1.929   0.030  0.00  0.00    +0.142 A 
ATOM      6  C   UNL     1      -5.137  -2.351   0.043  0.00  0.00    +0.092 A 
ATOM      7  C   UNL     1      -5.666  -2.923   1.187  0.00  0.00    +0.128 A 
ATOM      8  C   UNL     1      -4.884  -3.082   2.329  0.00  0.00    +0.047 A 
ATOM      9  C   UNL     1      -3.582  -2.670   2.335  0.00  0.00    +0.019 A 
ATOM     10  C   UNL     1      -3.036  -2.087   1.191  0.00  0.00    +0.065 A 
ATOM     11  C   UNL     1      -1.637  -1.619   1.157  0.00  0.00    +0.200 A 
ATOM     12  O   UNL     1      -0.833  -1.915   2.024  0.00  0.00    -0.286 OA
BRANCH   2  18
ATOM     13  C   UNL     1      -0.017   1.390   0.010  0.00  0.00    +0.012 A 
ATOM     14  C   UNL     1       1.169   2.094   0.002  0.00  0.00    +0.046 A 
ATOM     15  C   UNL     1       2.380   1.416  -0.013  0.00  0.00    +0.117 A 
ATOM     16  C   UNL     1       2.402   0.029  -0.022  0.00  0.00    +0.046 A 
ATOM     17  C   UNL     1       1.220  -0.682  -0.014  0.00  0.00    +0.012 A 
ATOM     18  C   UNL     1       0.002  -0.004   0.002  0.00  0.00    -0.011 A 
BRANCH  15  19
ATOM     19  O   UNL     1       3.547   2.113  -0.021  0.00  0.00    -0.507 OA
ATOM     20  H   UNL     1       3.894   2.310   0.860  0.00  0.00    +0.292 HD
ENDBRANCH  15  19
ENDBRANCH   2  18
ENDBRANCH   1   7
BRANCH   1  21
ATOM     21  C   UNL     1      -7.447  -3.916   2.407  0.00  0.00    +0.339 C 
ATOM     22  C   UNL     1      -8.824  -4.537   2.156  0.00  0.00    +0.214 C 
ATOM     23  C   UNL     1      -9.365  -5.106   3.471  0.00  0.00    +0.180 C 
ATOM     24  C   UNL     1      -9.413  -3.988   4.517  0.00  0.00    +0.178 C 
ATOM     25  C   UNL     1      -8.014  -3.389   4.676  0.00  0.00    +0.191 C 
ATOM     26  O   UNL     1      -7.557  -2.906   3.411  0.00  0.00    -0.330 OA
BRANCH  24  27
ATOM     27  O   UNL     1     -10.323  -2.973   4.090  0.00  0.00    -0.386 OA
ATOM     28  H   UNL     1     -11.230  -3.285   3.965  0.00  0.00    +0.210 HD
ENDBRANCH  24  27
BRANCH  23  29
ATOM     29  O   UNL     1     -10.681  -5.624   3.262  0.00  0.00    -0.386 OA
ATOM     30  H   UNL     1     -10.724  -6.333   2.606  0.00  0.00    +0.210 HD
ENDBRANCH  23  29
BRANCH  22  31
ATOM     31  O   UNL     1      -8.707  -5.586   1.193  0.00  0.00    -0.383 OA
ATOM     32  H   UNL     1      -8.365  -5.297   0.336  0.00  0.00    +0.210 HD
ENDBRANCH  22  31
BRANCH  25  33
ATOM     33  C   UNL     1      -8.065  -2.231   5.676  0.00  0.00    +0.266 C 
BRANCH  33  34
ATOM     34  O   UNL     1      -6.742  -1.747   5.913  0.00  0.00    -0.462 OA
BRANCH  34  35
ATOM     35  C   UNL     1      -6.611  -0.725   6.772  0.00  0.00    +0.318 C 
ATOM     36  O   UNL     1      -7.589  -0.256   7.306  0.00  0.00    -0.250 OA
BRANCH  35  37
ATOM     37  C   UNL     1      -5.246  -0.161   7.072  0.00  0.00    +0.245 C 
BRANCH  37  38
ATOM     38  C   UNL     1      -5.375   0.970   8.059  0.00  0.00    +0.367 C 
ATOM     39  O   UNL     1      -6.474   1.289   8.481  0.00  0.00    -0.246 OA
ATOM     40  O   UNL     1      -4.381   1.566   8.436  0.00  0.00    -0.246 OA
ENDBRANCH  37  38
ENDBRANCH  35  37
ENDBRANCH  34  35
ENDBRANCH  33  34
ENDBRANCH  25  33
ENDBRANCH   1  21
TORSDOF 12
