REMARK  Name = ZINC00709634
REMARK  7 active torsions:
REMARK  status: ('A' for Active; 'I' for Inactive)
REMARK    1  A    between atoms: C_1  and  C_2
REMARK    2  A    between atoms: C_5  and  C_7
REMARK    3  A    between atoms: C_12  and  C_17
REMARK    4  A    between atoms: C_20  and  O_25
REMARK    5  A    between atoms: C_21  and  O_23
REMARK    6  A    between atoms: O_23  and  C_24
REMARK    7  A    between atoms: O_25  and  C_26
REMARK                            x       y       z     vdW  Elec       q    Type
REMARK                         _______ _______ _______ _____ _____    ______ ____
ROOT
ATOM      1  C   UNL     1      -5.684  -1.932   0.113  0.00  0.00    +0.143 C 
ATOM      2  C   UNL     1      -4.426  -1.108  -0.041  0.00  0.00    +0.037 C 
ATOM      3  C   UNL     1      -3.876  -0.720  -1.202  0.00  0.00    +0.017 C 
ATOM      4  C   UNL     1      -2.575   0.067  -1.207  0.00  0.00    +0.059 C 
ATOM      5  C   UNL     1      -2.513   0.975   0.020  0.00  0.00    +0.032 C 
ATOM      6  C   UNL     1      -2.582   0.083   1.265  0.00  0.00    +0.088 C 
ATOM      7  C   UNL     1      -3.826  -0.750   1.190  0.00  0.00    +0.163 C 
ATOM      8  O   UNL     1      -4.338  -1.132   2.224  0.00  0.00    -0.292 OA
ATOM      9  N   UNL     1      -4.381  -0.980  -2.435  0.00  0.00    -0.316 N 
ATOM     10  C   UNL     1      -4.828  -2.227  -2.860  0.00  0.00    +0.052 A 
ATOM     11  C   UNL     1      -4.223  -2.917  -3.895  0.00  0.00    +0.025 A 
ATOM     12  C   UNL     1      -4.749  -4.133  -4.298  0.00  0.00    +0.002 A 
ATOM     13  C   UNL     1      -5.870  -4.649  -3.674  0.00  0.00    +0.002 A 
ATOM     14  C   UNL     1      -6.465  -3.967  -2.627  0.00  0.00    +0.025 A 
ATOM     15  C   UNL     1      -5.928  -2.760  -2.205  0.00  0.00    +0.049 A 
ATOM     16  N   UNL     1      -6.450  -2.080  -1.107  0.00  0.00    -0.331 N 
ATOM     17  H   UNL     1      -4.434  -0.244  -3.064  0.00  0.00    +0.152 HD
ATOM     18  H   UNL     1      -7.340  -1.700  -1.161  0.00  0.00    +0.147 HD
ENDROOT
BRANCH   1  23
ATOM     19  C   UNL     1      -4.017  -7.268   1.030  0.00  0.00    +0.051 C 
ATOM     20  C   UNL     1      -4.509  -5.843   1.045  0.00  0.00    -0.013 A 
ATOM     21  C   UNL     1      -4.949  -5.103   2.091  0.00  0.00    +0.011 A 
ATOM     22  C   UNL     1      -5.356  -3.801   1.867  0.00  0.00    +0.013 A 
ATOM     23  C   UNL     1      -5.302  -3.303   0.608  0.00  0.00    +0.015 A 
ATOM     24  S   UNL     1      -4.667  -4.694  -0.313  0.00  0.00    -0.096 S 
ENDBRANCH   1  23
BRANCH   5  25
ATOM     25  C   UNL     1      -1.220   1.749   0.017  0.00  0.00    -0.040 A 
ATOM     26  C   UNL     1      -0.013   1.076   0.008  0.00  0.00    +0.008 A 
ATOM     27  C   UNL     1       1.176   1.782   0.000  0.00  0.00    +0.049 A 
ATOM     28  C   UNL     1       1.159   3.167   0.007  0.00  0.00    +0.161 A 
ATOM     29  C   UNL     1      -0.056   3.845   0.022  0.00  0.00    +0.162 A 
ATOM     30  C   UNL     1      -1.244   3.131   0.030  0.00  0.00    +0.053 A 
BRANCH  29  31
ATOM     31  O   UNL     1      -0.078   5.205   0.030  0.00  0.00    -0.491 OA
ATOM     32  C   UNL     1      -1.362   5.833   0.045  0.00  0.00    +0.277 C 
ENDBRANCH  29  31
BRANCH  28  33
ATOM     33  O   UNL     1       2.327   3.863  -0.000  0.00  0.00    -0.491 OA
ATOM     34  C   UNL     1       3.536   3.101  -0.016  0.00  0.00    +0.277 C 
ENDBRANCH  28  33
ENDBRANCH   5  25
TORSDOF 4
