REMARK  Name = ZINC48949726
REMARK  6 active torsions:
REMARK  status: ('A' for Active; 'I' for Inactive)
REMARK    1  A    between atoms: C_1  and  N_2
REMARK    2  A    between atoms: N_2  and  C_3
REMARK    3  A    between atoms: N_2  and  C_10
REMARK    4  A    between atoms: C_3  and  C_4
REMARK    5  A    between atoms: C_15  and  C_16
REMARK    6  A    between atoms: C_17  and  C_18
REMARK                            x       y       z     vdW  Elec       q    Type
REMARK                         _______ _______ _______ _____ _____    ______ ____
ROOT
ATOM      1  C   UNL     1       0.000  -0.692  -1.204  0.00  0.00    +0.038 A 
ATOM      2  C   UNL     1       1.199  -1.026  -1.819  0.00  0.00    +0.039 A 
ATOM      3  C   UNL     1       1.194  -1.710  -3.019  0.00  0.00    +0.020 A 
ATOM      4  C   UNL     1      -0.004  -2.069  -3.620  0.00  0.00    +0.016 A 
ATOM      5  C   UNL     1      -1.204  -1.746  -3.028  0.00  0.00    +0.011 A 
ATOM      6  C   UNL     1      -1.217  -1.059  -1.807  0.00  0.00    -0.004 A 
ATOM      7 BR   UNL     1       2.833  -2.161  -3.849  0.00  0.00    -0.050 Br
ENDROOT
BRANCH   1   9
ATOM      8  C   UNL     1      -0.018   1.461   0.010  0.00  0.00    +0.129 C 
ATOM      9  N   UNL     1       0.002  -0.004   0.002  0.00  0.00    -0.330 N 
BRANCH   9  10
ATOM     10  C   UNL     1       0.024  -0.743   1.267  0.00  0.00    +0.136 C 
BRANCH  10  11
ATOM     11  C   UNL     1      -1.411  -1.020   1.720  0.00  0.00    +0.135 C 
ATOM     12  C   UNL     1      -1.400  -1.692   3.111  0.00  0.00    +0.035 C 
ATOM     13  C   UNL     1      -2.539  -2.739   2.980  0.00  0.00    +0.031 C 
ATOM     14  C   UNL     1      -2.402  -3.138   1.489  0.00  0.00    +0.160 C 
ATOM     15  O   UNL     1      -2.044  -1.923   0.807  0.00  0.00    -0.375 OA
ENDBRANCH  10  11
ENDBRANCH   9  10
ENDBRANCH   1   9
BRANCH   6  16
ATOM     16  C   UNL     1      -2.491  -0.718  -1.166  0.00  0.00    +0.017 C 
ATOM     17  C   UNL     1      -3.660  -1.074  -1.751  0.00  0.00    +0.096 C 
BRANCH  17  18
ATOM     18  C   UNL     1      -4.887  -0.746  -1.133  0.00  0.00    +0.380 C 
ATOM     19  O   UNL     1      -4.894  -0.139  -0.068  0.00  0.00    -0.241 OA
ATOM     20  O   UNL     1      -5.945  -1.067  -1.662  0.00  0.00    -0.241 OA
ENDBRANCH  17  18
ENDBRANCH   6  16
TORSDOF 5
