REMARK  Name = ZINC32577085
REMARK  10 active torsions:
REMARK  status: ('A' for Active; 'I' for Inactive)
REMARK    1  A    between atoms: C_1  and  O_2
REMARK    2  A    between atoms: O_2  and  C_3
REMARK    3  A    between atoms: C_6  and  S_11
REMARK    4  A    between atoms: C_7  and  O_9
REMARK    5  A    between atoms: O_9  and  C_10
REMARK    6  A    between atoms: S_11  and  N_14
REMARK    7  A    between atoms: N_14  and  N_15
REMARK    8  A    between atoms: C_16  and  C_17
REMARK    9  A    between atoms: C_20  and  O_24
REMARK   10  A    between atoms: C_21  and  O_23
REMARK                            x       y       z     vdW  Elec       q    Type
REMARK                         _______ _______ _______ _____ _____    ______ ____
ROOT
ATOM      1  N   UNL     1       1.298  -0.944   0.084  0.00  0.00    -0.137 N 
ATOM      2  H   UNL     1       0.455  -0.485  -0.052  0.00  0.00    +0.197 HD
ENDROOT
BRANCH   1   3
ATOM      3  S   UNL     1       1.320  -2.582   0.324  0.00  0.00    +0.090 S 
ATOM      4  O   UNL     1      -0.036  -2.996   0.422  0.00  0.00    -0.149 OA
ATOM      5  O   UNL     1       2.213  -3.123  -0.639  0.00  0.00    -0.149 OA
BRANCH   3   9
ATOM      6  C   UNL     1       3.193  -3.317   4.385  0.00  0.00    +0.124 A 
ATOM      7  C   UNL     1       1.865  -3.648   4.159  0.00  0.00    +0.048 A 
ATOM      8  C   UNL     1       1.296  -3.423   2.920  0.00  0.00    +0.036 A 
ATOM      9  C   UNL     1       2.048  -2.868   1.903  0.00  0.00    +0.152 A 
ATOM     10  C   UNL     1       3.379  -2.539   2.122  0.00  0.00    +0.150 A 
ATOM     11  C   UNL     1       3.950  -2.759   3.366  0.00  0.00    +0.093 A 
BRANCH   6  13
ATOM     12  C   UNL     1       2.914  -4.116   6.606  0.00  0.00    +0.277 C 
ATOM     13  O   UNL     1       3.752  -3.539   5.603  0.00  0.00    -0.495 OA
ENDBRANCH   6  13
BRANCH  10  14
ATOM     14  O   UNL     1       4.120  -1.998   1.119  0.00  0.00    -0.493 OA
ATOM     15  C   UNL     1       5.482  -1.686   1.415  0.00  0.00    +0.277 C 
ENDBRANCH  10  14
ENDBRANCH   3   9
ENDBRANCH   1   3
BRANCH   1  16
ATOM     16  N   UNL     1       2.498  -0.221   0.076  0.00  0.00    -0.174 NA
ATOM     17  C   UNL     1       2.474   1.076   0.060  0.00  0.00    +0.139 C 
BRANCH  17  18
ATOM     18  C   UNL     1       1.327   1.799   0.640  0.00  0.00    -0.002 A 
ATOM     19  C   UNL     1       1.203   3.178   0.454  0.00  0.00    +0.013 A 
ATOM     20  C   UNL     1       0.132   3.854   1.002  0.00  0.00    +0.050 A 
ATOM     21  C   UNL     1      -0.829   3.165   1.728  0.00  0.00    +0.158 A 
ATOM     22  C   UNL     1      -0.711   1.790   1.917  0.00  0.00    +0.159 A 
ATOM     23  C   UNL     1       0.363   1.107   1.376  0.00  0.00    +0.058 A 
BRANCH  22  24
ATOM     24  O   UNL     1      -1.652   1.119   2.634  0.00  0.00    -0.503 OA
ATOM     25  H   UNL     1      -1.559   0.034   2.784  0.00  0.00    +0.292 HD
ENDBRANCH  22  24
BRANCH  21  26
ATOM     26  O   UNL     1      -1.885   3.835   2.261  0.00  0.00    -0.503 OA
ATOM     27  H   UNL     1      -2.648   3.290   2.837  0.00  0.00    +0.292 HD
ENDBRANCH  21  26
ENDBRANCH  17  18
ENDBRANCH   1  16
TORSDOF 8
