REMARK  Name = ZINC03843260
REMARK  7 active torsions:
REMARK  status: ('A' for Active; 'I' for Inactive)
REMARK    1  A    between atoms: C_1  and  C_2
REMARK    2  A    between atoms: C_2  and  O_3
REMARK    3  A    between atoms: O_3  and  C_4
REMARK    4  A    between atoms: C_7  and  C_10
REMARK    5  A    between atoms: C_16  and  C_19
REMARK    6  A    between atoms: C_24  and  O_25
REMARK    7  A    between atoms: O_25  and  C_26
REMARK                            x       y       z     vdW  Elec       q    Type
REMARK                         _______ _______ _______ _____ _____    ______ ____
ROOT
ATOM      1  C   UNL     1      -1.204   2.173   0.117  0.00  0.00    +0.182 A 
ATOM      2  N   UNL     1      -0.676   3.370   0.071  0.00  0.00    -0.127 NA
ATOM      3  N   UNL     1       0.605   3.283  -0.004  0.00  0.00    -0.120 NA
ATOM      4  C   UNL     1       0.956   2.030  -0.015  0.00  0.00    +0.211 A 
ATOM      5  N   UNL     1      -0.162   1.248   0.058  0.00  0.00    -0.220 N 
ATOM      6  N   UNL     1      -0.042  -0.105   0.062  0.00  0.00    -0.263 N 
ATOM      7  C   UNL     1       1.323  -0.664  -0.014  0.00  0.00    +0.186 C 
ATOM      8  S   UNL     1       2.312   0.882  -0.086  0.00  0.00    -0.056 S 
ATOM      9  H   UNL     1      -0.643  -0.524  -0.631  0.00  0.00    +0.168 HD
ENDROOT
BRANCH   1  13
ATOM     10  C   UNL     1      -5.346   1.269   0.392  0.00  0.00    +0.121 A 
ATOM     11  C   UNL     1      -4.899   2.555   0.665  0.00  0.00    +0.046 A 
ATOM     12  C   UNL     1      -3.555   2.852   0.577  0.00  0.00    +0.015 A 
ATOM     13  C   UNL     1      -2.645   1.858   0.213  0.00  0.00    +0.021 A 
ATOM     14  C   UNL     1      -3.100   0.568  -0.066  0.00  0.00    +0.015 A 
ATOM     15  C   UNL     1      -4.444   0.278   0.030  0.00  0.00    +0.046 A 
BRANCH  10  16
ATOM     16  O   UNL     1      -6.671   0.980   0.481  0.00  0.00    -0.492 OA
BRANCH  16  18
ATOM     17  C   UNL     1      -8.580  -0.496   0.339  0.00  0.00    +0.048 C 
ATOM     18  C   UNL     1      -7.063  -0.363   0.187  0.00  0.00    +0.225 C 
ENDBRANCH  16  18
ENDBRANCH  10  16
ENDBRANCH   1  13
BRANCH   7  19
ATOM     19  C   UNL     1       1.507  -1.487  -1.263  0.00  0.00    +0.026 A 
ATOM     20  C   UNL     1       0.880  -1.113  -2.436  0.00  0.00    +0.010 A 
ATOM     21  C   UNL     1       1.051  -1.865  -3.583  0.00  0.00    +0.001 A 
ATOM     22  C   UNL     1       1.843  -2.999  -3.558  0.00  0.00    +0.004 A 
ATOM     23  C   UNL     1       2.468  -3.380  -2.386  0.00  0.00    +0.046 A 
ATOM     24  C   UNL     1       2.301  -2.624  -1.235  0.00  0.00    +0.126 A 
BRANCH  24  25
ATOM     25  O   UNL     1       2.916  -2.997  -0.081  0.00  0.00    -0.495 OA
ATOM     26  C   UNL     1       3.718  -4.178  -0.126  0.00  0.00    +0.277 C 
ENDBRANCH  24  25
ENDBRANCH   7  19
TORSDOF 5
