REMARK  Name = ZINC60367717
REMARK  12 active torsions:
REMARK  status: ('A' for Active; 'I' for Inactive)
REMARK    1  A    between atoms: C_1  and  C_2
REMARK    2  A    between atoms: N_7  and  C_9
REMARK    3  A    between atoms: C_9  and  C_10
REMARK    4  A    between atoms: C_9  and  C_11
REMARK    5  A    between atoms: C_9  and  C_12
REMARK    6  A    between atoms: C_12  and  N_13
REMARK    7  A    between atoms: C_14  and  C_16
REMARK    8  A    between atoms: C_18  and  S_27
REMARK    9  A    between atoms: C_21  and  N_22
REMARK   10  A    between atoms: S_27  and  N_30
REMARK   11  A    between atoms: N_30  and  C_31
REMARK   12  A    between atoms: N_30  and  C_32
REMARK                            x       y       z     vdW  Elec       q    Type
REMARK                         _______ _______ _______ _____ _____    ______ ____
ROOT
ATOM      1  C   UNL     1       3.120  -6.062  -0.356  0.00  0.00    +0.060 A 
ATOM      2  C   UNL     1       3.826  -5.095  -1.076  0.00  0.00    +0.043 A 
ATOM      3  C   UNL     1       4.587  -5.467  -2.163  0.00  0.00    +0.106 A 
ATOM      4  C   UNL     1       4.655  -6.797  -2.548  0.00  0.00    +0.030 A 
ATOM      5  C   UNL     1       3.963  -7.763  -1.847  0.00  0.00    +0.026 A 
ATOM      6  C   UNL     1       3.196  -7.409  -0.744  0.00  0.00    +0.042 A 
ENDROOT
BRANCH   6   7
ATOM      7  N   UNL     1       2.504  -8.380  -0.034  0.00  0.00    -0.329 N 
ATOM      8  C   UNL     1       1.133  -8.832  -0.313  0.00  0.00    +0.105 C 
ATOM      9  C   UNL     1       0.778  -9.899   0.745  0.00  0.00    +0.020 C 
ATOM     10  C   UNL     1       1.760  -9.580   1.903  0.00  0.00    +0.020 C 
ATOM     11  C   UNL     1       3.024  -9.134   1.122  0.00  0.00    +0.105 C 
ENDBRANCH   6   7
BRANCH   1  13
ATOM     12  N   UNL     1       2.234  -4.377   1.177  0.00  0.00    -0.313 N 
ATOM     13  C   UNL     1       2.304  -5.671   0.808  0.00  0.00    +0.246 C 
ATOM     14  O   UNL     1       1.695  -6.516   1.435  0.00  0.00    -0.270 OA
ATOM     15  H   UNL     1       2.720  -3.702   0.677  0.00  0.00    +0.149 HD
BRANCH  12  16
ATOM     16  C   UNL     1       1.423  -3.988   2.334  0.00  0.00    +0.092 C 
BRANCH  16  17
ATOM     17  C   UNL     1       1.615  -2.496   2.613  0.00  0.00    -0.055 C 
ATOM     18  C   UNL     1       0.834  -2.107   3.870  0.00  0.00    -0.008 C 
ATOM     19  C   UNL     1       1.102  -1.684   1.422  0.00  0.00    -0.008 C 
BRANCH  17  25
ATOM     20  C   UNL     1       4.900   1.012   3.547  0.00  0.00    +0.005 C 
ATOM     21  C   UNL     1       4.715  -0.476   3.242  0.00  0.00    -0.031 C 
ATOM     22  C   UNL     1       5.305  -1.309   4.384  0.00  0.00    -0.001 C 
ATOM     23  C   UNL     1       5.045  -2.793   4.107  0.00  0.00    -0.018 C 
ATOM     24  C   UNL     1       3.541  -3.019   3.941  0.00  0.00    -0.078 C 
ATOM     25  N   UNL     1       3.043  -2.216   2.818  0.00  0.00    +0.384 N 
ATOM     26  C   UNL     1       3.223  -0.788   3.107  0.00  0.00    -0.075 C 
ATOM     27  H   UNL     1       3.554  -2.455   1.981  0.00  0.00    -0.081 HD
ENDBRANCH  17  25
ENDBRANCH  16  17
ENDBRANCH  12  16
ENDBRANCH   1  13
BRANCH   3  28
ATOM     28  S   UNL     1       5.476  -4.246  -3.069  0.00  0.00    +0.060 S 
ATOM     29  O   UNL     1       5.678  -4.774  -4.373  0.00  0.00    -0.153 OA
ATOM     30  O   UNL     1       4.814  -3.009  -2.843  0.00  0.00    -0.153 OA
BRANCH  28  31
ATOM     31  N   UNL     1       6.974  -4.115  -2.375  0.00  0.00    -0.183 NA
ATOM     32  C   UNL     1       8.076  -4.956  -2.848  0.00  0.00    +0.131 C 
ATOM     33  C   UNL     1       7.196  -3.158  -1.288  0.00  0.00    +0.131 C 
ENDBRANCH  28  31
ENDBRANCH   3  28
TORSDOF 7
