REMARK  Name = ZINC63529044
REMARK  8 active torsions:
REMARK  status: ('A' for Active; 'I' for Inactive)
REMARK    1  A    between atoms: C_4  and  N_7
REMARK    2  A    between atoms: C_8  and  N_35
REMARK    3  A    between atoms: C_10  and  C_14
REMARK    4  A    between atoms: C_14  and  N_15
REMARK    5  A    between atoms: C_18  and  C_21
REMARK    6  A    between atoms: N_23  and  C_24
REMARK    7  A    between atoms: C_24  and  C_25
REMARK    8  A    between atoms: C_25  and  C_26
REMARK                            x       y       z     vdW  Elec       q    Type
REMARK                         _______ _______ _______ _____ _____    ______ ____
ROOT
ATOM      1  N   UNL     1       7.324  -2.986   1.202  0.00  0.00    +0.380 N 
ATOM      2  C   UNL     1       8.085  -1.796   0.804  0.00  0.00    -0.078 C 
ATOM      3  C   UNL     1       9.570  -2.149   0.694  0.00  0.00    -0.006 C 
ATOM      4  C   UNL     1      10.073  -2.648   2.052  0.00  0.00    +0.071 C 
ATOM      5  C   UNL     1       9.223  -3.844   2.491  0.00  0.00    -0.006 C 
ATOM      6  C   UNL     1       7.751  -3.428   2.535  0.00  0.00    -0.078 C 
ATOM      7  H   UNL     1       7.487  -3.726   0.536  0.00  0.00    -0.082 HD
ENDROOT
BRANCH   4   8
ATOM      8  C   UNL     1      11.514  -3.071   1.931  0.00  0.00    +0.216 C 
ATOM      9  O   UNL     1      12.085  -2.982   0.865  0.00  0.00    -0.276 OA
ATOM     10  N   UNL     1      12.169  -3.547   3.008  0.00  0.00    -0.315 N 
ATOM     11  H   UNL     1      11.713  -3.618   3.861  0.00  0.00    +0.149 HD
BRANCH  10  12
ATOM     12  C   UNL     1      13.570  -3.958   2.891  0.00  0.00    +0.108 C 
BRANCH  12  13
ATOM     13  C   UNL     1      14.071  -4.457   4.248  0.00  0.00    +0.052 C 
BRANCH  13  14
ATOM     14  C   UNL     1      15.512  -4.880   4.127  0.00  0.00    -0.040 C 
ATOM     15  C   UNL     1      16.605  -4.134   4.409  0.00  0.00    -0.001 A 
ATOM     16  C   UNL     1      16.772  -2.759   4.893  0.00  0.00    +0.010 A 
ATOM     17  C   UNL     1      18.022  -2.278   5.085  0.00  0.00    +0.001 A 
ATOM     18  C   UNL     1      19.158  -3.058   4.833  0.00  0.00    +0.002 A 
ATOM     19  C   UNL     1      19.085  -4.330   4.387  0.00  0.00    +0.026 A 
ATOM     20  C   UNL     1      17.821  -4.938   4.151  0.00  0.00    +0.043 A 
ATOM     21  N   UNL     1      17.493  -6.134   3.726  0.00  0.00    -0.380 N 
ATOM     22  C   UNL     1      16.030  -6.226   3.672  0.00  0.00    +0.144 C 
ATOM     23  H   UNL     1      18.114  -6.841   3.490  0.00  0.00    +0.160 HD
ENDBRANCH  13  14
ENDBRANCH  12  13
ENDBRANCH  10  12
ENDBRANCH   4   8
BRANCH   1  24
ATOM     24  C   UNL     1       5.891  -2.663   1.231  0.00  0.00    -0.070 C 
BRANCH  24  27
ATOM     25  N   UNL     1       2.998  -3.920   0.298  0.00  0.00    -0.244 N 
ATOM     26  C   UNL     1       3.575  -3.625   1.619  0.00  0.00    +0.192 C 
ATOM     27  C   UNL     1       5.085  -3.938   1.488  0.00  0.00    +0.030 C 
ATOM     28  C   UNL     1       5.093  -4.865   0.242  0.00  0.00    +0.107 C 
ATOM     29  N   UNL     1       3.991  -4.294  -0.570  0.00  0.00    -0.238 NA
ATOM     30  H   UNL     1       4.315  -3.505  -1.111  0.00  0.00    +0.144 HD
BRANCH  25  34
ATOM     31  C   UNL     1      -1.047  -3.674  -0.655  0.00  0.00    +0.000 A 
ATOM     32  C   UNL     1      -0.134  -4.064  -1.618  0.00  0.00    +0.002 A 
ATOM     33  C   UNL     1       1.208  -4.146  -1.305  0.00  0.00    +0.024 A 
ATOM     34  C   UNL     1       1.641  -3.837  -0.022  0.00  0.00    +0.047 A 
ATOM     35  C   UNL     1       0.721  -3.446   0.943  0.00  0.00    +0.024 A 
ATOM     36  C   UNL     1      -0.620  -3.366   0.623  0.00  0.00    +0.002 A 
ENDBRANCH  25  34
BRANCH  26  37
ATOM     37  N   UNL     1       3.375  -2.213   1.956  0.00  0.00    -0.333 N 
ATOM     38  C   UNL     1       3.458  -1.169   1.084  0.00  0.00    +0.087 A 
ATOM     39  C   UNL     1       3.213  -0.031   1.765  0.00  0.00    +0.019 A 
ATOM     40  C   UNL     1       2.970  -0.386   3.106  0.00  0.00    +0.019 A 
ATOM     41  C   UNL     1       3.070  -1.728   3.193  0.00  0.00    +0.087 A 
ENDBRANCH  26  37
ENDBRANCH  24  27
ENDBRANCH   1  24
TORSDOF 8
