REMARK  Name = ZINC64480026
REMARK  4 active torsions:
REMARK  status: ('A' for Active; 'I' for Inactive)
REMARK    1  A    between atoms: C_6  and  C_11
REMARK    2  A    between atoms: C_11  and  C_12
REMARK    3  A    between atoms: C_12  and  N_13
REMARK    4  A    between atoms: C_14  and  C_16
REMARK                            x       y       z     vdW  Elec       q    Type
REMARK                         _______ _______ _______ _____ _____    ______ ____
ROOT
ATOM      1  N   UNL     1       5.009  -3.577  -1.544  0.00  0.00    -0.315 N 
ATOM      2  C   UNL     1       5.333  -4.181  -2.705  0.00  0.00    +0.216 C 
ATOM      3  O   UNL     1       5.226  -3.580  -3.752  0.00  0.00    -0.276 OA
ATOM      4  H   UNL     1       5.095  -4.059  -0.706  0.00  0.00    +0.149 HD
ENDROOT
BRANCH   2   5
ATOM      5  C   UNL     1       5.829  -5.604  -2.701  0.00  0.00    +0.078 C 
ATOM      6  C   UNL     1       4.759  -6.515  -2.094  0.00  0.00    +0.031 C 
ATOM      7  C   UNL     1       5.280  -7.955  -2.060  0.00  0.00    +0.107 C 
ATOM      8  N   UNL     1       5.702  -8.338  -3.414  0.00  0.00    -0.316 N 
ATOM      9  C   UNL     1       6.660  -7.481  -4.125  0.00  0.00    +0.107 C 
ATOM     10  C   UNL     1       6.123  -6.046  -4.136  0.00  0.00    +0.031 C 
ATOM     11  C   UNL     1       5.218  -9.456  -3.994  0.00  0.00    +0.133 C 
ATOM     12  N   UNL     1       5.497  -9.749  -5.252  0.00  0.00    -0.204 NA
ATOM     13  C   UNL     1       5.144 -10.894  -5.833  0.00  0.00    +0.226 C 
ATOM     14  N   UNL     1       4.774 -11.958  -5.133  0.00  0.00    -0.200 NA
ATOM     15  C   UNL     1       4.561 -11.793  -3.838  0.00  0.00    +0.165 C 
ATOM     16  N   UNL     1       4.550 -12.588  -2.806  0.00  0.00    -0.218 NA
ATOM     17  C   UNL     1       4.732 -11.905  -1.668  0.00  0.00    +0.218 C 
ATOM     18  N   UNL     1       4.671 -10.611  -1.831  0.00  0.00    -0.253 NA
ATOM     19  C   UNL     1       4.354 -10.411  -3.234  0.00  0.00    +0.237 C 
ATOM     20 CL   UNL     1       5.168 -10.997  -7.566  0.00  0.00    -0.041 Cl
ENDBRANCH   2   5
BRANCH   1  21
ATOM     21  C   UNL     1       4.527  -2.194  -1.548  0.00  0.00    +0.108 C 
BRANCH  21  22
ATOM     22  C   UNL     1       4.232  -1.752  -0.113  0.00  0.00    +0.052 C 
BRANCH  22  28
ATOM     23  C   UNL     1       0.009   1.464  -0.139  0.00  0.00    +0.022 A 
ATOM     24  C   UNL     1       1.140   2.200  -0.133  0.00  0.00    +0.027 A 
ATOM     25  C   UNL     1       2.412   1.563  -0.126  0.00  0.00    +0.043 A 
ATOM     26  N   UNL     1       3.630   2.047  -0.120  0.00  0.00    -0.380 N 
ATOM     27  C   UNL     1       4.578   0.927  -0.115  0.00  0.00    +0.144 C 
ATOM     28  C   UNL     1       3.736  -0.329  -0.117  0.00  0.00    -0.040 C 
ATOM     29  C   UNL     1       2.448   0.083  -0.124  0.00  0.00    +0.000 A 
ATOM     30  C   UNL     1       1.173  -0.643  -0.130  0.00  0.00    +0.030 A 
ATOM     31  C   UNL     1       0.017   0.062  -0.137  0.00  0.00    +0.042 A 
ATOM     32 CL   UNL     1      -1.494  -0.793  -0.144  0.00  0.00    -0.084 Cl
ATOM     33  H   UNL     1       3.866   2.988  -0.120  0.00  0.00    +0.160 HD
ENDBRANCH  22  28
ENDBRANCH  21  22
ENDBRANCH   1  21
TORSDOF 4
