REMARK  Name = ZINC28631715
REMARK  9 active torsions:
REMARK  status: ('A' for Active; 'I' for Inactive)
REMARK    1  A    between atoms: C_1  and  C_2
REMARK    2  A    between atoms: C_4  and  O_33
REMARK    3  A    between atoms: C_10  and  C_12
REMARK    4  A    between atoms: C_12  and  C_14
REMARK    5  A    between atoms: C_12  and  N_21
REMARK    6  A    between atoms: C_14  and  C_15
REMARK    7  A    between atoms: C_15  and  C_16
REMARK    8  A    between atoms: C_16  and  N_17
REMARK    9  A    between atoms: C_22  and  C_24
REMARK                            x       y       z     vdW  Elec       q    Type
REMARK                         _______ _______ _______ _____ _____    ______ ____
ROOT
ATOM      1  C   UNL     1       0.293  -3.057   7.162  0.00  0.00    +0.159 C 
ENDROOT
BRANCH   1  11
ATOM      2  C   UNL     1       0.634   1.411  -0.041  0.00  0.00    +0.045 C 
ATOM      3  C   UNL     1       0.149  -0.015  -0.005  0.00  0.00    -0.033 A 
ATOM      4  C   UNL     1      -0.288  -0.642  -1.155  0.00  0.00    +0.091 A 
ATOM      5  C   UNL     1      -0.730  -1.956  -1.102  0.00  0.00    +0.285 A 
ATOM      6  O   UNL     1      -0.745  -2.639   0.047  0.00  0.00    -0.425 OA
ATOM      7  C   UNL     1      -0.330  -2.076   1.200  0.00  0.00    +0.141 A 
ATOM      8  C   UNL     1      -0.350  -2.795   2.382  0.00  0.00    +0.070 A 
ATOM      9  C   UNL     1       0.085  -2.195   3.565  0.00  0.00    +0.037 A 
ATOM     10  N   UNL     1       0.065  -2.900   4.729  0.00  0.00    -0.284 N 
ATOM     11  C   UNL     1       0.162  -2.270   5.883  0.00  0.00    +0.238 C 
ATOM     12  O   UNL     1       0.146  -1.052   5.916  0.00  0.00    -0.273 OA
ATOM     13  C   UNL     1       0.542  -0.865   3.560  0.00  0.00    +0.024 A 
ATOM     14  C   UNL     1       0.567  -0.150   2.405  0.00  0.00    +0.013 A 
ATOM     15  C   UNL     1       0.137  -0.743   1.204  0.00  0.00    +0.021 A 
ATOM     16  H   UNL     1      -0.019  -3.866   4.709  0.00  0.00    +0.155 HD
BRANCH   5  17
ATOM     17  O   UNL     1      -1.153  -2.555  -2.232  0.00  0.00    -0.480 OA
ATOM     18  H   UNL     1      -1.444  -3.469  -2.107  0.00  0.00    +0.295 HD
ENDBRANCH   5  17
ENDBRANCH   1  11
BRANCH   1  19
ATOM     19  N   UNL     1       0.851  -2.197   8.209  0.00  0.00    -0.300 N 
ATOM     20  C   UNL     1       0.198  -1.078   8.581  0.00  0.00    +0.245 C 
ATOM     21  O   UNL     1      -0.853  -0.781   8.047  0.00  0.00    -0.270 OA
ATOM     22  H   UNL     1       1.689  -2.434   8.635  0.00  0.00    +0.150 HD
BRANCH  20  23
ATOM     23  C   UNL     1       0.761  -0.210   9.637  0.00  0.00    +0.037 A 
ATOM     24  C   UNL     1       1.971  -0.545  10.248  0.00  0.00    +0.013 A 
ATOM     25  C   UNL     1       2.490   0.269  11.233  0.00  0.00    +0.001 A 
ATOM     26  C   UNL     1       1.815   1.415  11.616  0.00  0.00    +0.000 A 
ATOM     27  C   UNL     1       0.616   1.752  11.015  0.00  0.00    +0.001 A 
ATOM     28  C   UNL     1       0.088   0.950  10.024  0.00  0.00    +0.013 A 
ENDBRANCH  20  23
ENDBRANCH   1  19
BRANCH   1  29
ATOM     29  C   UNL     1      -1.086  -3.559   7.595  0.00  0.00    +0.033 C 
BRANCH  29  30
ATOM     30  C   UNL     1      -0.938  -4.460   8.823  0.00  0.00    +0.023 C 
BRANCH  30  31
ATOM     31  C   UNL     1      -2.317  -4.963   9.256  0.00  0.00    +0.115 C 
BRANCH  31  32
ATOM     32  N   UNL     1      -2.175  -5.826  10.431  0.00  0.00    -0.358 N 
ATOM     33  C   UNL     1      -3.281  -6.394  10.999  0.00  0.00    +0.166 C 
ATOM     34  N   UNL     1      -3.153  -7.179  12.068  0.00  0.00    -0.372 N 
ATOM     35  N   UNL     1      -4.488  -6.163  10.484  0.00  0.00    -0.372 N 
ATOM     36  H   UNL     1      -1.296  -5.994  10.806  0.00  0.00    +0.162 HD
ATOM     37  H   UNL     1      -2.274  -7.347  12.443  0.00  0.00    +0.159 HD
ATOM     38  H   UNL     1      -4.582  -5.592   9.706  0.00  0.00    +0.159 HD
ATOM     39  H   UNL     1      -5.273  -6.567  10.887  0.00  0.00    +0.159 HD
ATOM     40  H   UNL     1      -3.938  -7.582  12.471  0.00  0.00    +0.159 HD
ENDBRANCH  31  32
ENDBRANCH  30  31
ENDBRANCH  29  30
ENDBRANCH   1  29
TORSDOF 8
