REMARK  Name = ZINC40761027
REMARK  3 active torsions:
REMARK  status: ('A' for Active; 'I' for Inactive)
REMARK    1  A    between atoms: C_12  and  N_25
REMARK    2  A    between atoms: C_13  and  N_17
REMARK    3  A    between atoms: N_17  and  C_18
REMARK                            x       y       z     vdW  Elec       q    Type
REMARK                         _______ _______ _______ _____ _____    ______ ____
ROOT
ATOM      1  C   UNL     1       0.041   1.378   0.623  0.00  0.00    +0.002 A 
ATOM      2  C   UNL     1       1.188   2.113   0.359  0.00  0.00    +0.001 A 
ATOM      3  C   UNL     1       2.387   1.452   0.167  0.00  0.00    +0.017 A 
ATOM      4  C   UNL     1       2.424   0.082   0.240  0.00  0.00    +0.041 A 
ATOM      5  C   UNL     1       1.277  -0.699   0.508  0.00  0.00    +0.080 A 
ATOM      6  C   UNL     1       0.069   0.010   0.699  0.00  0.00    +0.029 A 
ATOM      7  N   UNL     1       1.475  -2.035   0.548  0.00  0.00    -0.225 NA
ATOM      8  C   UNL     1       2.654  -2.579   0.352  0.00  0.00    +0.165 A 
ATOM      9  S   UNL     1       3.691  -1.152   0.068  0.00  0.00    -0.052 S 
ATOM     10  N   UNL     1       3.004  -3.916   0.363  0.00  0.00    -0.277 N 
ATOM     11  C   UNL     1       4.324  -4.292   0.130  0.00  0.00    +0.150 A 
ATOM     12  C   UNL     1       4.688  -5.640   0.132  0.00  0.00    +0.106 A 
ATOM     13  C   UNL     1       6.026  -5.962  -0.107  0.00  0.00    +0.149 A 
ATOM     14  N   UNL     1       6.896  -4.979  -0.326  0.00  0.00    -0.219 NA
ATOM     15  C   UNL     1       6.510  -3.719  -0.320  0.00  0.00    +0.225 A 
ATOM     16  N   UNL     1       5.257  -3.373  -0.104  0.00  0.00    -0.219 NA
ATOM     17  H   UNL     1       2.330  -4.593   0.532  0.00  0.00    +0.156 HD
ENDROOT
BRANCH  12  18
ATOM     18  N   UNL     1       3.736  -6.643   0.369  0.00  0.00    -0.353 N 
ATOM     19  H   UNL     1       2.810  -6.405   0.534  0.00  0.00    +0.143 HD
ATOM     20  H   UNL     1       4.004  -7.576   0.368  0.00  0.00    +0.143 HD
ENDBRANCH  12  18
BRANCH  13  21
ATOM     21  N   UNL     1       6.442  -7.288  -0.115  0.00  0.00    -0.298 N 
ATOM     22  H   UNL     1       5.790  -8.002  -0.037  0.00  0.00    +0.154 HD
BRANCH  21  23
ATOM     23  C   UNL     1       7.801  -7.593  -0.235  0.00  0.00    +0.032 A 
ATOM     24  C   UNL     1       8.202  -8.714  -0.952  0.00  0.00    +0.024 A 
ATOM     25  C   UNL     1       9.545  -9.012  -1.069  0.00  0.00    +0.016 A 
ATOM     26  C   UNL     1      10.491  -8.198  -0.473  0.00  0.00    +0.013 A 
ATOM     27  C   UNL     1      10.095  -7.081   0.242  0.00  0.00    +0.016 A 
ATOM     28  C   UNL     1       8.753  -6.773   0.357  0.00  0.00    +0.024 A 
ATOM     29  I   UNL     1      12.527  -8.655  -0.652  0.00  0.00    -0.044 I 
ENDBRANCH  21  23
ENDBRANCH  13  21
TORSDOF 3
