REMARK  Name = ZINC15018349
REMARK  4 active torsions:
REMARK  status: ('A' for Active; 'I' for Inactive)
REMARK    1  A    between atoms: C_1  and  N_2
REMARK    2  A    between atoms: C_6  and  N_23
REMARK    3  A    between atoms: N_10  and  N_11
REMARK    4  A    between atoms: C_12  and  C_14
REMARK                            x       y       z     vdW  Elec       q    Type
REMARK                         _______ _______ _______ _____ _____    ______ ____
ROOT
ATOM      1  C   UNL     1      -0.018   1.461   0.010  0.00  0.00    +0.138 C 
ATOM      2  N   UNL     1       0.002  -0.004   0.002  0.00  0.00    -0.269 N 
ATOM      3  C   UNL     1      -1.136  -0.803   0.003  0.00  0.00    +0.046 A 
ATOM      4  C   UNL     1      -2.490  -0.482   0.012  0.00  0.00    +0.026 A 
ATOM      5  C   UNL     1      -3.439  -1.485   0.012  0.00  0.00    +0.034 A 
ATOM      6  C   UNL     1      -3.058  -2.816   0.003  0.00  0.00    +0.127 A 
ATOM      7  C   UNL     1      -1.720  -3.153  -0.006  0.00  0.00    +0.044 A 
ATOM      8  C   UNL     1      -0.756  -2.151  -0.006  0.00  0.00    +0.031 A 
ATOM      9  C   UNL     1       0.725  -2.168  -0.013  0.00  0.00    +0.153 C 
ATOM     10  N   UNL     1       1.512  -3.217  -0.023  0.00  0.00    -0.174 NA
ATOM     11  C   UNL     1       1.123  -0.746  -0.013  0.00  0.00    +0.271 C 
ATOM     12  O   UNL     1       2.263  -0.321  -0.023  0.00  0.00    -0.268 OA
ENDROOT
BRANCH  10  13
ATOM     13  N   UNL     1       2.903  -3.050  -0.028  0.00  0.00    -0.202 N 
ATOM     14  C   UNL     1       3.711  -4.128  -0.038  0.00  0.00    +0.265 C 
ATOM     15  O   UNL     1       3.234  -5.245  -0.042  0.00  0.00    -0.268 OA
ATOM     16  H   UNL     1       3.284  -2.158  -0.025  0.00  0.00    +0.178 HD
BRANCH  14  17
ATOM     17  C   UNL     1       5.177  -3.951  -0.044  0.00  0.00    +0.057 A 
ATOM     18  C   UNL     1       5.730  -2.668  -0.034  0.00  0.00    +0.014 A 
ATOM     19  C   UNL     1       7.099  -2.511  -0.040  0.00  0.00    +0.001 A 
ATOM     20  C   UNL     1       7.928  -3.620  -0.055  0.00  0.00    +0.001 A 
ATOM     21  C   UNL     1       7.389  -4.894  -0.066  0.00  0.00    +0.021 A 
ATOM     22  C   UNL     1       6.019  -5.067  -0.054  0.00  0.00    +0.053 A 
ATOM     23 CL   UNL     1       5.344  -6.667  -0.059  0.00  0.00    -0.083 Cl
ENDBRANCH  14  17
ENDBRANCH  10  13
BRANCH   6  24
ATOM     24  N   UNL     1      -4.089  -3.879   0.004  0.00  0.00    +0.056 N 
ATOM     25  O   UNL     1      -5.261  -3.584   0.013  0.00  0.00    -0.126 OA
ATOM     26  O   UNL     1      -3.757  -5.042  -0.003  0.00  0.00    -0.126 OA
ENDBRANCH   6  24
TORSDOF 3
