REMARK  Name = ZINC30599614
REMARK  7 active torsions:
REMARK  status: ('A' for Active; 'I' for Inactive)
REMARK    1  A    between atoms: C_1  and  C_2
REMARK    2  A    between atoms: C_3  and  C_16
REMARK    3  A    between atoms: N_14  and  C_15
REMARK    4  A    between atoms: C_16  and  C_17
REMARK    5  A    between atoms: C_17  and  C_18
REMARK    6  A    between atoms: N_20  and  C_21
REMARK    7  A    between atoms: C_21  and  C_22
REMARK                            x       y       z     vdW  Elec       q    Type
REMARK                         _______ _______ _______ _____ _____    ______ ____
ROOT
ATOM      1  C   UNL     1       0.461   8.991   1.908  0.00  0.00    +0.050 C 
ENDROOT
BRANCH   1   4
ATOM      2  C   UNL     1      -0.067  11.416   0.438  0.00  0.00    +0.045 C 
ATOM      3  C   UNL     1       1.348  11.017   0.768  0.00  0.00    -0.026 A 
ATOM      4  C   UNL     1       1.600   9.871   1.462  0.00  0.00    +0.021 A 
ATOM      5  C   UNL     1       2.924   9.517   1.766  0.00  0.00    +0.254 A 
ATOM      6  O   UNL     1       3.145   8.494   2.392  0.00  0.00    -0.268 OA
ATOM      7  N   UNL     1       3.954  10.289   1.372  0.00  0.00    -0.307 N 
ATOM      8  H   UNL     1       4.986   9.992   1.611  0.00  0.00    +0.170 HD
ATOM      9  C   UNL     1       3.737  11.437   0.678  0.00  0.00    +0.141 A 
ATOM     10  C   UNL     1       2.429  11.821   0.364  0.00  0.00    +0.086 A 
ATOM     11  C   UNL     1       2.527  13.085  -0.377  0.00  0.00    +0.274 A 
ATOM     12  O   UNL     1       1.602  13.737  -0.824  0.00  0.00    -0.266 OA
ATOM     13  N   UNL     1       3.840  13.383  -0.466  0.00  0.00    -0.262 N 
ATOM     14  H   UNL     1       4.162  14.298  -0.986  0.00  0.00    +0.190 HD
ATOM     15  N   UNL     1       4.580  12.385   0.173  0.00  0.00    -0.271 N 
ATOM     16  C   UNL     1       6.041  12.359   0.285  0.00  0.00    +0.172 C 
ENDBRANCH   1   4
BRANCH   1  17
ATOM     17  C   UNL     1       0.239   7.883   0.876  0.00  0.00    +0.100 C 
BRANCH  17  18
ATOM     18  C   UNL     1      -0.900   7.003   1.321  0.00  0.00    +0.213 C 
ATOM     19  O   UNL     1      -1.477   7.238   2.361  0.00  0.00    -0.276 OA
ATOM     20  N   UNL     1      -1.277   5.954   0.563  0.00  0.00    -0.315 N 
ATOM     21  H   UNL     1      -0.753   5.740  -0.380  0.00  0.00    +0.149 HD
BRANCH  20  22
ATOM     22  C   UNL     1      -2.384   5.098   0.996  0.00  0.00    +0.112 C 
BRANCH  22  23
ATOM     23  C   UNL     1      -2.690   4.069  -0.094  0.00  0.00    +0.036 C 
ATOM     24  C   UNL     1      -3.142   4.796  -1.359  0.00  0.00    +0.010 C 
ATOM     25  C   UNL     1      -3.649   3.753  -2.362  0.00  0.00    +0.005 C 
ATOM     26  C   UNL     1      -4.961   3.175  -1.836  0.00  0.00    +0.035 C 
ATOM     27  C   UNL     1      -4.800   2.711  -0.412  0.00  0.00    -0.044 A 
ATOM     28  C   UNL     1      -3.765   3.133   0.393  0.00  0.00    -0.040 A 
ATOM     29  C   UNL     1      -3.686   2.683   1.704  0.00  0.00    +0.004 A 
ATOM     30  C   UNL     1      -4.636   1.819   2.208  0.00  0.00    +0.000 A 
ATOM     31  C   UNL     1      -5.676   1.397   1.401  0.00  0.00    +0.000 A 
ATOM     32  C   UNL     1      -5.757   1.843   0.098  0.00  0.00    +0.004 A 
ENDBRANCH  22  23
ENDBRANCH  20  22
ENDBRANCH  17  18
ENDBRANCH   1  17
TORSDOF 5
