REMARK  Name = ZINC21755498
REMARK  11 active torsions:
REMARK  status: ('A' for Active; 'I' for Inactive)
REMARK    1  A    between atoms: C_1  and  O_2
REMARK    2  A    between atoms: O_2  and  C_3
REMARK    3  A    between atoms: C_6  and  C_9
REMARK    4  A    between atoms: C_12  and  C_15
REMARK    5  A    between atoms: C_20  and  C_22
REMARK    6  A    between atoms: C_22  and  O_23
REMARK    7  A    between atoms: O_23  and  C_24
REMARK    8  A    between atoms: C_24  and  C_26
REMARK    9  A    between atoms: C_26  and  C_27
REMARK   10  A    between atoms: C_27  and  C_29
REMARK   11  A    between atoms: C_27  and  N_35
REMARK                            x       y       z     vdW  Elec       q    Type
REMARK                         _______ _______ _______ _____ _____    ______ ____
ROOT
ATOM      1  C   UNL     1      -9.591   7.816  -3.770  0.00  0.00    +0.069 C 
ATOM      2  N   UNL     1      -8.551   7.218  -3.302  0.00  0.00    -0.181 NA
ATOM      3  N   UNL     1      -7.782   6.574  -4.269  0.00  0.00    -0.179 N 
ATOM      4  C   UNL     1      -8.405   6.779  -5.587  0.00  0.00    +0.173 C 
ATOM      5  C   UNL     1      -9.653   7.626  -5.268  0.00  0.00    +0.090 C 
ATOM      6  C   UNL     1      -6.650   5.880  -4.037  0.00  0.00    +0.273 C 
ATOM      7  O   UNL     1      -6.058   5.358  -4.959  0.00  0.00    -0.270 OA
ENDROOT
BRANCH   1  11
ATOM      8  C   UNL     1     -12.412   9.989  -1.458  0.00  0.00    +0.120 A 
ATOM      9  C   UNL     1     -11.327   9.385  -0.837  0.00  0.00    +0.046 A 
ATOM     10  C   UNL     1     -10.409   8.678  -1.583  0.00  0.00    +0.013 A 
ATOM     11  C   UNL     1     -10.571   8.570  -2.967  0.00  0.00    -0.002 A 
ATOM     12  C   UNL     1     -11.662   9.185  -3.588  0.00  0.00    +0.013 A 
ATOM     13  C   UNL     1     -12.578   9.885  -2.834  0.00  0.00    +0.046 A 
BRANCH   8  15
ATOM     14  C   UNL     1     -14.407  11.282  -1.421  0.00  0.00    +0.277 C 
ATOM     15  O   UNL     1     -13.315  10.685  -0.719  0.00  0.00    -0.495 OA
ENDBRANCH   8  15
ENDBRANCH   1  11
BRANCH   4  16
ATOM     16  C   UNL     1      -7.472   7.529  -6.503  0.00  0.00    +0.128 A 
ATOM     17  C   UNL     1      -7.308   7.300  -7.818  0.00  0.00    +0.046 A 
ATOM     18  C   UNL     1      -6.345   8.227  -8.278  0.00  0.00    +0.041 A 
ATOM     19  C   UNL     1      -5.978   8.967  -7.217  0.00  0.00    +0.195 A 
ATOM     20  O   UNL     1      -6.668   8.544  -6.146  0.00  0.00    -0.466 OA
ENDBRANCH   4  16
BRANCH   6  21
ATOM     21  C   UNL     1      -6.119   5.754  -2.633  0.00  0.00    +0.329 C 
BRANCH  21  22
ATOM     22  O   UNL     1      -4.899   4.966  -2.646  0.00  0.00    -0.455 OA
BRANCH  22  23
ATOM     23  C   UNL     1      -4.295   4.759  -1.465  0.00  0.00    +0.310 C 
ATOM     24  O   UNL     1      -4.770   5.220  -0.454  0.00  0.00    -0.251 OA
BRANCH  23  25
ATOM     25  C   UNL     1      -3.024   3.951  -1.401  0.00  0.00    +0.147 C 
BRANCH  25  26
ATOM     26  C   UNL     1      -2.547   3.866   0.051  0.00  0.00    +0.115 C 
BRANCH  26  27
ATOM     27  N   UNL     1      -3.524   3.116   0.843  0.00  0.00    -0.292 N 
ATOM     28  C   UNL     1      -3.783   1.826   0.548  0.00  0.00    +0.298 C 
ATOM     29  O   UNL     1      -3.146   1.261  -0.319  0.00  0.00    -0.253 OA
ATOM     30  N   UNL     1      -4.748   1.163   1.216  0.00  0.00    -0.313 N 
ATOM     31  H   UNL     1      -4.047   3.604   1.679  0.00  0.00    +0.151 HD
ATOM     32  H   UNL     1      -4.959   0.111   0.976  0.00  0.00    +0.146 HD
ATOM     33  H   UNL     1      -5.324   1.674   2.001  0.00  0.00    +0.146 HD
ENDBRANCH  26  27
BRANCH  26  34
ATOM     34  C   UNL     1      -1.214   3.164   0.101  0.00  0.00    -0.027 A 
ATOM     35  C   UNL     1      -0.427   3.093  -1.033  0.00  0.00    +0.005 A 
ATOM     36  C   UNL     1       0.793   2.445  -0.988  0.00  0.00    +0.000 A 
ATOM     37  C   UNL     1       1.231   1.878   0.194  0.00  0.00    +0.000 A 
ATOM     38  C   UNL     1       0.447   1.954   1.329  0.00  0.00    +0.000 A 
ATOM     39  C   UNL     1      -0.776   2.597   1.283  0.00  0.00    +0.005 A 
ENDBRANCH  26  34
ENDBRANCH  25  26
ENDBRANCH  23  25
ENDBRANCH  22  23
ENDBRANCH  21  22
ENDBRANCH   6  21
TORSDOF 10
