REMARK  Name = ZINC59815686
REMARK  7 active torsions:
REMARK  status: ('A' for Active; 'I' for Inactive)
REMARK    1  A    between atoms: C_1  and  C_2
REMARK    2  A    between atoms: C_9  and  C_11
REMARK    3  A    between atoms: C_11  and  S_12
REMARK    4  A    between atoms: S_12  and  C_13
REMARK    5  A    between atoms: N_18  and  N_19
REMARK    6  A    between atoms: C_20  and  C_21
REMARK    7  A    between atoms: C_26  and  O_27
REMARK                            x       y       z     vdW  Elec       q    Type
REMARK                         _______ _______ _______ _____ _____    ______ ____
ROOT
ATOM      1  C   UNL     1       3.777   0.514   5.386  0.00  0.00    +0.211 A 
ATOM      2  N   UNL     1       4.374   1.157   6.396  0.00  0.00    -0.186 NA
ATOM      3  C   UNL     1       5.101   0.309   7.092  0.00  0.00    +0.232 A 
ATOM      4  N   UNL     1       4.977  -0.911   6.526  0.00  0.00    -0.245 N 
ATOM      5  N   UNL     1       4.114  -0.753   5.429  0.00  0.00    -0.144 NA
ATOM      6  N   UNL     1       5.860   0.613   8.207  0.00  0.00    -0.205 N 
ATOM      7  H   UNL     1       6.365  -0.083   8.655  0.00  0.00    +0.177 HD
ATOM      8  H   UNL     1       5.398  -1.734   6.820  0.00  0.00    +0.192 HD
ENDROOT
BRANCH   6   9
ATOM      9  N   UNL     1       5.899   1.928   8.690  0.00  0.00    -0.187 NA
ATOM     10  C   UNL     1       6.612   2.214   9.737  0.00  0.00    +0.142 C 
BRANCH  10  11
ATOM     11  C   UNL     1       6.653   3.597  10.245  0.00  0.00    +0.039 A 
ATOM     12  C   UNL     1       7.423   3.909  11.368  0.00  0.00    +0.033 A 
ATOM     13  C   UNL     1       7.458   5.206  11.839  0.00  0.00    +0.043 A 
ATOM     14  C   UNL     1       6.732   6.200  11.202  0.00  0.00    +0.043 A 
ATOM     15  C   UNL     1       5.965   5.902  10.090  0.00  0.00    +0.084 A 
ATOM     16  C   UNL     1       5.925   4.605   9.601  0.00  0.00    +0.144 A 
ATOM     17 CL   UNL     1       5.059   7.154   9.301  0.00  0.00    -0.080 Cl
ATOM     18 CL   UNL     1       8.415   5.594  13.234  0.00  0.00    -0.083 Cl
BRANCH  16  19
ATOM     19  O   UNL     1       5.178   4.313   8.504  0.00  0.00    -0.505 OA
ATOM     20  H   UNL     1       4.267   4.058   8.706  0.00  0.00    +0.292 HD
ENDBRANCH  16  19
ENDBRANCH  10  11
ENDBRANCH   6   9
BRANCH   1  21
ATOM     21  S   UNL     1       2.707   1.249   4.195  0.00  0.00    -0.075 S 
BRANCH  21  22
ATOM     22  C   UNL     1       2.232  -0.133   3.120  0.00  0.00    +0.173 C 
BRANCH  22  30
ATOM     23  C   UNL     1       0.008   1.528  -0.006  0.00  0.00    +0.028 C 
ATOM     24  C   UNL     1       0.016  -0.002  -0.007  0.00  0.00    +0.073 C 
ATOM     25  C   UNL     1       0.633  -0.512  -1.313  0.00  0.00    +0.022 C 
ATOM     26  C   UNL     1       0.765  -2.035  -1.250  0.00  0.00    +0.003 C 
ATOM     27  C   UNL     1       1.692  -2.421  -0.095  0.00  0.00    +0.019 C 
ATOM     28  C   UNL     1       1.087  -1.933   1.225  0.00  0.00    +0.108 C 
ATOM     29  N   UNL     1       0.819  -0.492   1.122  0.00  0.00    -0.298 N 
ATOM     30  C   UNL     1       1.304   0.365   2.042  0.00  0.00    +0.226 C 
ATOM     31  O   UNL     1       0.994   1.537   2.003  0.00  0.00    -0.275 OA
ENDBRANCH  22  30
ENDBRANCH  21  22
ENDBRANCH   1  21
TORSDOF 6
