REMARK  Name = ZINC41014100
REMARK  8 active torsions:
REMARK  status: ('A' for Active; 'I' for Inactive)
REMARK    1  A    between atoms: C_1  and  C_2
REMARK    2  A    between atoms: C_5  and  O_9
REMARK    3  A    between atoms: C_7  and  C_8
REMARK    4  A    between atoms: O_9  and  C_10
REMARK    5  A    between atoms: C_10  and  C_12
REMARK    6  A    between atoms: C_10  and  C_13
REMARK    7  A    between atoms: N_15  and  C_16
REMARK    8  A    between atoms: C_25  and  C_28
REMARK                            x       y       z     vdW  Elec       q    Type
REMARK                         _______ _______ _______ _____ _____    ______ ____
ROOT
ATOM      1  C   UNL     1      -0.705  -6.144  -1.117  0.00  0.00    +0.258 C 
ATOM      2  O   UNL     1      -1.008  -6.558  -0.018  0.00  0.00    -0.271 OA
ATOM      3  N   UNL     1      -1.071  -6.827  -2.219  0.00  0.00    -0.282 N 
ATOM      4  H   UNL     1      -0.767  -6.536  -3.093  0.00  0.00    +0.155 HD
ENDROOT
BRANCH   3   5
ATOM      5  C   UNL     1      -1.891  -7.957  -2.103  0.00  0.00    +0.035 A 
ATOM      6  C   UNL     1      -2.859  -8.013  -1.109  0.00  0.00    +0.027 A 
ATOM      7  C   UNL     1      -3.670  -9.126  -0.990  0.00  0.00    +0.049 A 
ATOM      8  C   UNL     1      -3.518 -10.189  -1.864  0.00  0.00    +0.143 A 
ATOM      9  C   UNL     1      -2.546 -10.136  -2.862  0.00  0.00    +0.077 A 
ATOM     10  C   UNL     1      -1.738  -9.019  -2.985  0.00  0.00    +0.050 A 
ATOM     11  N   UNL     1      -2.404 -11.222  -3.738  0.00  0.00    -0.279 N 
ATOM     12  C   UNL     1      -3.391 -12.141  -3.808  0.00  0.00    +0.258 C 
ATOM     13  O   UNL     1      -3.276 -13.103  -4.537  0.00  0.00    -0.271 OA
ATOM     14  C   UNL     1      -4.637 -11.965  -2.978  0.00  0.00    +0.256 C 
ATOM     15  O   UNL     1      -4.310 -11.290  -1.760  0.00  0.00    -0.478 OA
ATOM     16  C   UNL     1      -5.658 -11.136  -3.760  0.00  0.00    +0.062 C 
ATOM     17  H   UNL     1      -1.608 -11.312  -4.286  0.00  0.00    +0.155 HD
ENDBRANCH   3   5
BRANCH   1  18
ATOM     18  C   UNL     1       0.081  -4.864  -1.249  0.00  0.00    +0.256 C 
ATOM     19  C   UNL     1       1.404  -5.151  -1.963  0.00  0.00    +0.062 C 
BRANCH  18  20
ATOM     20  O   UNL     1       0.346  -4.332   0.050  0.00  0.00    -0.480 OA
BRANCH  20  25
ATOM     21  C   UNL     1       1.226   1.220   0.405  0.00  0.00    +0.044 C 
ATOM     22  C   UNL     1       0.991  -0.265   0.310  0.00  0.00    -0.047 A 
ATOM     23  C   UNL     1       0.845  -0.863  -0.928  0.00  0.00    +0.007 A 
ATOM     24  C   UNL     1       0.629  -2.224  -1.018  0.00  0.00    +0.046 A 
ATOM     25  C   UNL     1       0.559  -2.992   0.136  0.00  0.00    +0.122 A 
ATOM     26  C   UNL     1       0.706  -2.390   1.376  0.00  0.00    +0.049 A 
ATOM     27  C   UNL     1       0.927  -1.029   1.460  0.00  0.00    -0.044 A 
ATOM     28  C   UNL     1       1.093  -0.375   2.808  0.00  0.00    +0.044 C 
ENDBRANCH  20  25
ENDBRANCH  18  20
ENDBRANCH   1  18
TORSDOF 4
