REMARK  Name = ZINC06493354
REMARK  4 active torsions:
REMARK  status: ('A' for Active; 'I' for Inactive)
REMARK    1  A    between atoms: C_1  and  C_2
REMARK    2  A    between atoms: C_2  and  C_3
REMARK    3  A    between atoms: C_3  and  C_4
REMARK    4  A    between atoms: C_11  and  C_13
REMARK                            x       y       z     vdW  Elec       q    Type
REMARK                         _______ _______ _______ _____ _____    ______ ____
ROOT
ATOM      1  C   UNL     1       0.762  -2.018   1.233  0.00  0.00    +0.023 A 
ATOM      2  C   UNL     1       1.831  -2.677   0.730  0.00  0.00    +0.093 A 
ATOM      3  C   UNL     1       1.847  -4.086   0.723  0.00  0.00    +0.275 A 
ATOM      4  N   UNL     1       0.797  -4.771   1.219  0.00  0.00    -0.180 N 
ATOM      5  C   UNL     1      -0.279  -4.099   1.727  0.00  0.00    +0.139 A 
ATOM      6  N   UNL     1      -0.293  -2.716   1.738  0.00  0.00    -0.343 N 
ATOM      7  C   UNL     1      -1.179  -5.026   2.153  0.00  0.00    +0.076 A 
ATOM      8  C   UNL     1      -0.640  -6.299   1.899  0.00  0.00    +0.095 A 
ATOM      9  N   UNL     1       0.543  -6.143   1.340  0.00  0.00    -0.162 NA
ATOM     10  O   UNL     1       2.807  -4.684   0.270  0.00  0.00    -0.266 OA
ATOM     11  H   UNL     1      -1.057  -2.243   2.103  0.00  0.00    +0.167 HD
ENDROOT
BRANCH   8  12
ATOM     12  C   UNL     1      -1.291  -7.596   2.208  0.00  0.00    +0.002 A 
ATOM     13  C   UNL     1      -2.553  -7.621   2.798  0.00  0.00    +0.013 A 
ATOM     14  C   UNL     1      -3.155  -8.829   3.083  0.00  0.00    +0.039 A 
ATOM     15  C   UNL     1      -2.506 -10.016   2.785  0.00  0.00    +0.123 A 
ATOM     16  C   UNL     1      -1.251  -9.996   2.198  0.00  0.00    +0.039 A 
ATOM     17  C   UNL     1      -0.644  -8.792   1.904  0.00  0.00    +0.013 A 
ATOM     18  F   UNL     1      -3.098 -11.197   3.067  0.00  0.00    -0.205 F 
ENDBRANCH   8  12
BRANCH   1  19
ATOM     19  C   UNL     1       0.742  -0.511   1.242  0.00  0.00    +0.053 C 
BRANCH  19  21
ATOM     20  C   UNL     1      -0.019   1.526   0.010  0.00  0.00    +0.004 C 
ATOM     21  C   UNL     1       0.002  -0.004   0.002  0.00  0.00    +0.003 C 
ENDBRANCH  19  21
ENDBRANCH   1  19
TORSDOF 3
