REMARK  Name = ZINC64305066
REMARK  4 active torsions:
REMARK  status: ('A' for Active; 'I' for Inactive)
REMARK    1  A    between atoms: C_1  and  C_2
REMARK    2  A    between atoms: C_4  and  C_26
REMARK    3  A    between atoms: C_12  and  C_14
REMARK    4  A    between atoms: N_20  and  C_23
REMARK                            x       y       z     vdW  Elec       q    Type
REMARK                         _______ _______ _______ _____ _____    ______ ____
ROOT
ATOM      1  C   UNL     1       2.897  -1.219   0.395  0.00  0.00    +0.028 C 
ATOM      2  C   UNL     1       2.181  -0.236   1.323  0.00  0.00    +0.080 C 
ATOM      3  C   UNL     1       2.494   1.204   0.895  0.00  0.00    +0.040 C 
ATOM      4  C   UNL     1       2.092   1.382  -0.569  0.00  0.00    +0.108 C 
ATOM      5  C   UNL     1       0.677   0.917  -0.788  0.00  0.00    -0.014 A 
ATOM      6  C   UNL     1      -0.015   1.375  -1.897  0.00  0.00    +0.006 A 
ATOM      7  C   UNL     1      -1.314   0.965  -2.126  0.00  0.00    +0.000 A 
ATOM      8  C   UNL     1      -1.932   0.092  -1.250  0.00  0.00    +0.002 A 
ATOM      9  C   UNL     1      -1.251  -0.368  -0.141  0.00  0.00    +0.024 A 
ATOM     10  C   UNL     1       0.057   0.045   0.093  0.00  0.00    +0.041 A 
ATOM     11  N   UNL     1       0.728  -0.427   1.227  0.00  0.00    -0.261 N 
ATOM     12  C   UNL     1       0.052  -1.048   2.214  0.00  0.00    +0.306 C 
ATOM     13  O   UNL     1      -1.137  -1.262   2.094  0.00  0.00    -0.265 OA
ENDROOT
BRANCH  12  14
ATOM     14  C   UNL     1       0.765  -1.473   3.455  0.00  0.00    +0.302 C 
ATOM     15  O   UNL     1       1.352  -2.535   3.485  0.00  0.00    -0.265 OA
ATOM     16  N   UNL     1       0.758  -0.677   4.543  0.00  0.00    -0.296 N 
ATOM     17  C   UNL     1       0.126   0.655   4.446  0.00  0.00    +0.106 C 
ATOM     18  C   UNL     1      -0.696   0.971   5.708  0.00  0.00    +0.000 C 
ATOM     19  C   UNL     1      -1.426  -0.275   6.159  0.00  0.00    -0.077 C 
ATOM     20  N   UNL     1      -0.616  -0.975   7.153  0.00  0.00    +0.383 N 
ATOM     21  C   UNL     1       0.315  -1.896   6.622  0.00  0.00    -0.059 C 
ATOM     22  C   UNL     1       1.364  -1.160   5.766  0.00  0.00    +0.090 C 
ATOM     23  H   UNL     1      -0.111  -0.288   7.693  0.00  0.00    -0.081 HD
BRANCH  20  24
ATOM     24  C   UNL     1      -1.517  -1.698   8.060  0.00  0.00    -0.069 C 
ATOM     25  C   UNL     1      -1.613  -1.202   9.504  0.00  0.00    -0.017 C 
ATOM     26  C   UNL     1      -0.881  -2.509   9.191  0.00  0.00    -0.017 C 
ENDBRANCH  20  24
ENDBRANCH  12  14
BRANCH   4  27
ATOM     27  C   UNL     1       2.202   2.838  -0.942  0.00  0.00    +0.218 C 
ATOM     28  O   UNL     1       1.930   3.695  -0.128  0.00  0.00    -0.275 OA
ATOM     29  N   UNL     1       2.602   3.188  -2.181  0.00  0.00    -0.329 N 
ATOM     30  H   UNL     1       2.750   2.505  -2.854  0.00  0.00    +0.145 HD
ATOM     31  H   UNL     1       2.743   4.122  -2.399  0.00  0.00    +0.145 HD
ENDBRANCH   4  27
TORSDOF 3
