REMARK  Name = ZINC12777472
REMARK  6 active torsions:
REMARK  status: ('A' for Active; 'I' for Inactive)
REMARK    1  A    between atoms: C_1  and  C_2
REMARK    2  A    between atoms: C_2  and  C_4
REMARK    3  A    between atoms: C_2  and  S_19
REMARK    4  A    between atoms: N_6  and  C_7
REMARK    5  A    between atoms: S_19  and  C_20
REMARK    6  A    between atoms: C_23  and  C_25
REMARK                            x       y       z     vdW  Elec       q    Type
REMARK                         _______ _______ _______ _____ _____    ______ ____
ROOT
ATOM      1  C   UNL     1       3.564   3.478  -0.113  0.00  0.00    +0.230 C 
ATOM      2  O   UNL     1       2.505   4.069  -0.100  0.00  0.00    -0.274 OA
ATOM      3  N   UNL     1       3.586   2.134  -0.019  0.00  0.00    -0.285 N 
ATOM      4  H   UNL     1       4.433   1.666   0.047  0.00  0.00    +0.155 HD
ENDROOT
BRANCH   3   5
ATOM      5  C   UNL     1       2.385   1.412  -0.018  0.00  0.00    +0.035 A 
ATOM      6  C   UNL     1       2.281   0.241   0.724  0.00  0.00    +0.025 A 
ATOM      7  C   UNL     1       1.101  -0.475   0.729  0.00  0.00    +0.029 A 
ATOM      8  C   UNL     1       0.015  -0.025  -0.007  0.00  0.00    +0.067 A 
ATOM      9  C   UNL     1       0.117   1.151  -0.753  0.00  0.00    +0.069 A 
ATOM     10  C   UNL     1       1.303   1.867  -0.756  0.00  0.00    +0.051 A 
ATOM     11  N   UNL     1      -1.115   1.341  -1.375  0.00  0.00    -0.306 N 
ATOM     12  H   UNL     1      -1.347   2.078  -1.961  0.00  0.00    +0.170 HD
ATOM     13  C   UNL     1      -1.929   0.328  -1.024  0.00  0.00    +0.325 A 
ATOM     14  O   UNL     1      -3.080   0.193  -1.395  0.00  0.00    -0.247 OA
ATOM     15  N   UNL     1      -1.277  -0.513  -0.200  0.00  0.00    -0.306 N 
ATOM     16  H   UNL     1      -1.644  -1.321   0.193  0.00  0.00    +0.170 HD
ENDBRANCH   3   5
BRANCH   1  18
ATOM     17  C   UNL     1       5.493   4.391   1.148  0.00  0.00    +0.029 C 
ATOM     18  C   UNL     1       4.854   4.246  -0.235  0.00  0.00    +0.139 C 
BRANCH  18  19
ATOM     19  S   UNL     1       4.518   5.888  -0.919  0.00  0.00    -0.053 S 
BRANCH  19  20
ATOM     20  C   UNL     1       6.164   6.491  -1.091  0.00  0.00    +0.278 A 
ATOM     21  N   UNL     1       7.264   5.849  -0.773  0.00  0.00    -0.101 NA
ATOM     22  N   UNL     1       8.283   6.589  -1.035  0.00  0.00    -0.106 NA
ATOM     23  C   UNL     1       7.875   7.736  -1.521  0.00  0.00    +0.249 A 
ATOM     24  O   UNL     1       6.525   7.698  -1.567  0.00  0.00    -0.411 OA
BRANCH  23  25
ATOM     25  C   UNL     1       8.733   8.862  -1.943  0.00  0.00    +0.039 A 
ATOM     26  C   UNL     1       8.159  10.029  -2.452  0.00  0.00    +0.016 A 
ATOM     27  C   UNL     1       8.965  11.078  -2.840  0.00  0.00    +0.039 A 
ATOM     28  C   UNL     1      10.343  10.974  -2.734  0.00  0.00    +0.123 A 
ATOM     29  C   UNL     1      10.918   9.816  -2.234  0.00  0.00    +0.039 A 
ATOM     30  C   UNL     1      10.122   8.762  -1.839  0.00  0.00    +0.016 A 
ATOM     31  F   UNL     1      11.127  12.003  -3.120  0.00  0.00    -0.205 F 
ENDBRANCH  23  25
ENDBRANCH  19  20
ENDBRANCH  18  19
ENDBRANCH   1  18
TORSDOF 5
