REMARK  Name = ZINC51711515
REMARK  6 active torsions:
REMARK  status: ('A' for Active; 'I' for Inactive)
REMARK    1  A    between atoms: C_1  and  C_2
REMARK    2  A    between atoms: N_5  and  C_8
REMARK    3  A    between atoms: C_8  and  C_10
REMARK    4  A    between atoms: C_8  and  C_24
REMARK    5  A    between atoms: C_10  and  N_11
REMARK    6  A    between atoms: C_18  and  C_21
REMARK                            x       y       z     vdW  Elec       q    Type
REMARK                         _______ _______ _______ _____ _____    ______ ____
ROOT
ATOM      1  C   UNL     1      -2.199  -4.408   1.601  0.00  0.00    +0.095 C 
ENDROOT
BRANCH   1   2
ATOM      2  N   UNL     1      -2.242  -5.869   1.706  0.00  0.00    -0.300 N 
ATOM      3  C   UNL     1      -3.428  -6.505   1.770  0.00  0.00    +0.302 C 
ATOM      4  O   UNL     1      -4.459  -5.864   1.834  0.00  0.00    -0.253 OA
ATOM      5  N   UNL     1      -3.471  -7.852   1.764  0.00  0.00    -0.281 N 
ATOM      6  C   UNL     1      -4.756  -8.569   1.717  0.00  0.00    +0.137 C 
ATOM      7  C   UNL     1      -4.690  -9.607   0.592  0.00  0.00    +0.180 C 
ATOM      8  O   UNL     1      -3.520 -10.411   0.761  0.00  0.00    -0.364 OA
ATOM      9  C   UNL     1      -2.292  -9.684   0.672  0.00  0.00    +0.221 C 
ATOM     10  C   UNL     1      -2.235  -8.650   1.796  0.00  0.00    +0.150 C 
ATOM     11  H   UNL     1      -1.417  -6.378   1.729  0.00  0.00    +0.150 HD
BRANCH   9  12
ATOM     12  C   UNL     1      -1.132 -10.638   0.803  0.00  0.00    +0.241 C 
ATOM     13  O   UNL     1      -1.334 -11.809   1.047  0.00  0.00    -0.273 OA
ATOM     14  N   UNL     1       0.129 -10.189   0.648  0.00  0.00    -0.327 N 
ATOM     15  H   UNL     1       0.291  -9.253   0.453  0.00  0.00    +0.145 HD
ATOM     16  H   UNL     1       0.876 -10.803   0.732  0.00  0.00    +0.145 HD
ENDBRANCH   9  12
ENDBRANCH   1   2
BRANCH   1  17
ATOM     17  C   UNL     1      -0.750  -3.952   1.424  0.00  0.00    -0.020 C 
BRANCH  17  22
ATOM     18  C   UNL     1      -0.053   1.420  -0.360  0.00  0.00    +0.007 C 
ATOM     19  C   UNL     1      -0.023  -0.106  -0.263  0.00  0.00    -0.018 C 
ATOM     20  C   UNL     1      -1.456  -0.644  -0.202  0.00  0.00    -0.015 C 
ATOM     21  C   UNL     1      -1.418  -2.163  -0.026  0.00  0.00    -0.078 C 
ATOM     22  N   UNL     1      -0.716  -2.497   1.219  0.00  0.00    +0.385 N 
ATOM     23  C   UNL     1       0.680  -2.048   1.140  0.00  0.00    -0.078 C 
ATOM     24  C   UNL     1       0.722  -0.524   1.008  0.00  0.00    -0.015 C 
ATOM     25  H   UNL     1      -1.171  -2.040   1.994  0.00  0.00    -0.081 HD
ENDBRANCH  17  22
BRANCH  17  26
ATOM     26  C   UNL     1       0.042  -4.304   2.657  0.00  0.00    -0.059 A 
ATOM     27  C   UNL     1      -0.041  -3.507   3.783  0.00  0.00    +0.002 A 
ATOM     28  C   UNL     1       0.686  -3.830   4.914  0.00  0.00    +0.000 A 
ATOM     29  C   UNL     1       1.494  -4.951   4.918  0.00  0.00    +0.000 A 
ATOM     30  C   UNL     1       1.577  -5.749   3.793  0.00  0.00    +0.000 A 
ATOM     31  C   UNL     1       0.847  -5.428   2.663  0.00  0.00    +0.002 A 
ENDBRANCH  17  26
ENDBRANCH   1  17
TORSDOF 5
