REMARK  Name = ZINC65373397
REMARK  5 active torsions:
REMARK  status: ('A' for Active; 'I' for Inactive)
REMARK    1  A    between atoms: C_1  and  C_2
REMARK    2  A    between atoms: C_11  and  C_18
REMARK    3  A    between atoms: C_21  and  O_27
REMARK    4  A    between atoms: C_22  and  C_24
REMARK    5  A    between atoms: O_27  and  C_28
REMARK                            x       y       z     vdW  Elec       q    Type
REMARK                         _______ _______ _______ _____ _____    ______ ____
ROOT
ATOM      1  C   UNL     1      -0.018   1.503   0.010  0.00  0.00    +0.044 C 
ATOM      2  C   UNL     1       0.002  -0.004   0.002  0.00  0.00    -0.046 A 
ATOM      3  C   UNL     1       0.006  -0.702  -1.217  0.00  0.00    +0.021 A 
ATOM      4  C   UNL     1       0.027  -2.052  -1.228  0.00  0.00    +0.093 A 
ATOM      5  N   UNL     1       0.045  -2.753  -0.058  0.00  0.00    -0.304 N 
ATOM      6  C   UNL     1       0.037  -2.103   1.145  0.00  0.00    +0.116 A 
ATOM      7  C   UNL     1       0.023  -0.693   1.175  0.00  0.00    +0.048 A 
ATOM      8  N   UNL     1       0.049  -3.018   2.099  0.00  0.00    -0.342 N 
ATOM      9  C   UNL     1       0.066  -4.242   1.544  0.00  0.00    +0.055 A 
ATOM     10  C   UNL     1       0.077  -4.104   0.209  0.00  0.00    +0.053 A 
ATOM     11  C   UNL     1       0.130  -5.151  -0.872  0.00  0.00    +0.077 C 
ATOM     12  C   UNL     1       0.449  -6.527  -0.319  0.00  0.00    +0.110 C 
ATOM     13  C   UNL     1      -0.635  -7.015   0.589  0.00  0.00    +0.214 C 
ATOM     14  O   UNL     1      -1.343  -7.925   0.210  0.00  0.00    -0.276 OA
ATOM     15  N   UNL     1      -0.855  -6.495   1.791  0.00  0.00    -0.310 N 
ATOM     16  C   UNL     1       0.062  -5.510   2.354  0.00  0.00    +0.159 C 
ATOM     17  H   UNL     1      -1.633  -6.773   2.300  0.00  0.00    +0.149 HD
ATOM     18  H   UNL     1       0.046  -2.834   3.052  0.00  0.00    +0.167 HD
ENDROOT
BRANCH  11  19
ATOM     19  C   UNL     1       1.191  -4.769  -1.872  0.00  0.00    -0.037 A 
ATOM     20  C   UNL     1       2.509  -4.636  -1.462  0.00  0.00    +0.008 A 
ATOM     21  C   UNL     1       3.490  -4.286  -2.368  0.00  0.00    +0.047 A 
ATOM     22  C   UNL     1       3.163  -4.065  -3.697  0.00  0.00    +0.134 A 
ATOM     23  C   UNL     1       1.831  -4.199  -4.117  0.00  0.00    +0.105 A 
ATOM     24  C   UNL     1       0.848  -4.559  -3.189  0.00  0.00    +0.023 A 
BRANCH  23  25
ATOM     25  C   UNL     1       1.471  -3.966  -5.524  0.00  0.00    +0.390 C 
ATOM     26  O   UNL     1       0.308  -4.084  -5.886  0.00  0.00    -0.240 OA
ATOM     27  O   UNL     1       2.334  -3.656  -6.333  0.00  0.00    -0.240 OA
ENDBRANCH  23  25
BRANCH  22  28
ATOM     28  O   UNL     1       4.126  -3.720  -4.588  0.00  0.00    -0.494 OA
ATOM     29  C   UNL     1       5.460  -3.603  -4.087  0.00  0.00    +0.277 C 
ENDBRANCH  22  28
ENDBRANCH  11  19
TORSDOF 3
