REMARK  Name = ZINC39595244
REMARK  8 active torsions:
REMARK  status: ('A' for Active; 'I' for Inactive)
REMARK    1  A    between atoms: C_1  and  C_2
REMARK    2  A    between atoms: C_7  and  C_8
REMARK    3  A    between atoms: C_8  and  C_9
REMARK    4  A    between atoms: C_13  and  C_22
REMARK    5  A    between atoms: N_24  and  C_25
REMARK    6  A    between atoms: C_25  and  C_26
REMARK    7  A    between atoms: C_26  and  C_28
REMARK    8  A    between atoms: C_26  and  N_34
REMARK                            x       y       z     vdW  Elec       q    Type
REMARK                         _______ _______ _______ _____ _____    ______ ____
ROOT
ATOM      1  C   UNL     1      -2.163   0.446   3.014  0.00  0.00    +0.220 C 
ATOM      2  O   UNL     1      -3.161   0.186   2.376  0.00  0.00    -0.275 OA
ATOM      3  N   UNL     1      -2.261   1.138   4.167  0.00  0.00    -0.300 N 
ATOM      4  C   UNL     1      -1.164   1.553   5.073  0.00  0.00    +0.121 C 
ATOM      5  C   UNL     1      -1.557   2.974   5.536  0.00  0.00    +0.100 C 
ATOM      6  C   UNL     1      -3.084   3.035   5.365  0.00  0.00    -0.004 C 
ATOM      7  C   UNL     1      -3.489   1.661   4.811  0.00  0.00    +0.115 C 
ATOM      8  C   UNL     1      -3.461   4.130   4.372  0.00  0.00    -0.010 C 
ATOM      9  C   UNL     1      -4.987   4.209   4.262  0.00  0.00    -0.082 C 
ATOM     10  N   UNL     1      -5.560   4.499   5.582  0.00  0.00    +0.379 N 
ATOM     11  C   UNL     1      -5.271   3.396   6.506  0.00  0.00    -0.082 C 
ATOM     12  C   UNL     1      -3.757   3.282   6.711  0.00  0.00    -0.010 C 
ATOM     13  H   UNL     1      -5.158   5.351   5.942  0.00  0.00    -0.086 HD
ATOM     14  H   UNL     1      -6.559   4.611   5.496  0.00  0.00    -0.086 HD
ENDROOT
BRANCH   5  15
ATOM     15  C   UNL     1      -1.179   3.179   6.980  0.00  0.00    +0.218 C 
ATOM     16  O   UNL     1      -1.180   2.238   7.746  0.00  0.00    -0.275 OA
ATOM     17  N   UNL     1      -0.842   4.407   7.421  0.00  0.00    -0.316 N 
ATOM     18  H   UNL     1      -0.841   5.159   6.808  0.00  0.00    +0.149 HD
BRANCH  17  19
ATOM     19  C   UNL     1      -0.475   4.606   8.825  0.00  0.00    +0.093 C 
BRANCH  19  20
ATOM     20  C   UNL     1      -0.236   6.095   9.084  0.00  0.00    -0.019 C 
BRANCH  20  21
ATOM     21  C   UNL     1       0.965   6.555   8.300  0.00  0.00    -0.041 A 
ATOM     22  C   UNL     1       0.804   7.236   7.103  0.00  0.00    +0.005 A 
ATOM     23  C   UNL     1       1.938   7.640   6.416  0.00  0.00    +0.020 A 
ATOM     24  C   UNL     1       3.183   7.352   6.943  0.00  0.00    +0.111 A 
ATOM     25  N   UNL     1       3.299   6.702   8.084  0.00  0.00    -0.263 NA
ATOM     26  C   UNL     1       2.242   6.308   8.768  0.00  0.00    +0.112 A 
ENDBRANCH  20  21
BRANCH  20  27
ATOM     27  N   UNL     1       0.002   6.311  10.518  0.00  0.00    +0.385 N 
ATOM     28  C   UNL     1       0.214   7.755  10.790  0.00  0.00    -0.078 C 
ATOM     29  C   UNL     1      -0.115   7.884  12.298  0.00  0.00    -0.020 C 
ATOM     30  C   UNL     1      -1.300   6.907  12.478  0.00  0.00    -0.020 C 
ATOM     31  C   UNL     1      -1.194   5.924  11.297  0.00  0.00    -0.078 C 
ATOM     32  H   UNL     1       0.803   5.777  10.822  0.00  0.00    -0.081 HD
ENDBRANCH  20  27
ENDBRANCH  19  20
ENDBRANCH  17  19
ENDBRANCH   5  15
BRANCH   1  33
ATOM     33  C   UNL     1      -0.813  -0.004   2.518  0.00  0.00    +0.131 C 
BRANCH  33  40
ATOM     34  C   UNL     1      -0.938   1.447   0.023  0.00  0.00    +0.044 C 
ATOM     35  C   UNL     1      -1.038  -0.057   0.026  0.00  0.00    -0.047 A 
ATOM     36  C   UNL     1      -1.184  -0.743  -1.165  0.00  0.00    +0.003 A 
ATOM     37  C   UNL     1      -1.275  -2.122  -1.163  0.00  0.00    +0.000 A 
ATOM     38  C   UNL     1      -1.221  -2.816   0.032  0.00  0.00    +0.000 A 
ATOM     39  C   UNL     1      -1.074  -2.130   1.223  0.00  0.00    +0.004 A 
ATOM     40  C   UNL     1      -0.978  -0.751   1.220  0.00  0.00    -0.036 A 
ENDBRANCH  33  40
ENDBRANCH   1  33
TORSDOF 7
