REMARK  Name = ZINC44863675
REMARK  6 active torsions:
REMARK  status: ('A' for Active; 'I' for Inactive)
REMARK    1  A    between atoms: C_1  and  C_2
REMARK    2  A    between atoms: C_2  and  C_3
REMARK    3  A    between atoms: C_3  and  C_5
REMARK    4  A    between atoms: C_3  and  C_9
REMARK    5  A    between atoms: N_6  and  O_7
REMARK    6  A    between atoms: N_11  and  C_12
REMARK                            x       y       z     vdW  Elec       q    Type
REMARK                         _______ _______ _______ _____ _____    ______ ____
ROOT
ATOM      1  C   UNL     1      -2.040  -0.353  -1.360  0.00  0.00    +0.224 C 
ATOM      2  O   UNL     1      -2.454  -1.265  -2.044  0.00  0.00    -0.275 OA
ATOM      3  N   UNL     1      -2.166   0.920  -1.786  0.00  0.00    -0.310 N 
ATOM      4  H   UNL     1      -1.903   1.653  -1.208  0.00  0.00    +0.149 HD
ENDROOT
BRANCH   3   5
ATOM      5  C   UNL     1      -2.700   1.196  -3.123  0.00  0.00    +0.095 C 
ATOM      6  C   UNL     1      -1.561   1.153  -4.155  0.00  0.00    +0.046 C 
ATOM      7  C   UNL     1      -2.044   1.750  -5.499  0.00  0.00    +0.168 C 
ATOM      8  S   UNL     1      -3.342   2.941  -4.968  0.00  0.00    -0.029 S 
ATOM      9  O   UNL     1      -4.593   2.529  -5.502  0.00  0.00    -0.174 OA
ATOM     10  O   UNL     1      -2.881   4.263  -5.206  0.00  0.00    -0.174 OA
ATOM     11  C   UNL     1      -3.328   2.618  -3.154  0.00  0.00    +0.188 C 
ENDBRANCH   3   5
BRANCH   1  12
ATOM     12  C   UNL     1      -1.385  -0.642  -0.034  0.00  0.00    +0.141 C 
BRANCH  12  13
ATOM     13  C   UNL     1      -2.042  -1.842   0.599  0.00  0.00    +0.144 C 
ATOM     14  N   UNL     1      -1.530  -3.017   0.439  0.00  0.00    -0.076 NA
ATOM     15  N   UNL     1      -3.187  -1.685   1.348  0.00  0.00    -0.343 N 
ATOM     16  H   UNL     1      -3.571  -0.803   1.468  0.00  0.00    +0.144 HD
ATOM     17  H   UNL     1      -3.609  -2.458   1.756  0.00  0.00    +0.144 HD
BRANCH  14  18
ATOM     18  O   UNL     1      -2.147  -4.145   1.034  0.00  0.00    -0.408 OA
ATOM     19  H   UNL     1      -1.692  -4.980   0.858  0.00  0.00    +0.328 HD
ENDBRANCH  14  18
ENDBRANCH  12  13
BRANCH  12  21
ATOM     20  C   UNL     1       0.795  -1.083   1.103  0.00  0.00    +0.005 C 
ATOM     21  C   UNL     1       0.102  -0.929  -0.252  0.00  0.00    +0.017 C 
ENDBRANCH  12  21
ENDBRANCH   1  12
TORSDOF 5
