REMARK  Name = ZINC31263403
REMARK  8 active torsions:
REMARK  status: ('A' for Active; 'I' for Inactive)
REMARK    1  A    between atoms: C_1  and  C_2
REMARK    2  A    between atoms: C_5  and  C_7
REMARK    3  A    between atoms: C_9  and  C_29
REMARK    4  A    between atoms: C_10  and  C_12
REMARK    5  A    between atoms: N_14  and  C_15
REMARK    6  A    between atoms: C_15  and  C_16
REMARK    7  A    between atoms: C_16  and  C_17
REMARK    8  A    between atoms: C_17  and  N_18
REMARK                            x       y       z     vdW  Elec       q    Type
REMARK                         _______ _______ _______ _____ _____    ______ ____
ROOT
ATOM      1  C   UNL     1       1.435   3.437   0.006  0.00  0.00    +0.252 C 
ATOM      2  O   UNL     1       0.498   4.215   0.019  0.00  0.00    -0.270 OA
ATOM      3  N   UNL     1       2.699   3.904  -0.003  0.00  0.00    -0.311 N 
ATOM      4  H   UNL     1       3.545   3.201  -0.015  0.00  0.00    +0.149 HD
ENDROOT
BRANCH   1   8
ATOM      5  C   UNL     1       1.147  -0.686  -0.013  0.00  0.00    +0.144 A 
ATOM      6  N   UNL     1       0.002  -0.004   0.002  0.00  0.00    -0.240 NA
ATOM      7  C   UNL     1      -0.016   1.299   0.009  0.00  0.00    +0.058 A 
ATOM      8  C   UNL     1       1.188   1.994   0.001  0.00  0.00    +0.097 A 
ATOM      9  S   UNL     1       2.351   0.635  -0.017  0.00  0.00    -0.059 S 
ATOM     10  C   UNL     1      -1.326   2.043   0.019  0.00  0.00    +0.067 C 
BRANCH   5  15
ATOM     11  C   UNL     1       3.455  -5.133  -0.059  0.00  0.00    +0.086 C 
ATOM     12  C   UNL     1       2.367  -4.090  -0.042  0.00  0.00    +0.103 A 
ATOM     13  C   UNL     1       1.041  -4.338  -0.031  0.00  0.00    +0.045 A 
ATOM     14  C   UNL     1       0.387  -3.093  -0.018  0.00  0.00    +0.052 A 
ATOM     15  C   UNL     1       1.362  -2.139  -0.022  0.00  0.00    +0.160 A 
ATOM     16  O   UNL     1       2.557  -2.762  -0.042  0.00  0.00    -0.458 OA
ENDBRANCH   5  15
ENDBRANCH   1   8
BRANCH   3  17
ATOM     17  C   UNL     1       2.946   5.348   0.002  0.00  0.00    +0.106 C 
BRANCH  17  18
ATOM     18  C   UNL     1       4.454   5.608  -0.011  0.00  0.00    +0.038 C 
BRANCH  18  19
ATOM     19  C   UNL     1       4.712   7.116  -0.006  0.00  0.00    +0.119 C 
BRANCH  19  20
ATOM     20  N   UNL     1       6.156   7.364  -0.018  0.00  0.00    -0.224 N 
ATOM     21  C   UNL     1       6.893   7.499  -1.141  0.00  0.00    +0.246 C 
ATOM     22  O   UNL     1       6.505   7.439  -2.288  0.00  0.00    -0.273 OA
ATOM     23  C   UNL     1       8.303   7.738  -0.664  0.00  0.00    +0.113 C 
ATOM     24  C   UNL     1       8.831   9.091  -1.160  0.00  0.00    +0.035 C 
ATOM     25  C   UNL     1      10.337   8.834  -1.421  0.00  0.00    +0.003 C 
ATOM     26  C   UNL     1      10.347   7.392  -1.991  0.00  0.00    +0.003 C 
ATOM     27  C   UNL     1       9.256   6.657  -1.181  0.00  0.00    +0.035 C 
ATOM     28  N   UNL     1       8.206   7.712   0.796  0.00  0.00    -0.285 N 
ATOM     29  C   UNL     1       6.907   7.492   1.083  0.00  0.00    +0.309 C 
ATOM     30  O   UNL     1       6.468   7.415   2.214  0.00  0.00    -0.252 OA
ATOM     31  H   UNL     1       9.107   7.858   1.410  0.00  0.00    +0.151 HD
ENDBRANCH  19  20
ENDBRANCH  18  19
ENDBRANCH  17  18
ENDBRANCH   3  17
TORSDOF 6
