REMARK  Name = ZINC49124461
REMARK  5 active torsions:
REMARK  status: ('A' for Active; 'I' for Inactive)
REMARK    1  A    between atoms: C_1  and  C_2
REMARK    2  A    between atoms: C_5  and  S_8
REMARK    3  A    between atoms: S_8  and  C_9
REMARK    4  A    between atoms: C_9  and  C_10
REMARK    5  A    between atoms: C_13  and  C_15
REMARK                            x       y       z     vdW  Elec       q    Type
REMARK                         _______ _______ _______ _____ _____    ______ ____
ROOT
ATOM      1  C   UNL     1      -6.453   2.768  -1.976  0.00  0.00    +0.090 A 
ATOM      2  C   UNL     1      -7.030   3.977  -1.851  0.00  0.00    +0.221 A 
ATOM      3  O   UNL     1      -8.304   3.859  -2.276  0.00  0.00    -0.443 OA
ATOM      4  C   UNL     1      -8.491   2.583  -2.656  0.00  0.00    +0.229 A 
ATOM      5  N   UNL     1      -7.369   1.926  -2.480  0.00  0.00    -0.213 NA
ENDROOT
BRANCH   4   6
ATOM      6  C   UNL     1      -9.748   2.017  -3.189  0.00  0.00    +0.055 A 
ATOM      7  C   UNL     1      -9.815   0.668  -3.544  0.00  0.00    +0.014 A 
ATOM      8  C   UNL     1     -10.991   0.146  -4.040  0.00  0.00    +0.001 A 
ATOM      9  C   UNL     1     -12.103   0.956  -4.189  0.00  0.00    +0.001 A 
ATOM     10  C   UNL     1     -12.045   2.293  -3.840  0.00  0.00    +0.021 A 
ATOM     11  C   UNL     1     -10.876   2.828  -3.335  0.00  0.00    +0.053 A 
ATOM     12 CL   UNL     1     -10.806   4.504  -2.890  0.00  0.00    -0.083 Cl
ENDBRANCH   4   6
BRANCH   1  13
ATOM     13  C   UNL     1      -5.030   2.422  -1.621  0.00  0.00    +0.136 C 
BRANCH  13  14
ATOM     14  S   UNL     1      -3.964   2.692  -3.064  0.00  0.00    -0.080 S 
BRANCH  14  19
ATOM     15  C   UNL     1      -0.013   1.086   0.008  0.00  0.00    +0.090 C 
ATOM     16  C   UNL     1      -0.742   1.585  -1.213  0.00  0.00    +0.149 A 
ATOM     17  N   UNL     1      -2.051   1.825  -1.287  0.00  0.00    -0.206 NA
ATOM     18  H   UNL     1      -1.127   2.558  -4.147  0.00  0.00    +0.191 HD
ATOM     19  C   UNL     1      -2.356   2.250  -2.495  0.00  0.00    +0.185 A 
ATOM     20  N   UNL     1      -1.218   2.286  -3.221  0.00  0.00    -0.254 N 
ATOM     21  N   UNL     1      -0.191   1.857  -2.365  0.00  0.00    -0.157 NA
ENDBRANCH  14  19
ENDBRANCH  13  14
ENDBRANCH   1  13
TORSDOF 4
