REMARK  Name = ZINC30202066
REMARK  8 active torsions:
REMARK  status: ('A' for Active; 'I' for Inactive)
REMARK    1  A    between atoms: C_1  and  O_2
REMARK    2  A    between atoms: O_2  and  C_3
REMARK    3  A    between atoms: C_3  and  C_4
REMARK    4  A    between atoms: C_4  and  N_5
REMARK    5  A    between atoms: C_6  and  N_30
REMARK    6  A    between atoms: C_7  and  C_14
REMARK    7  A    between atoms: C_14  and  C_16
REMARK    8  A    between atoms: C_16  and  N_17
REMARK                            x       y       z     vdW  Elec       q    Type
REMARK                         _______ _______ _______ _____ _____    ______ ____
ROOT
ATOM      1  C   UNL     1      -4.156   2.547  -2.917  0.00  0.00    +0.155 C 
ATOM      2  O   UNL     1      -4.374   3.345  -2.027  0.00  0.00    -0.294 OA
ENDROOT
BRANCH   1   5
ATOM      3  N   UNL     1      -2.158  -0.010  -1.170  0.00  0.00    -0.279 N 
ATOM      4  C   UNL     1      -2.851   1.147  -1.384  0.00  0.00    +0.116 A 
ATOM      5  C   UNL     1      -3.434   1.366  -2.644  0.00  0.00    +0.118 A 
ATOM      6  C   UNL     1      -3.272   0.324  -3.666  0.00  0.00    +0.266 A 
ATOM      7  O   UNL     1      -3.759   0.459  -4.774  0.00  0.00    -0.267 OA
ATOM      8  N   UNL     1      -2.572  -0.786  -3.352  0.00  0.00    -0.274 N 
ATOM      9  H   UNL     1      -2.437  -1.581  -4.100  0.00  0.00    +0.173 HD
ATOM     10  C   UNL     1      -2.033  -0.938  -2.132  0.00  0.00    +0.331 A 
ATOM     11  O   UNL     1      -1.410  -1.953  -1.889  0.00  0.00    -0.246 OA
BRANCH   4  12
ATOM     12  N   UNL     1      -2.972   2.074  -0.396  0.00  0.00    -0.344 N 
ATOM     13  H   UNL     1      -3.532   3.003  -0.578  0.00  0.00    +0.144 HD
ATOM     14  H   UNL     1      -2.509   1.895   0.586  0.00  0.00    +0.144 HD
ENDBRANCH   4  12
BRANCH   3  15
ATOM     15  C   UNL     1      -1.542  -0.246   0.139  0.00  0.00    +0.156 C 
BRANCH  15  16
ATOM     16  C   UNL     1      -0.116   0.307   0.138  0.00  0.00    +0.181 C 
BRANCH  16  18
ATOM     17  C   UNL     1       1.132   2.347  -0.023  0.00  0.00    +0.194 C 
ATOM     18  O   UNL     1      -0.155   1.728  -0.010  0.00  0.00    -0.381 OA
ENDBRANCH  16  18
ENDBRANCH  15  16
ENDBRANCH   3  15
ENDBRANCH   1   5
BRANCH   1  19
ATOM     19  C   UNL     1      -4.657   2.819  -4.312  0.00  0.00    +0.003 C 
BRANCH  19  20
ATOM     20  N   UNL     1      -5.372   4.102  -4.334  0.00  0.00    +0.387 N 
ATOM     21  C   UNL     1      -6.602   4.034  -3.532  0.00  0.00    -0.059 C 
ATOM     22  C   UNL     1      -7.274   5.409  -3.515  0.00  0.00    +0.088 C 
ATOM     23  N   UNL     1      -7.571   5.822  -4.894  0.00  0.00    -0.319 N 
ATOM     24  C   UNL     1      -6.341   5.891  -5.696  0.00  0.00    +0.088 C 
ATOM     25  C   UNL     1      -5.669   4.516  -5.713  0.00  0.00    -0.059 C 
ATOM     26  C   UNL     1      -8.248   7.037  -4.915  0.00  0.00    +0.121 A 
ATOM     27  C   UNL     1      -9.443   7.172  -4.216  0.00  0.00    +0.045 A 
ATOM     28  C   UNL     1     -10.104   8.387  -4.241  0.00  0.00    +0.020 A 
ATOM     29  C   UNL     1      -9.549   9.428  -4.976  0.00  0.00    +0.036 A 
ATOM     30  C   UNL     1      -8.362   9.222  -5.650  0.00  0.00    +0.128 A 
ATOM     31  N   UNL     1      -7.751   8.053  -5.604  0.00  0.00    -0.239 NA
ATOM     32 BR   UNL     1     -10.412  11.109  -5.051  0.00  0.00    -0.049 Br
ATOM     33  H   UNL     1      -4.715   4.862  -3.885  0.00  0.00    -0.081 HD
ENDBRANCH  19  20
ENDBRANCH   1  19
TORSDOF 7
