REMARK  Name = ZINC05445906
REMARK  13 active torsions:
REMARK  status: ('A' for Active; 'I' for Inactive)
REMARK    1  A    between atoms: C_1  and  C_2
REMARK    2  A    between atoms: C_4  and  C_12
REMARK    3  A    between atoms: C_7  and  O_8
REMARK    4  A    between atoms: O_8  and  C_9
REMARK    5  A    between atoms: C_9  and  C_10
REMARK    6  A    between atoms: C_9  and  C_11
REMARK    7  A    between atoms: C_12  and  O_31
REMARK    8  A    between atoms: C_14  and  C_25
REMARK    9  A    between atoms: N_16  and  C_21
REMARK   10  A    between atoms: C_21  and  C_22
REMARK   11  A    between atoms: C_22  and  N_60
REMARK   12  A    between atoms: C_23  and  N_60
REMARK   13  A    between atoms: C_24  and  N_60
REMARK                            x       y       z     vdW  Elec       q    Type
REMARK                         _______ _______ _______ _____ _____    ______ ____
ROOT
ATOM      1  C   UNL     1      -4.544   5.254  -3.759  0.00  0.00    +0.133 C 
ATOM      2  C   UNL     1      -3.394   4.854  -3.106  0.00  0.00    +0.071 C 
ATOM      3  C   UNL     1      -3.239   4.573  -1.629  0.00  0.00    +0.146 C 
ATOM      4  N   UNL     1      -1.842   4.183  -1.420  0.00  0.00    -0.285 N 
ATOM      5  C   UNL     1      -1.198   4.217  -2.599  0.00  0.00    +0.288 C 
ATOM      6  O   UNL     1      -0.024   3.950  -2.759  0.00  0.00    -0.266 OA
ATOM      7  C   UNL     1      -2.134   4.626  -3.681  0.00  0.00    +0.249 C 
ATOM      8  O   UNL     1      -1.855   4.748  -4.860  0.00  0.00    -0.282 OA
ENDROOT
BRANCH   1  12
ATOM      9  C   UNL     1      -8.627   7.807  -2.474  0.00  0.00    +0.047 C 
ATOM     10  C   UNL     1      -7.787   6.558  -2.405  0.00  0.00    -0.008 A 
ATOM     11  C   UNL     1      -6.596   6.491  -3.092  0.00  0.00    +0.018 A 
ATOM     12  C   UNL     1      -5.817   5.330  -3.026  0.00  0.00    +0.017 A 
ATOM     13  C   UNL     1      -6.256   4.240  -2.265  0.00  0.00    +0.015 A 
ATOM     14  C   UNL     1      -7.445   4.318  -1.578  0.00  0.00    +0.046 A 
ATOM     15  C   UNL     1      -8.216   5.474  -1.646  0.00  0.00    +0.124 A 
BRANCH  15  16
ATOM     16  O   UNL     1      -9.390   5.545  -0.970  0.00  0.00    -0.489 OA
BRANCH  16  17
ATOM     17  C   UNL     1      -9.713   4.447  -0.114  0.00  0.00    +0.167 C 
ATOM     18  C   UNL     1     -10.620   4.932   1.018  0.00  0.00    +0.051 C 
ATOM     19  C   UNL     1     -10.437   3.367  -0.921  0.00  0.00    +0.051 C 
ENDBRANCH  16  17
ENDBRANCH  15  16
ENDBRANCH   1  12
BRANCH   3  20
ATOM     20  C   UNL     1      -3.553   5.813  -0.833  0.00  0.00    -0.004 A 
ATOM     21  C   UNL     1      -4.732   5.901  -0.107  0.00  0.00    +0.009 A 
ATOM     22  C   UNL     1      -4.976   7.059   0.615  0.00  0.00    +0.020 A 
ATOM     23  C   UNL     1      -4.050   8.085   0.578  0.00  0.00    +0.111 A 
ATOM     24  N   UNL     1      -2.942   7.968  -0.127  0.00  0.00    -0.263 NA
ATOM     25  C   UNL     1      -2.674   6.879  -0.821  0.00  0.00    +0.116 A 
ENDBRANCH   3  20
BRANCH   1  26
ATOM     26  O   UNL     1      -4.499   5.575  -5.070  0.00  0.00    -0.506 OA
ATOM     27  H   UNL     1      -3.563   5.468  -5.407  0.00  0.00    +0.292 HD
ENDBRANCH   1  26
BRANCH   4  28
ATOM     28  C   UNL     1      -1.243   3.820  -0.134  0.00  0.00    +0.090 C 
BRANCH  28  29
ATOM     29  C   UNL     1      -1.386   2.313   0.089  0.00  0.00    -0.060 C 
BRANCH  29  32
ATOM     30  C   UNL     1      -1.109   0.561   1.738  0.00  0.00    -0.097 C 
ATOM     31  C   UNL     1       0.667   2.163   1.362  0.00  0.00    -0.097 C 
ATOM     32  N   UNL     1      -0.797   1.966   1.399  0.00  0.00    +0.377 N 
ATOM     33  H   UNL     1      -1.198   2.579   2.118  0.00  0.00    -0.083 HD
ENDBRANCH  29  32
ENDBRANCH  28  29
ENDBRANCH   4  28
TORSDOF 8
