REMARK  Name = ZINC15206248
REMARK  6 active torsions:
REMARK  status: ('A' for Active; 'I' for Inactive)
REMARK    1  A    between atoms: C_1  and  C_2
REMARK    2  A    between atoms: C_4  and  O_28
REMARK    3  A    between atoms: C_6  and  O_27
REMARK    4  A    between atoms: C_8  and  O_26
REMARK    5  A    between atoms: C_10  and  O_13
REMARK    6  A    between atoms: O_13  and  C_14
REMARK                            x       y       z     vdW  Elec       q    Type
REMARK                         _______ _______ _______ _____ _____    ______ ____
ROOT
ATOM      1  C   UNL     1      -2.255  -0.407  -1.198  0.00  0.00    +0.041 C 
ATOM      2  C   UNL     1      -2.214   1.122  -1.168  0.00  0.00    +0.150 C 
ATOM      3  C   UNL     1      -0.757   1.595  -1.230  0.00  0.00    +0.174 C 
ATOM      4  C   UNL     1      -0.013   1.086   0.008  0.00  0.00    +0.180 C 
ATOM      5  C   UNL     1      -0.733   1.582   1.266  0.00  0.00    +0.214 C 
ATOM      6  C   UNL     1      -2.189   1.109   1.230  0.00  0.00    +0.339 C 
ATOM      7  O   UNL     1      -2.816   1.591   0.040  0.00  0.00    -0.334 OA
ENDROOT
BRANCH   5   8
ATOM      8  O   UNL     1      -0.694   3.010   1.307  0.00  0.00    -0.383 OA
ATOM      9  H   UNL     1      -1.133   3.393   2.078  0.00  0.00    +0.210 HD
ENDBRANCH   5   8
BRANCH   4  10
ATOM     10  O   UNL     1       1.327   1.582  -0.002  0.00  0.00    -0.386 OA
ATOM     11  H   UNL     1       1.857   1.300   0.756  0.00  0.00    +0.210 HD
ENDBRANCH   4  10
BRANCH   3  12
ATOM     12  O   UNL     1      -0.134   1.079  -2.408  0.00  0.00    -0.387 OA
ATOM     13  H   UNL     1      -0.554   1.361  -3.232  0.00  0.00    +0.210 HD
ENDBRANCH   3  12
BRANCH   6  14
ATOM     14  O   UNL     1      -2.882   1.615   2.372  0.00  0.00    -0.459 OA
BRANCH  14  15
ATOM     15  C   UNL     1      -4.130   1.120   2.608  0.00  0.00    +0.150 A 
ATOM     16  C   UNL     1      -4.777   0.200   1.872  0.00  0.00    +0.130 A 
ATOM     17  N   UNL     1      -6.014  -0.048   2.420  0.00  0.00    -0.358 N 
ATOM     18  H   UNL     1      -6.665  -0.673   2.066  0.00  0.00    +0.165 HD
ATOM     19  C   UNL     1      -6.190   0.727   3.545  0.00  0.00    +0.052 A 
ATOM     20  C   UNL     1      -5.018   1.486   3.716  0.00  0.00    +0.061 A 
ATOM     21  C   UNL     1      -4.910   2.367   4.795  0.00  0.00    +0.068 A 
ATOM     22  C   UNL     1      -5.953   2.483   5.688  0.00  0.00    +0.037 A 
ATOM     23  C   UNL     1      -7.108   1.730   5.519  0.00  0.00    +0.019 A 
ATOM     24  C   UNL     1      -7.233   0.864   4.455  0.00  0.00    +0.027 A 
ATOM     25 BR   UNL     1      -5.812   3.674   7.150  0.00  0.00    -0.049 Br
ATOM     26 CL   UNL     1      -3.469   3.311   5.009  0.00  0.00    -0.082 Cl
ENDBRANCH  14  15
ENDBRANCH   6  14
TORSDOF 5
