REMARK  Name = ZINC14473325
REMARK  8 active torsions:
REMARK  status: ('A' for Active; 'I' for Inactive)
REMARK    1  A    between atoms: C_1  and  C_2
REMARK    2  A    between atoms: C_2  and  O_3
REMARK    3  A    between atoms: O_3  and  C_4
REMARK    4  A    between atoms: C_4  and  C_5
REMARK    5  A    between atoms: C_5  and  O_6
REMARK    6  A    between atoms: O_6  and  C_7
REMARK    7  A    between atoms: C_14  and  C_23
REMARK    8  A    between atoms: C_25  and  N_30
REMARK                            x       y       z     vdW  Elec       q    Type
REMARK                         _______ _______ _______ _____ _____    ______ ____
ROOT
ATOM      1  C   UNL     1      -2.487   2.928  -2.229  0.00  0.00    +0.142 A 
ATOM      2  C   UNL     1      -2.013   2.575  -3.479  0.00  0.00    +0.047 A 
ATOM      3  C   UNL     1      -0.906   1.753  -3.585  0.00  0.00    +0.004 A 
ATOM      4  C   UNL     1      -0.279   1.288  -2.447  0.00  0.00    +0.006 A 
ATOM      5  C   UNL     1      -0.742   1.622  -1.195  0.00  0.00    -0.016 A 
ATOM      6  C   UNL     1      -1.851   2.457  -1.076  0.00  0.00    +0.074 A 
ATOM      7  N   UNL     1      -2.370   2.844   0.163  0.00  0.00    -0.334 N 
ATOM      8  C   UNL     1      -2.099   1.844   1.197  0.00  0.00    +0.106 C 
ATOM      9  C   UNL     1      -0.600   1.625   1.328  0.00  0.00    +0.029 C 
ATOM     10  C   UNL     1      -0.013   1.086   0.008  0.00  0.00    +0.049 C 
ATOM     11  C   UNL     1       1.397   1.653  -0.002  0.00  0.00    -0.023 C 
ATOM     12  C   UNL     1       1.478   2.698   0.781  0.00  0.00    -0.030 C 
ATOM     13  C   UNL     1       0.136   2.983   1.428  0.00  0.00    +0.033 C 
ATOM     14  H   UNL     1      -3.358   3.038   0.097  0.00  0.00    +0.147 HD
ENDROOT
BRANCH   8  15
ATOM     15  C   UNL     1      -2.651   2.323   2.515  0.00  0.00    -0.007 A 
ATOM     16  C   UNL     1      -2.899   3.669   2.712  0.00  0.00    +0.039 A 
ATOM     17  C   UNL     1      -3.411   4.108   3.918  0.00  0.00    +0.127 A 
ATOM     18  C   UNL     1      -3.666   3.203   4.932  0.00  0.00    +0.034 A 
ATOM     19  C   UNL     1      -3.413   1.859   4.738  0.00  0.00    +0.022 A 
ATOM     20  C   UNL     1      -2.906   1.417   3.529  0.00  0.00    +0.046 A 
ATOM     21 CL   UNL     1      -2.589  -0.272   3.284  0.00  0.00    -0.083 Cl
BRANCH  17  22
ATOM     22  N   UNL     1      -3.680   5.548   4.127  0.00  0.00    +0.056 N 
ATOM     23  O   UNL     1      -4.127   5.936   5.192  0.00  0.00    -0.126 OA
ATOM     24  O   UNL     1      -3.456   6.346   3.234  0.00  0.00    -0.126 OA
ENDBRANCH  17  22
ENDBRANCH   8  15
BRANCH   1  25
ATOM     25  O   UNL     1      -3.576   3.737  -2.120  0.00  0.00    -0.488 OA
BRANCH  25  26
ATOM     26  C   UNL     1      -4.177   4.182  -3.338  0.00  0.00    +0.257 C 
BRANCH  26  27
ATOM     27  C   UNL     1      -5.378   5.074  -3.017  0.00  0.00    +0.200 C 
BRANCH  27  28
ATOM     28  O   UNL     1      -4.927   6.261  -2.362  0.00  0.00    -0.377 OA
BRANCH  28  30
ATOM     29  C   UNL     1      -5.381   8.396  -1.324  0.00  0.00    +0.034 C 
ATOM     30  C   UNL     1      -5.976   7.168  -2.017  0.00  0.00    +0.156 C 
ENDBRANCH  28  30
ENDBRANCH  27  28
ENDBRANCH  26  27
ENDBRANCH  25  26
ENDBRANCH   1  25
TORSDOF 7
