REMARK  Name = ZINC08346406
REMARK  8 active torsions:
REMARK  status: ('A' for Active; 'I' for Inactive)
REMARK    1  A    between atoms: C_1  and  C_2
REMARK    2  A    between atoms: C_4  and  C_8
REMARK    3  A    between atoms: C_5  and  C_7
REMARK    4  A    between atoms: N_10  and  N_11
REMARK    5  A    between atoms: C_12  and  C_14
REMARK    6  A    between atoms: C_17  and  S_20
REMARK    7  A    between atoms: S_20  and  N_23
REMARK    8  A    between atoms: C_28  and  C_30
REMARK                            x       y       z     vdW  Elec       q    Type
REMARK                         _______ _______ _______ _____ _____    ______ ____
ROOT
ATOM      1  C   UNL     1       6.733   5.764  -0.907  0.00  0.00    +0.038 A 
ATOM      2  C   UNL     1       5.516   6.448  -0.917  0.00  0.00    +0.015 A 
ATOM      3  C   UNL     1       5.492   7.809  -0.693  0.00  0.00    +0.029 A 
ATOM      4  C   UNL     1       6.672   8.498  -0.471  0.00  0.00    +0.106 A 
ATOM      5  C   UNL     1       7.881   7.827  -0.466  0.00  0.00    +0.029 A 
ATOM      6  C   UNL     1       7.919   6.465  -0.683  0.00  0.00    +0.015 A 
ENDROOT
BRANCH   1   8
ATOM      7  N   UNL     1       5.618   3.631  -1.356  0.00  0.00    -0.230 N 
ATOM      8  C   UNL     1       6.765   4.304  -1.140  0.00  0.00    +0.260 C 
ATOM      9  O   UNL     1       7.826   3.712  -1.136  0.00  0.00    -0.269 OA
ATOM     10  H   UNL     1       4.771   4.104  -1.359  0.00  0.00    +0.173 HD
BRANCH   7  13
ATOM     11  C   UNL     1       4.502   1.574  -1.793  0.00  0.00    +0.263 C 
ATOM     12  O   UNL     1       3.440   2.167  -1.797  0.00  0.00    -0.269 OA
ATOM     13  N   UNL     1       5.649   2.248  -1.577  0.00  0.00    -0.230 N 
ATOM     14  H   UNL     1       6.496   1.775  -1.574  0.00  0.00    +0.173 HD
BRANCH  11  18
ATOM     15  C   UNL     1       6.115  -3.226  -2.418  0.00  0.00    +0.086 C 
ATOM     16  C   UNL     1       5.263  -1.988  -2.298  0.00  0.00    +0.103 A 
ATOM     17  C   UNL     1       5.720  -0.750  -2.055  0.00  0.00    +0.057 A 
ATOM     18  C   UNL     1       4.534   0.119  -2.025  0.00  0.00    +0.079 A 
ATOM     19  C   UNL     1       3.470  -0.703  -2.258  0.00  0.00    +0.114 A 
ATOM     20  O   UNL     1       3.927  -1.949  -2.417  0.00  0.00    -0.464 OA
ATOM     21  C   UNL     1       2.027  -0.277  -2.330  0.00  0.00    +0.087 C 
ENDBRANCH  11  18
ENDBRANCH   7  13
ENDBRANCH   1   8
BRANCH   4  22
ATOM     22  S   UNL     1       6.633  10.238  -0.194  0.00  0.00    +0.061 S 
ATOM     23  O   UNL     1       5.334  10.542   0.294  0.00  0.00    -0.153 OA
ATOM     24  O   UNL     1       7.813  10.560   0.529  0.00  0.00    -0.153 OA
BRANCH  22  25
ATOM     25  N   UNL     1       6.768  10.972  -1.671  0.00  0.00    -0.174 NA
ATOM     26  C   UNL     1       5.572  11.421  -2.396  0.00  0.00    +0.110 C 
ATOM     27  C   UNL     1       5.739  12.901  -2.756  0.00  0.00    +0.017 C 
ATOM     28  C   UNL     1       7.048  13.089  -3.526  0.00  0.00    +0.003 C 
ATOM     29  C   UNL     1       8.226  12.670  -2.644  0.00  0.00    +0.020 C 
ATOM     30  C   UNL     1       8.087  11.193  -2.280  0.00  0.00    +0.077 C 
ATOM     31  C   UNL     1       9.182  10.806  -1.284  0.00  0.00    +0.026 C 
ENDBRANCH  22  25
ENDBRANCH   4  22
TORSDOF 5
