REMARK  Name = ZINC45800634
REMARK  9 active torsions:
REMARK  status: ('A' for Active; 'I' for Inactive)
REMARK    1  A    between atoms: C_1  and  C_2
REMARK    2  A    between atoms: C_2  and  C_3
REMARK    3  A    between atoms: C_2  and  C_4
REMARK    4  A    between atoms: C_7  and  C_10
REMARK    5  A    between atoms: C_10  and  O_11
REMARK    6  A    between atoms: O_11  and  C_12
REMARK    7  A    between atoms: C_12  and  C_14
REMARK    8  A    between atoms: C_14  and  O_15
REMARK    9  A    between atoms: O_15  and  C_16
REMARK                            x       y       z     vdW  Elec       q    Type
REMARK                         _______ _______ _______ _____ _____    ______ ____
ROOT
ATOM      1  C   UNL     1       5.481  -0.241  -6.711  0.00  0.00    +0.349 C 
ENDROOT
BRANCH   1   2
ATOM      2  C   UNL     1       4.419  -1.200  -6.238  0.00  0.00    +0.345 C 
ATOM      3  O   UNL     1       4.218  -2.225  -6.844  0.00  0.00    -0.247 OA
BRANCH   2   4
ATOM      4  O   UNL     1       3.696  -0.914  -5.143  0.00  0.00    -0.458 OA
BRANCH   4   5
ATOM      5  C   UNL     1       2.707  -1.868  -4.752  0.00  0.00    +0.267 C 
BRANCH   5   9
ATOM      6  C   UNL     1       0.707  -0.490  -1.238  0.00  0.00    -0.045 A 
ATOM      7  C   UNL     1       0.222  -0.151  -2.487  0.00  0.00    +0.004 A 
ATOM      8  C   UNL     1       0.869  -0.597  -3.624  0.00  0.00    +0.007 A 
ATOM      9  C   UNL     1       2.002  -1.381  -3.513  0.00  0.00    -0.010 A 
ATOM     10  C   UNL     1       2.488  -1.720  -2.263  0.00  0.00    +0.007 A 
ATOM     11  C   UNL     1       1.843  -1.270  -1.126  0.00  0.00    +0.004 A 
BRANCH   6  13
ATOM     12  C   UNL     1      -0.019   1.526   0.010  0.00  0.00    +0.012 C 
ATOM     13  C   UNL     1       0.002  -0.004   0.002  0.00  0.00    +0.013 C 
ATOM     14  C   UNL     1      -1.433  -0.534   0.013  0.00  0.00    +0.012 C 
ENDBRANCH   6  13
ENDBRANCH   5   9
ENDBRANCH   4   5
ENDBRANCH   2   4
ENDBRANCH   1   2
BRANCH   1  15
ATOM     15  O   UNL     1       6.106  -0.763  -7.885  0.00  0.00    -0.481 OA
BRANCH  15  16
ATOM     16  C   UNL     1       7.094  -0.015  -8.444  0.00  0.00    +0.122 A 
ATOM     17  C   UNL     1       7.457   1.195  -7.868  0.00  0.00    +0.047 A 
ATOM     18  C   UNL     1       8.460   1.956  -8.435  0.00  0.00    +0.027 A 
ATOM     19  C   UNL     1       9.106   1.510  -9.580  0.00  0.00    +0.037 A 
ATOM     20  C   UNL     1       8.742   0.300 -10.155  0.00  0.00    -0.022 A 
ATOM     21  C   UNL     1       7.742  -0.463  -9.585  0.00  0.00    +0.051 A 
ATOM     22  C   UNL     1       9.445  -0.182 -11.398  0.00  0.00    +0.046 C 
ATOM     23  C   UNL     1       9.820   1.017 -12.270  0.00  0.00    +0.101 C 
ATOM     24  C   UNL     1      10.498   2.068 -11.433  0.00  0.00    +0.218 C 
ATOM     25  O   UNL     1      11.392   2.732 -11.913  0.00  0.00    -0.275 OA
ATOM     26  N   UNL     1      10.124   2.279 -10.158  0.00  0.00    -0.285 N 
ATOM     27  H   UNL     1      10.562   2.969  -9.635  0.00  0.00    +0.155 HD
ENDBRANCH  15  16
ENDBRANCH   1  15
TORSDOF 7
