REMARK  Name = ZINC39939753
REMARK  7 active torsions:
REMARK  status: ('A' for Active; 'I' for Inactive)
REMARK    1  A    between atoms: C_1  and  C_2
REMARK    2  A    between atoms: C_9  and  C_15
REMARK    3  A    between atoms: C_11  and  O_14
REMARK    4  A    between atoms: N_16  and  C_17
REMARK    5  A    between atoms: C_19  and  C_37
REMARK    6  A    between atoms: N_21  and  C_31
REMARK    7  A    between atoms: N_22  and  C_25
REMARK                            x       y       z     vdW  Elec       q    Type
REMARK                         _______ _______ _______ _____ _____    ______ ____
ROOT
ATOM      1  C   UNL     1       1.915  -5.952   4.891  0.00  0.00    +0.214 C 
ATOM      2  C   UNL     1       2.061  -7.484   4.961  0.00  0.00    +0.125 C 
ATOM      3  N   UNL     1       2.636  -7.737   6.289  0.00  0.00    -0.239 N 
ATOM      4  N   UNL     1       2.821  -6.525   6.950  0.00  0.00    -0.186 N 
ATOM      5  C   UNL     1       2.438  -5.463   6.222  0.00  0.00    +0.263 C 
ATOM      6  O   UNL     1       2.499  -4.304   6.574  0.00  0.00    -0.271 OA
ATOM      7  C   UNL     1       0.693  -8.157   4.831  0.00  0.00    +0.032 C 
ENDROOT
BRANCH   4   8
ATOM      8  C   UNL     1       3.354  -6.423   8.240  0.00  0.00    +0.056 A 
ATOM      9  C   UNL     1       4.532  -7.085   8.561  0.00  0.00    +0.025 A 
ATOM     10  C   UNL     1       5.055  -6.983   9.835  0.00  0.00    +0.002 A 
ATOM     11  C   UNL     1       4.407  -6.222  10.791  0.00  0.00    +0.000 A 
ATOM     12  C   UNL     1       3.233  -5.562  10.475  0.00  0.00    +0.002 A 
ATOM     13  C   UNL     1       2.709  -5.655   9.201  0.00  0.00    +0.025 A 
ENDBRANCH   4   8
BRANCH   3  14
ATOM     14  C   UNL     1       2.948  -8.996   6.807  0.00  0.00    +0.049 A 
ATOM     15  C   UNL     1       2.525  -9.348   8.083  0.00  0.00    +0.025 A 
ATOM     16  C   UNL     1       2.835 -10.594   8.592  0.00  0.00    +0.002 A 
ATOM     17  C   UNL     1       3.565 -11.490   7.834  0.00  0.00    +0.000 A 
ATOM     18  C   UNL     1       3.988 -11.143   6.564  0.00  0.00    +0.002 A 
ATOM     19  C   UNL     1       3.677  -9.901   6.046  0.00  0.00    +0.025 A 
ENDBRANCH   3  14
BRANCH   1  21
ATOM     20  C   UNL     1       0.147  -4.885   3.711  0.00  0.00    +0.099 C 
ATOM     21  N   UNL     1       0.509  -5.579   4.723  0.00  0.00    -0.280 NA
BRANCH  20  30
ATOM     22  C   UNL     1      -2.740   1.311   1.757  0.00  0.00    +0.044 C 
ATOM     23  C   UNL     1      -2.600  -0.187   1.670  0.00  0.00    -0.050 A 
ATOM     24  C   UNL     1      -3.010  -0.844   0.514  0.00  0.00    +0.005 A 
ATOM     25  C   UNL     1      -2.906  -2.196   0.382  0.00  0.00    +0.024 A 
ATOM     26  C   UNL     1      -2.373  -2.965   1.429  0.00  0.00    +0.044 A 
ATOM     27  N   UNL     1      -2.271  -4.294   1.296  0.00  0.00    -0.284 N 
ATOM     28  C   UNL     1      -1.783  -5.084   2.231  0.00  0.00    +0.233 C 
ATOM     29  O   UNL     1      -1.720  -6.285   2.041  0.00  0.00    -0.274 OA
ATOM     30  C   UNL     1      -1.300  -4.500   3.539  0.00  0.00    +0.181 C 
ATOM     31  C   UNL     1      -1.405  -2.997   3.712  0.00  0.00    +0.120 C 
ATOM     32  C   UNL     1      -1.941  -2.272   2.646  0.00  0.00    +0.035 A 
ATOM     33  C   UNL     1      -2.069  -0.870   2.721  0.00  0.00    +0.016 A 
ATOM     34  H   UNL     1      -2.573  -4.697   0.467  0.00  0.00    +0.155 HD
BRANCH  31  35
ATOM     35  O   UNL     1      -1.003  -2.393   4.835  0.00  0.00    -0.509 OA
ATOM     36  H   UNL     1      -1.119  -1.433   4.829  0.00  0.00    +0.292 HD
ENDBRANCH  31  35
ENDBRANCH  20  30
ENDBRANCH   1  21
TORSDOF 5
