REMARK  Name = ZINC63010038
REMARK  4 active torsions:
REMARK  status: ('A' for Active; 'I' for Inactive)
REMARK    1  A    between atoms: C_1  and  C_2
REMARK    2  A    between atoms: C_7  and  C_10
REMARK    3  A    between atoms: C_12  and  C_15
REMARK    4  A    between atoms: C_18  and  N_22
REMARK                            x       y       z     vdW  Elec       q    Type
REMARK                         _______ _______ _______ _____ _____    ______ ____
ROOT
ATOM      1  C   UNL     1       0.755  -0.517   3.721  0.00  0.00    +0.175 A 
ATOM      2  N   UNL     1       1.295   0.253   4.669  0.00  0.00    -0.192 NA
ATOM      3  C   UNL     1       1.854  -0.498   5.592  0.00  0.00    +0.259 A 
ATOM      4  O   UNL     1       1.678  -1.785   5.244  0.00  0.00    -0.333 OA
ATOM      5  N   UNL     1       0.954  -1.769   4.023  0.00  0.00    -0.061 NA
ENDROOT
BRANCH   1  11
ATOM      6  C   UNL     1      -0.019   1.526   0.010  0.00  0.00    +0.007 C 
ATOM      7  C   UNL     1       0.002  -0.004   0.002  0.00  0.00    -0.013 C 
ATOM      8  C   UNL     1      -1.433  -0.534   0.013  0.00  0.00    +0.003 C 
ATOM      9  C   UNL     1      -2.149  -0.040   1.272  0.00  0.00    +0.001 C 
ATOM     10  C   UNL     1      -1.409  -0.547   2.511  0.00  0.00    +0.011 C 
ATOM     11  C   UNL     1       0.026  -0.018   2.500  0.00  0.00    +0.061 C 
ATOM     12  C   UNL     1       0.742  -0.511   1.242  0.00  0.00    +0.014 C 
ENDBRANCH   1  11
BRANCH   3  13
ATOM     13  C   UNL     1       2.554  -0.013   6.798  0.00  0.00    +0.042 A 
ATOM     14  C   UNL     1       2.660   1.359   7.042  0.00  0.00    +0.015 A 
ATOM     15  C   UNL     1       3.313   1.809   8.168  0.00  0.00    +0.026 A 
ATOM     16  C   UNL     1       3.866   0.900   9.064  0.00  0.00    +0.060 A 
ATOM     17  C   UNL     1       3.762  -0.469   8.825  0.00  0.00    +0.145 A 
ATOM     18  C   UNL     1       3.105  -0.925   7.702  0.00  0.00    +0.053 A 
ATOM     19  F   UNL     1       4.301  -1.349   9.696  0.00  0.00    -0.204 F 
BRANCH  16  20
ATOM     20  N   UNL     1       4.526   1.359  10.203  0.00  0.00    -0.356 N 
ATOM     21  H   UNL     1       4.599   2.312  10.370  0.00  0.00    +0.142 HD
ATOM     22  H   UNL     1       4.912   0.726  10.828  0.00  0.00    +0.142 HD
ENDBRANCH  16  20
ENDBRANCH   3  13
TORSDOF 3
