REMARK  Name = ZINC66426444
REMARK  11 active torsions:
REMARK  status: ('A' for Active; 'I' for Inactive)
REMARK    1  A    between atoms: C_1  and  C_2
REMARK    2  A    between atoms: C_5  and  C_8
REMARK    3  A    between atoms: C_8  and  N_9
REMARK    4  A    between atoms: N_12  and  C_13
REMARK    5  A    between atoms: C_13  and  C_14
REMARK    6  A    between atoms: N_16  and  C_17
REMARK    7  A    between atoms: C_20  and  C_24
REMARK    8  A    between atoms: C_21  and  C_23
REMARK    9  A    between atoms: N_26  and  C_27
REMARK   10  A    between atoms: C_27  and  C_28
REMARK   11  A    between atoms: C_27  and  C_29
REMARK                            x       y       z     vdW  Elec       q    Type
REMARK                         _______ _______ _______ _____ _____    ______ ____
ROOT
ATOM      1  C   UNL     1       4.913  -7.895  -0.023  0.00  0.00    +0.234 C 
ATOM      2  O   UNL     1       5.740  -7.008   0.003  0.00  0.00    -0.274 OA
ATOM      3  N   UNL     1       5.307  -9.183  -0.067  0.00  0.00    -0.284 N 
ATOM      4  H   UNL     1       4.649  -9.894  -0.015  0.00  0.00    +0.155 HD
ENDROOT
BRANCH   3   5
ATOM      5  C   UNL     1       6.661  -9.494  -0.186  0.00  0.00    +0.034 A 
ATOM      6  C   UNL     1       7.614  -8.699   0.443  0.00  0.00    +0.024 A 
ATOM      7  C   UNL     1       8.952  -9.003   0.327  0.00  0.00    +0.015 A 
ATOM      8  C   UNL     1       9.352 -10.113  -0.424  0.00  0.00    +0.040 A 
ATOM      9  C   UNL     1       8.392 -10.909  -1.054  0.00  0.00    -0.037 A 
ATOM     10  C   UNL     1       7.056 -10.602  -0.930  0.00  0.00    +0.027 A 
ATOM     11  C   UNL     1       8.819 -12.106  -1.864  0.00  0.00    +0.044 C 
BRANCH   8  12
ATOM     12  C   UNL     1      10.785 -10.442  -0.550  0.00  0.00    +0.245 C 
ATOM     13  O   UNL     1      11.136 -11.364  -1.260  0.00  0.00    -0.270 OA
ATOM     14  N   UNL     1      11.704  -9.719   0.120  0.00  0.00    -0.309 N 
ATOM     15  H   UNL     1      11.424  -8.983   0.686  0.00  0.00    +0.149 HD
BRANCH  14  16
ATOM     16  C   UNL     1      13.127 -10.046  -0.006  0.00  0.00    +0.067 C 
ATOM     17  C   UNL     1      13.701  -9.355  -1.244  0.00  0.00    +0.027 C 
ATOM     18  C   UNL     1      13.873  -9.563   1.240  0.00  0.00    +0.027 C 
ENDBRANCH  14  16
ENDBRANCH   8  12
ENDBRANCH   3   5
BRANCH   1  19
ATOM     19  C   UNL     1       3.444  -7.556  -0.006  0.00  0.00    +0.202 C 
BRANCH  19  23
ATOM     20  N   UNL     1       1.891  -4.226   0.109  0.00  0.00    -0.295 N 
ATOM     21  C   UNL     1       2.043  -5.564   0.064  0.00  0.00    +0.300 C 
ATOM     22  O   UNL     1       1.066  -6.287   0.044  0.00  0.00    -0.253 OA
ATOM     23  N   UNL     1       3.279  -6.102   0.042  0.00  0.00    -0.291 N 
ATOM     24  H   UNL     1       2.671  -3.649   0.125  0.00  0.00    +0.151 HD
ATOM     25  H   UNL     1       4.059  -5.525   0.058  0.00  0.00    +0.151 HD
BRANCH  20  26
ATOM     26  C   UNL     1       0.548  -3.642   0.133  0.00  0.00    +0.141 C 
BRANCH  26  31
ATOM     27  C   UNL     1       0.952   2.120   0.321  0.00  0.00    +0.044 C 
ATOM     28  C   UNL     1       0.847   0.617   0.272  0.00  0.00    -0.050 A 
ATOM     29  C   UNL     1       0.795  -0.033  -0.947  0.00  0.00    +0.003 A 
ATOM     30  C   UNL     1       0.699  -1.411  -0.992  0.00  0.00    +0.005 A 
ATOM     31  C   UNL     1       0.654  -2.139   0.182  0.00  0.00    -0.030 A 
ATOM     32  C   UNL     1       0.707  -1.490   1.401  0.00  0.00    +0.005 A 
ATOM     33  C   UNL     1       0.808  -0.112   1.446  0.00  0.00    +0.003 A 
ENDBRANCH  26  31
ENDBRANCH  20  26
ENDBRANCH  19  23
ENDBRANCH   1  19
TORSDOF 7
