REMARK  Name = ZINC44714163
REMARK  7 active torsions:
REMARK  status: ('A' for Active; 'I' for Inactive)
REMARK    1  A    between atoms: C_1  and  C_2
REMARK    2  A    between atoms: C_3  and  C_9
REMARK    3  A    between atoms: C_4  and  C_8
REMARK    4  A    between atoms: C_9  and  C_11
REMARK    5  A    between atoms: C_9  and  N_12
REMARK    6  A    between atoms: C_13  and  C_15
REMARK    7  A    between atoms: C_26  and  C_28
REMARK                            x       y       z     vdW  Elec       q    Type
REMARK                         _______ _______ _______ _____ _____    ______ ____
ROOT
ATOM      1  C   UNL     1      -3.206  -1.633  -4.836  0.00  0.00    +0.100 C 
ATOM      2  C   UNL     1      -2.348  -2.827  -5.313  0.00  0.00    +0.121 C 
ATOM      3  N   UNL     1      -2.820  -3.100  -6.691  0.00  0.00    -0.296 N 
ATOM      4  C   UNL     1      -3.047  -1.757  -7.277  0.00  0.00    +0.115 C 
ATOM      5  C   UNL     1      -3.662  -0.933  -6.127  0.00  0.00    -0.004 C 
ATOM      6  C   UNL     1      -3.137   0.499  -6.166  0.00  0.00    -0.010 C 
ATOM      7  C   UNL     1      -3.652   1.193  -7.430  0.00  0.00    -0.082 C 
ATOM      8  N   UNL     1      -5.120   1.188  -7.430  0.00  0.00    +0.379 N 
ATOM      9  C   UNL     1      -5.616  -0.193  -7.487  0.00  0.00    -0.082 C 
ATOM     10  C   UNL     1      -5.184  -0.945  -6.226  0.00  0.00    -0.010 C 
ATOM     11  C   UNL     1      -3.003  -4.299  -7.279  0.00  0.00    +0.248 C 
ATOM     12  O   UNL     1      -3.308  -4.359  -8.456  0.00  0.00    -0.270 OA
ATOM     13  H   UNL     1      -5.456   1.630  -6.588  0.00  0.00    -0.086 HD
ATOM     14  H   UNL     1      -5.457   1.698  -8.233  0.00  0.00    -0.086 HD
ENDROOT
BRANCH  11  15
ATOM     15  C   UNL     1      -2.834  -5.532  -6.501  0.00  0.00    +0.052 A 
ATOM     16  C   UNL     1      -1.895  -5.619  -5.523  0.00  0.00    +0.059 A 
ATOM     17  S   UNL     1      -2.041  -7.170  -4.901  0.00  0.00    -0.096 S 
ATOM     18  C   UNL     1      -3.361  -7.788  -5.909  0.00  0.00    +0.020 A 
ATOM     19  C   UNL     1      -3.676  -6.704  -6.750  0.00  0.00    +0.001 A 
ATOM     20  C   UNL     1      -4.715  -6.891  -7.682  0.00  0.00    +0.010 A 
ATOM     21  C   UNL     1      -5.383  -8.088  -7.746  0.00  0.00    +0.001 A 
ATOM     22  C   UNL     1      -5.056  -9.140  -6.903  0.00  0.00    +0.001 A 
ATOM     23  C   UNL     1      -4.034  -8.989  -5.986  0.00  0.00    +0.015 A 
ENDBRANCH  11  15
BRANCH   1  25
ATOM     24  N   UNL     1      -2.983   0.145  -3.131  0.00  0.00    -0.308 N 
ATOM     25  C   UNL     1      -2.379  -0.696  -3.995  0.00  0.00    +0.219 C 
ATOM     26  O   UNL     1      -1.170  -0.698  -4.095  0.00  0.00    -0.275 OA
ATOM     27  H   UNL     1      -3.949   0.146  -3.051  0.00  0.00    +0.149 HD
BRANCH  24  28
ATOM     28  C   UNL     1      -2.179   1.056  -2.313  0.00  0.00    +0.104 C 
ATOM     29  C   UNL     1      -1.624   0.301  -1.104  0.00  0.00    +0.033 C 
BRANCH  28  32
ATOM     30  C   UNL     1      -5.059   0.819  -1.116  0.00  0.00    +0.065 C 
ATOM     31  C   UNL     1      -4.285   2.095  -1.322  0.00  0.00    +0.038 A 
ATOM     32  C   UNL     1      -3.040   2.199  -1.841  0.00  0.00    +0.015 A 
ATOM     33  C   UNL     1      -2.693   3.554  -1.859  0.00  0.00    +0.065 A 
ATOM     34  N   UNL     1      -3.694   4.239  -1.370  0.00  0.00    -0.179 NA
ATOM     35  N   UNL     1      -4.714   3.341  -1.028  0.00  0.00    -0.281 N 
ATOM     36  H   UNL     1      -5.574   3.574  -0.646  0.00  0.00    +0.189 HD
ATOM     37  C   UNL     1      -1.390   4.125  -2.357  0.00  0.00    +0.068 C 
ENDBRANCH  28  32
ENDBRANCH  24  28
ENDBRANCH   1  25
TORSDOF 4
