REMARK  Name = ZINC43212001
REMARK  9 active torsions:
REMARK  status: ('A' for Active; 'I' for Inactive)
REMARK    1  A    between atoms: C_1  and  C_2
REMARK    2  A    between atoms: C_2  and  C_3
REMARK    3  A    between atoms: C_2  and  C_4
REMARK    4  A    between atoms: C_4  and  C_5
REMARK    5  A    between atoms: C_5  and  C_32
REMARK    6  A    between atoms: C_10  and  C_13
REMARK    7  A    between atoms: C_16  and  O_20
REMARK    8  A    between atoms: C_17  and  O_19
REMARK    9  A    between atoms: N_23  and  C_26
REMARK                            x       y       z     vdW  Elec       q    Type
REMARK                         _______ _______ _______ _____ _____    ______ ____
ROOT
ATOM      1  C   UNL     1       0.848   0.059   3.147  0.00  0.00    +0.048 C 
ATOM      2  C   UNL     1       0.866  -0.748   4.461  0.00  0.00    +0.086 C 
ATOM      3  C   UNL     1      -0.530  -1.423   4.533  0.00  0.00    +0.077 C 
ATOM      4  C   UNL     1      -1.266  -0.947   3.263  0.00  0.00    -0.027 C 
ATOM      5  N   UNL     1      -0.172  -0.614   2.304  0.00  0.00    +0.395 N 
ATOM      6  C   UNL     1      -0.212  -2.897   4.418  0.00  0.00    +0.229 C 
ATOM      7  O   UNL     1      -1.029  -3.792   4.429  0.00  0.00    -0.275 OA
ATOM      8  N   UNL     1       1.111  -3.058   4.301  0.00  0.00    -0.210 N 
ATOM      9  C   UNL     1       1.825  -1.908   4.320  0.00  0.00    +0.229 C 
ATOM     10  O   UNL     1       3.031  -1.815   4.235  0.00  0.00    -0.275 OA
ATOM     11  H   UNL     1      -0.512   0.014   1.591  0.00  0.00    -0.083 HD
ATOM     12  H   UNL     1       0.210  -1.450   1.887  0.00  0.00    -0.083 HD
ENDROOT
BRANCH   4  13
ATOM     13  C   UNL     1      -2.118  -2.056   2.703  0.00  0.00    -0.057 A 
ATOM     14  C   UNL     1      -1.539  -3.055   1.944  0.00  0.00    +0.006 A 
ATOM     15  C   UNL     1      -2.317  -4.075   1.428  0.00  0.00    +0.049 A 
ATOM     16  C   UNL     1      -3.681  -4.097   1.672  0.00  0.00    +0.158 A 
ATOM     17  C   UNL     1      -4.264  -3.091   2.436  0.00  0.00    +0.158 A 
ATOM     18  C   UNL     1      -3.478  -2.074   2.954  0.00  0.00    +0.051 A 
BRANCH  17  19
ATOM     19  O   UNL     1      -5.602  -3.108   2.678  0.00  0.00    -0.503 OA
ATOM     20  H   UNL     1      -5.851  -3.588   3.479  0.00  0.00    +0.292 HD
ENDBRANCH  17  19
BRANCH  16  21
ATOM     21  O   UNL     1      -4.447  -5.099   1.165  0.00  0.00    -0.503 OA
ATOM     22  H   UNL     1      -4.531  -5.865   1.749  0.00  0.00    +0.292 HD
ENDBRANCH  16  21
ENDBRANCH   4  13
BRANCH   8  23
ATOM     23  C   UNL     1       1.713  -4.317   4.177  0.00  0.00    +0.044 A 
ATOM     24  C   UNL     1       2.016  -4.823   2.920  0.00  0.00    +0.024 A 
ATOM     25  C   UNL     1       2.610  -6.064   2.801  0.00  0.00    +0.002 A 
ATOM     26  C   UNL     1       2.902  -6.804   3.932  0.00  0.00    +0.000 A 
ATOM     27  C   UNL     1       2.601  -6.303   5.186  0.00  0.00    +0.002 A 
ATOM     28  C   UNL     1       2.013  -5.060   5.311  0.00  0.00    +0.024 A 
ENDBRANCH   8  23
BRANCH   1  29
ATOM     29  C   UNL     1       0.451   1.489   3.410  0.00  0.00    +0.346 C 
ATOM     30  O   UNL     1      -0.594   1.924   2.958  0.00  0.00    -0.248 OA
ATOM     31  O   UNL     1       1.174   2.210   4.077  0.00  0.00    -0.248 OA
ENDBRANCH   1  29
BRANCH   1  32
ATOM     32  C   UNL     1       2.219   0.005   2.469  0.00  0.00    +0.002 C 
BRANCH  32  34
ATOM     33  C   UNL     1       1.814   2.066   1.117  0.00  0.00    +0.007 C 
ATOM     34  C   UNL     1       2.110   0.566   1.050  0.00  0.00    -0.018 C 
ATOM     35  C   UNL     1       3.429   0.339   0.309  0.00  0.00    +0.007 C 
ENDBRANCH  32  34
ENDBRANCH   1  32
TORSDOF 7
