REMARK  Name = ZINC13622967
REMARK  6 active torsions:
REMARK  status: ('A' for Active; 'I' for Inactive)
REMARK    1  A    between atoms: C_4  and  C_7
REMARK    2  A    between atoms: C_7  and  N_8
REMARK    3  A    between atoms: C_10  and  C_15
REMARK    4  A    between atoms: N_17  and  N_18
REMARK    5  A    between atoms: C_19  and  C_21
REMARK    6  A    between atoms: C_25  and  N_27
REMARK                            x       y       z     vdW  Elec       q    Type
REMARK                         _______ _______ _______ _____ _____    ______ ____
ROOT
ATOM      1  C   UNL     1      -1.114  -0.563   0.846  0.00  0.00    +0.234 C 
ATOM      2  O   UNL     1      -1.877   0.187   1.417  0.00  0.00    -0.274 OA
ATOM      3  N   UNL     1      -1.265  -1.897   0.966  0.00  0.00    -0.234 N 
ATOM      4  H   UNL     1      -0.655  -2.497   0.509  0.00  0.00    +0.173 HD
ENDROOT
BRANCH   1   7
ATOM      5  N   UNL     1       1.390   1.951  -0.001  0.00  0.00    -0.296 N 
ATOM      6  C   UNL     1      -0.019   1.541   0.011  0.00  0.00    +0.121 C 
ATOM      7  C   UNL     1       0.002  -0.004   0.002  0.00  0.00    +0.102 C 
ATOM      8  C   UNL     1       1.380  -0.304   0.637  0.00  0.00    +0.110 C 
ATOM      9  C   UNL     1       2.197   0.936   0.353  0.00  0.00    +0.217 C 
ATOM     10  O   UNL     1       3.406   1.005   0.431  0.00  0.00    -0.276 OA
BRANCH   5  11
ATOM     11  C   UNL     1       1.857   3.295  -0.352  0.00  0.00    +0.142 C 
BRANCH  11  15
ATOM     12  C   UNL     1       2.017   5.713   3.165  0.00  0.00    +0.000 A 
ATOM     13  C   UNL     1       3.122   4.977   2.782  0.00  0.00    +0.000 A 
ATOM     14  C   UNL     1       3.070   4.195   1.643  0.00  0.00    +0.005 A 
ATOM     15  C   UNL     1       1.913   4.148   0.889  0.00  0.00    -0.030 A 
ATOM     16  C   UNL     1       0.809   4.888   1.270  0.00  0.00    +0.005 A 
ATOM     17  C   UNL     1       0.860   5.667   2.410  0.00  0.00    +0.000 A 
ENDBRANCH  11  15
ENDBRANCH   5  11
ENDBRANCH   1   7
BRANCH   3  18
ATOM     18  N   UNL     1      -2.303  -2.417   1.751  0.00  0.00    -0.230 N 
ATOM     19  C   UNL     1      -2.454  -3.751   1.871  0.00  0.00    +0.260 C 
ATOM     20  O   UNL     1      -1.689  -4.503   1.298  0.00  0.00    -0.269 OA
ATOM     21  H   UNL     1      -2.913  -1.817   2.208  0.00  0.00    +0.173 HD
BRANCH  19  22
ATOM     22  C   UNL     1      -3.549  -4.299   2.699  0.00  0.00    +0.040 A 
ATOM     23  C   UNL     1      -4.428  -3.438   3.358  0.00  0.00    +0.013 A 
ATOM     24  C   UNL     1      -5.448  -3.957   4.128  0.00  0.00    +0.003 A 
ATOM     25  C   UNL     1      -5.600  -5.327   4.249  0.00  0.00    +0.033 A 
ATOM     26  C   UNL     1      -4.732  -6.186   3.599  0.00  0.00    +0.127 A 
ATOM     27  C   UNL     1      -3.711  -5.680   2.821  0.00  0.00    +0.045 A 
BRANCH  26  28
ATOM     28  N   UNL     1      -4.903  -7.650   3.733  0.00  0.00    +0.056 N 
ATOM     29  O   UNL     1      -5.807  -8.097   4.416  0.00  0.00    -0.126 OA
ATOM     30  O   UNL     1      -4.139  -8.407   3.162  0.00  0.00    -0.126 OA
ENDBRANCH  26  28
ENDBRANCH  19  22
ENDBRANCH   3  18
TORSDOF 6
