REMARK  Name = ZINC67514754
REMARK  7 active torsions:
REMARK  status: ('A' for Active; 'I' for Inactive)
REMARK    1  A    between atoms: C_1  and  C_2
REMARK    2  A    between atoms: C_5  and  C_8
REMARK    3  A    between atoms: C_8  and  C_10
REMARK    4  A    between atoms: C_8  and  N_13
REMARK    5  A    between atoms: C_10  and  C_11
REMARK    6  A    between atoms: C_11  and  O_12
REMARK    7  A    between atoms: C_15  and  C_18
REMARK                            x       y       z     vdW  Elec       q    Type
REMARK                         _______ _______ _______ _____ _____    ______ ____
ROOT
ATOM      1  N   UNL     1       1.321  -4.751   0.553  0.00  0.00    -0.244 N 
ATOM      2  C   UNL     1       1.947  -4.223   1.627  0.00  0.00    +0.139 A 
ATOM      3  C   UNL     1       3.077  -4.970   1.810  0.00  0.00    +0.113 A 
ATOM      4  N   UNL     1       3.069  -5.904   0.841  0.00  0.00    -0.129 NA
ATOM      5  N   UNL     1       2.015  -5.744   0.122  0.00  0.00    -0.065 NA
ENDROOT
BRANCH   3   6
ATOM      6  C   UNL     1       4.102  -4.789   2.864  0.00  0.00    +0.014 A 
ATOM      7  C   UNL     1       3.985  -3.782   3.813  0.00  0.00    +0.030 A 
ATOM      8  C   UNL     1       4.964  -3.640   4.788  0.00  0.00    +0.112 A 
ATOM      9  N   UNL     1       6.008  -4.432   4.842  0.00  0.00    -0.255 NA
ATOM     10  C   UNL     1       6.187  -5.423   3.962  0.00  0.00    +0.072 A 
ATOM     11  C   UNL     1       5.232  -5.641   2.939  0.00  0.00    +0.010 A 
ATOM     12  C   UNL     1       5.422  -6.684   2.023  0.00  0.00    +0.010 A 
ATOM     13  C   UNL     1       6.521  -7.482   2.129  0.00  0.00    +0.001 A 
ATOM     14  C   UNL     1       7.460  -7.274   3.137  0.00  0.00    +0.002 A 
ATOM     15  C   UNL     1       7.312  -6.262   4.035  0.00  0.00    +0.028 A 
ENDBRANCH   3   6
BRANCH   1  16
ATOM     16  C   UNL     1       0.059  -4.275  -0.021  0.00  0.00    +0.141 C 
BRANCH  16  21
ATOM     17  C   UNL     1      -0.223   1.478   0.439  0.00  0.00    +0.044 C 
ATOM     18  C   UNL     1      -0.149  -0.022   0.319  0.00  0.00    -0.050 A 
ATOM     19  C   UNL     1      -0.006  -0.610  -0.924  0.00  0.00    +0.004 A 
ATOM     20  C   UNL     1       0.061  -1.986  -1.034  0.00  0.00    +0.006 A 
ATOM     21  C   UNL     1      -0.013  -2.775   0.099  0.00  0.00    -0.023 A 
ATOM     22  C   UNL     1      -0.155  -2.187   1.342  0.00  0.00    +0.006 A 
ATOM     23  C   UNL     1      -0.219  -0.811   1.453  0.00  0.00    +0.004 A 
ENDBRANCH  16  21
BRANCH  16  24
ATOM     24  C   UNL     1      -1.113  -4.905   0.733  0.00  0.00    +0.059 C 
BRANCH  24  25
ATOM     25  C   UNL     1      -2.427  -4.508   0.056  0.00  0.00    +0.158 C 
BRANCH  25  26
ATOM     26  O   UNL     1      -3.522  -5.096   0.760  0.00  0.00    -0.395 OA
ATOM     27  H   UNL     1      -4.389  -4.886   0.386  0.00  0.00    +0.209 HD
ENDBRANCH  25  26
ENDBRANCH  24  25
ENDBRANCH  16  24
ENDBRANCH   1  16
TORSDOF 6
