REMARK  Name = ZINC12714236
REMARK  8 active torsions:
REMARK  status: ('A' for Active; 'I' for Inactive)
REMARK    1  A    between atoms: C_2  and  C_3
REMARK    2  A    between atoms: C_3  and  N_4
REMARK    3  A    between atoms: C_5  and  C_7
REMARK    4  A    between atoms: C_7  and  C_8
REMARK    5  A    between atoms: C_15  and  C_16
REMARK    6  A    between atoms: C_15  and  N_55
REMARK    7  A    between atoms: C_16  and  C_17
REMARK    8  A    between atoms: C_16  and  C_23
REMARK                            x       y       z     vdW  Elec       q    Type
REMARK                         _______ _______ _______ _____ _____    ______ ____
ROOT
ATOM      1  C   UNL     1      -2.286   5.150   2.301  0.00  0.00    +0.028 C 
ATOM      2  C   UNL     1      -3.241   5.753   3.292  0.00  0.00    +0.200 C 
ATOM      3  O   UNL     1      -3.222   5.351   4.436  0.00  0.00    -0.278 OA
ATOM      4  N   UNL     1      -4.111   6.714   2.968  0.00  0.00    -0.318 N 
ATOM      5  C   UNL     1      -4.242   7.240   1.613  0.00  0.00    +0.085 C 
ATOM      6  C   UNL     1      -2.999   6.891   0.792  0.00  0.00    -0.059 C 
ATOM      7  H   UNL     1      -4.681   7.077   3.664  0.00  0.00    +0.149 HD
ATOM      8  N   UNL     1      -2.751   5.442   0.932  0.00  0.00    +0.389 N 
ATOM      9  H   UNL     1      -3.626   4.934   0.759  0.00  0.00    -0.081 HD
ENDROOT
BRANCH   1  10
ATOM     10  C   UNL     1      -2.240   3.634   2.498  0.00  0.00    +0.089 C 
BRANCH  10  12
ATOM     11  N   UNL     1      -3.765   1.709   2.201  0.00  0.00    -0.312 N 
ATOM     12  C   UNL     1      -3.593   3.046   2.193  0.00  0.00    +0.212 C 
ATOM     13  O   UNL     1      -4.528   3.776   1.940  0.00  0.00    -0.276 OA
ATOM     14  H   UNL     1      -3.017   1.125   2.403  0.00  0.00    +0.149 HD
BRANCH  11  15
ATOM     15  C   UNL     1      -5.081   1.138   1.904  0.00  0.00    +0.131 C 
BRANCH  15  17
ATOM     16  C   UNL     1      -5.820  -1.025   2.762  0.00  0.00    +0.005 C 
ATOM     17  C   UNL     1      -5.004  -0.366   1.978  0.00  0.00    -0.016 C 
ENDBRANCH  15  17
ENDBRANCH  11  15
ENDBRANCH  10  12
ENDBRANCH   1  10
BRANCH   8  18
ATOM     18  C   UNL     1      -1.736   5.002  -0.052  0.00  0.00    -0.065 C 
BRANCH  18  19
ATOM     19  C   UNL     1      -0.579   6.002  -0.102  0.00  0.00    +0.032 C 
BRANCH  19  20
ATOM     20  C   UNL     1       0.183   5.955   1.198  0.00  0.00    -0.042 A 
ATOM     21  C   UNL     1       0.341   7.104   1.949  0.00  0.00    +0.004 A 
ATOM     22  C   UNL     1       1.035   7.059   3.144  0.00  0.00    +0.000 A 
ATOM     23  C   UNL     1       1.580   5.867   3.582  0.00  0.00    +0.000 A 
ATOM     24  C   UNL     1       1.426   4.718   2.829  0.00  0.00    +0.000 A 
ATOM     25  C   UNL     1       0.728   4.762   1.637  0.00  0.00    +0.004 A 
ENDBRANCH  19  20
BRANCH  19  26
ATOM     26  C   UNL     1       0.345   5.646  -1.238  0.00  0.00    -0.042 A 
ATOM     27  C   UNL     1       0.808   4.351  -1.372  0.00  0.00    +0.004 A 
ATOM     28  C   UNL     1       1.651   4.023  -2.418  0.00  0.00    +0.000 A 
ATOM     29  C   UNL     1       2.039   4.993  -3.322  0.00  0.00    +0.000 A 
ATOM     30  C   UNL     1       1.580   6.290  -3.185  0.00  0.00    +0.000 A 
ATOM     31  C   UNL     1       0.733   6.617  -2.143  0.00  0.00    +0.004 A 
ENDBRANCH  19  26
ENDBRANCH  18  19
ENDBRANCH   8  18
TORSDOF 8
