REMARK  Name = ZINC07462068
REMARK  9 active torsions:
REMARK  status: ('A' for Active; 'I' for Inactive)
REMARK    1  A    between atoms: C_1  and  C_2
REMARK    2  A    between atoms: C_5  and  O_11
REMARK    3  A    between atoms: C_6  and  N_8
REMARK    4  A    between atoms: O_11  and  C_12
REMARK    5  A    between atoms: C_12  and  C_13
REMARK    6  A    between atoms: N_15  and  C_16
REMARK    7  A    between atoms: C_16  and  C_17
REMARK    8  A    between atoms: C_16  and  C_18
REMARK    9  A    between atoms: C_16  and  C_19
REMARK                            x       y       z     vdW  Elec       q    Type
REMARK                         _______ _______ _______ _____ _____    ______ ____
ROOT
ATOM      1  C   UNL     1       0.060  -4.277  -0.018  0.00  0.00    +0.044 C 
ATOM      2  C   UNL     1       0.040  -2.770  -0.012  0.00  0.00    -0.048 A 
ATOM      3  C   UNL     1       1.228  -2.064  -0.020  0.00  0.00    +0.007 A 
ATOM      4  C   UNL     1       1.212  -0.683  -0.013  0.00  0.00    +0.048 A 
ATOM      5  C   UNL     1       0.002  -0.004   0.002  0.00  0.00    +0.151 A 
ATOM      6  C   UNL     1      -1.189  -0.715   0.015  0.00  0.00    +0.168 A 
ATOM      7  C   UNL     1      -1.167  -2.096   0.003  0.00  0.00    +0.039 A 
ENDROOT
BRANCH   6   8
ATOM      8  N   UNL     1      -2.482   0.005   0.037  0.00  0.00    +0.060 N 
ATOM      9  O   UNL     1      -3.527  -0.619   0.049  0.00  0.00    -0.126 OA
ATOM     10  O   UNL     1      -2.500   1.223   0.044  0.00  0.00    -0.126 OA
ENDBRANCH   6   8
BRANCH   5  11
ATOM     11  O   UNL     1      -0.016   1.355   0.009  0.00  0.00    -0.480 OA
BRANCH  11  12
ATOM     12  C   UNL     1       1.248   2.021   0.001  0.00  0.00    +0.324 C 
BRANCH  12  13
ATOM     13  C   UNL     1       1.030   3.512   0.011  0.00  0.00    +0.251 C 
ATOM     14  O   UNL     1      -0.097   3.960   0.024  0.00  0.00    -0.272 OA
ATOM     15  N   UNL     1       2.088   4.347   0.005  0.00  0.00    -0.308 N 
ATOM     16  H   UNL     1       2.989   3.989  -0.005  0.00  0.00    +0.149 HD
BRANCH  15  17
ATOM     17  C   UNL     1       1.876   5.797   0.015  0.00  0.00    +0.026 C 
ATOM     18  C   UNL     1       1.101   6.191   1.274  0.00  0.00    +0.031 C 
ATOM     19  C   UNL     1       3.230   6.510   0.006  0.00  0.00    +0.031 C 
ATOM     20  C   UNL     1       1.077   6.204  -1.224  0.00  0.00    +0.031 C 
ENDBRANCH  15  17
ENDBRANCH  12  13
ENDBRANCH  11  12
ENDBRANCH   5  11
TORSDOF 5
