REMARK  Name = ZINC22090069
REMARK  8 active torsions:
REMARK  status: ('A' for Active; 'I' for Inactive)
REMARK    1  A    between atoms: C_1  and  C_2
REMARK    2  A    between atoms: C_4  and  N_20
REMARK    3  A    between atoms: C_6  and  S_8
REMARK    4  A    between atoms: S_8  and  C_9
REMARK    5  A    between atoms: C_9  and  C_11
REMARK    6  A    between atoms: C_9  and  C_14
REMARK    7  A    between atoms: C_11  and  C_12
REMARK    8  A    between atoms: C_11  and  C_13
REMARK                            x       y       z     vdW  Elec       q    Type
REMARK                         _______ _______ _______ _____ _____    ______ ____
ROOT
ATOM      1  C   UNL     1       0.603  -0.503  -1.314  0.00  0.00    +0.143 C 
ENDROOT
BRANCH   1   2
ATOM      2  C   UNL     1       0.348  -1.987  -1.264  0.00  0.00    +0.234 C 
ATOM      3  O   UNL     1      -0.621  -2.455  -1.821  0.00  0.00    -0.274 OA
ATOM      4  N   UNL     1       1.199  -2.794  -0.599  0.00  0.00    -0.239 N 
ATOM      5  C   UNL     1       0.971  -4.122  -0.554  0.00  0.00    +0.303 C 
ATOM      6  O   UNL     1      -0.001  -4.591  -1.113  0.00  0.00    -0.253 OA
ATOM      7  N   UNL     1       1.821  -4.929   0.111  0.00  0.00    -0.313 N 
ATOM      8  H   UNL     1       2.078  -2.370  -0.093  0.00  0.00    +0.159 HD
ATOM      9  H   UNL     1       1.636  -6.013   0.148  0.00  0.00    +0.146 HD
ATOM     10  H   UNL     1       2.701  -4.505   0.617  0.00  0.00    +0.146 HD
ENDBRANCH   1   2
BRANCH   1  11
ATOM     11  C   UNL     1       0.131   0.140  -0.008  0.00  0.00    +0.005 C 
ATOM     12  C   UNL     1       0.421   1.642  -0.045  0.00  0.00    +0.009 C 
ATOM     13  C   UNL     1       0.875  -0.494   1.170  0.00  0.00    +0.009 C 
ENDBRANCH   1  11
BRANCH   1  14
ATOM     14  S   UNL     1      -0.306   0.218  -2.703  0.00  0.00    -0.073 S 
BRANCH  14  20
ATOM     15  C   UNL     1       0.280  -0.575  -7.725  0.00  0.00    +0.066 C 
ATOM     16  C   UNL     1       0.781  -0.816  -6.325  0.00  0.00    +0.044 A 
ATOM     17  C   UNL     1       1.909  -1.584  -6.110  0.00  0.00    +0.066 A 
ATOM     18  C   UNL     1       2.339  -1.783  -4.796  0.00  0.00    +0.121 A 
ATOM     19  N   UNL     1       1.656  -1.224  -3.802  0.00  0.00    -0.207 NA
ATOM     20  C   UNL     1       0.576  -0.498  -4.050  0.00  0.00    +0.191 A 
ATOM     21  N   UNL     1       0.145  -0.294  -5.287  0.00  0.00    -0.227 NA
BRANCH  18  22
ATOM     22  N   UNL     1       3.466  -2.546  -4.533  0.00  0.00    -0.343 N 
ATOM     23  H   UNL     1       3.797  -2.697  -3.496  0.00  0.00    +0.144 HD
ATOM     24  H   UNL     1       4.028  -3.000  -5.362  0.00  0.00    +0.144 HD
ENDBRANCH  18  22
ENDBRANCH  14  20
ENDBRANCH   1  14
TORSDOF 5
