REMARK  Name = ZINC29055794
REMARK  6 active torsions:
REMARK  status: ('A' for Active; 'I' for Inactive)
REMARK    1  A    between atoms: C_6  and  N_34
REMARK    2  A    between atoms: C_8  and  N_10
REMARK    3  A    between atoms: C_16  and  C_18
REMARK    4  A    between atoms: C_18  and  C_19
REMARK    5  A    between atoms: C_19  and  S_20
REMARK    6  A    between atoms: S_20  and  C_23
REMARK                            x       y       z     vdW  Elec       q    Type
REMARK                         _______ _______ _______ _____ _____    ______ ____
ROOT
ATOM      1  N   UNL     1      -0.872   2.862  -6.061  0.00  0.00    -0.313 N 
ATOM      2  C   UNL     1       0.074   1.766  -6.311  0.00  0.00    +0.125 C 
ATOM      3  C   UNL     1      -0.235   0.603  -5.363  0.00  0.00    +0.126 C 
ATOM      4  N   UNL     1      -0.244   1.114  -3.984  0.00  0.00    -0.298 N 
ATOM      5  C   UNL     1      -1.070   2.294  -3.685  0.00  0.00    +0.126 C 
ATOM      6  C   UNL     1      -0.724   3.394  -4.700  0.00  0.00    +0.125 C 
ATOM      7  C   UNL     1       0.480   0.514  -3.019  0.00  0.00    +0.217 C 
ATOM      8  O   UNL     1       1.151  -0.461  -3.282  0.00  0.00    -0.276 OA
ENDROOT
BRANCH   1  16
ATOM      9  C   UNL     1       0.590   5.576  -8.034  0.00  0.00    +0.007 A 
ATOM     10  C   UNL     1      -0.432   5.870  -8.884  0.00  0.00    +0.045 A 
ATOM     11  C   UNL     1      -1.638   5.146  -8.796  0.00  0.00    +0.118 A 
ATOM     12  N   UNL     1      -2.771   5.215  -9.478  0.00  0.00    -0.344 N 
ATOM     13  C   UNL     1      -3.626   4.298  -9.007  0.00  0.00    +0.126 A 
ATOM     14  C   UNL     1      -3.025   3.624  -7.997  0.00  0.00    +0.120 A 
ATOM     15  N   UNL     1      -1.766   4.151  -7.854  0.00  0.00    -0.270 N 
ATOM     16  C   UNL     1      -0.731   3.864  -7.004  0.00  0.00    +0.108 A 
ATOM     17  C   UNL     1       0.434   4.563  -7.078  0.00  0.00    +0.042 A 
ATOM     18  H   UNL     1      -2.881   5.952 -10.287  0.00  0.00    +0.167 HD
BRANCH  14  19
ATOM     19  N   UNL     1      -3.583   2.584  -7.241  0.00  0.00    -0.343 N 
ATOM     20  H   UNL     1      -2.995   2.110  -6.441  0.00  0.00    +0.144 HD
ATOM     21  H   UNL     1      -4.608   2.243  -7.447  0.00  0.00    +0.144 HD
ENDBRANCH  14  19
ENDBRANCH   1  16
BRANCH   7  22
ATOM     22  C   UNL     1       0.456   1.054  -1.612  0.00  0.00    +0.119 C 
BRANCH  22  23
ATOM     23  C   UNL     1       1.356   0.197  -0.720  0.00  0.00    +0.181 C 
BRANCH  23  24
ATOM     24  S   UNL     1       1.326   0.847   0.973  0.00  0.00    -0.003 S 
ATOM     25  O   UNL     1       1.959   2.119   1.019  0.00  0.00    -0.169 OA
ATOM     26  O   UNL     1       0.041   0.656   1.548  0.00  0.00    -0.169 OA
BRANCH  24  27
ATOM     27  C   UNL     1       2.392  -0.219   1.886  0.00  0.00    +0.089 A 
ATOM     28  C   UNL     1       1.863  -1.350   2.506  0.00  0.00    +0.027 A 
ATOM     29  C   UNL     1       2.659  -2.196   3.214  0.00  0.00    +0.010 A 
ATOM     30  C   UNL     1       4.033  -1.923   3.333  0.00  0.00    -0.016 A 
ATOM     31  C   UNL     1       4.885  -2.771   4.061  0.00  0.00    +0.028 A 
ATOM     32  C   UNL     1       6.211  -2.475   4.155  0.00  0.00    +0.042 A 
ATOM     33  C   UNL     1       6.738  -1.340   3.539  0.00  0.00    +0.020 A 
ATOM     34  C   UNL     1       5.942  -0.497   2.826  0.00  0.00    +0.010 A 
ATOM     35  C   UNL     1       4.569  -0.770   2.707  0.00  0.00    -0.016 A 
ATOM     36  C   UNL     1       3.716   0.077   1.980  0.00  0.00    +0.035 A 
ATOM     37 CL   UNL     1       7.260  -3.524   5.056  0.00  0.00    -0.084 Cl
ENDBRANCH  24  27
ENDBRANCH  23  24
ENDBRANCH  22  23
ENDBRANCH   7  22
TORSDOF 6
