REMARK  Name = ZINC39583522
REMARK  5 active torsions:
REMARK  status: ('A' for Active; 'I' for Inactive)
REMARK    1  A    between atoms: C_3  and  O_25
REMARK    2  A    between atoms: C_6  and  C_7
REMARK    3  A    between atoms: N_8  and  N_9
REMARK    4  A    between atoms: C_10  and  C_12
REMARK    5  A    between atoms: C_15  and  C_18
REMARK                            x       y       z     vdW  Elec       q    Type
REMARK                         _______ _______ _______ _____ _____    ______ ____
ROOT
ATOM      1  N   UNL     1      -2.446  -2.777   0.011  0.00  0.00    -0.205 N 
ATOM      2  C   UNL     1      -2.425  -4.125   0.004  0.00  0.00    +0.263 C 
ATOM      3  O   UNL     1      -1.365  -4.715  -0.010  0.00  0.00    -0.271 OA
ATOM      4  H   UNL     1      -3.293  -2.305   0.022  0.00  0.00    +0.177 HD
ENDROOT
BRANCH   2   5
ATOM      5  C   UNL     1      -3.718  -4.898   0.013  0.00  0.00    +0.240 C 
ATOM      6  C   UNL     1      -4.290  -5.003  -1.390  0.00  0.00    +0.041 C 
ATOM      7  C   UNL     1      -4.310  -6.328  -1.632  0.00  0.00    +0.092 C 
ATOM      8  N   UNL     1      -3.829  -7.013  -0.562  0.00  0.00    -0.153 NA
ATOM      9  N   UNL     1      -3.482  -6.302   0.389  0.00  0.00    -0.170 NA
BRANCH   7  10
ATOM     10  C   UNL     1      -4.792  -6.952  -2.889  0.00  0.00    +0.002 A 
ATOM     11  C   UNL     1      -5.262  -6.154  -3.930  0.00  0.00    +0.011 A 
ATOM     12  C   UNL     1      -5.708  -6.738  -5.098  0.00  0.00    +0.020 A 
ATOM     13  C   UNL     1      -5.690  -8.116  -5.236  0.00  0.00    +0.041 A 
ATOM     14  C   UNL     1      -5.223  -8.913  -4.205  0.00  0.00    +0.020 A 
ATOM     15  C   UNL     1      -4.769  -8.338  -3.035  0.00  0.00    +0.011 A 
ATOM     16 CL   UNL     1      -6.254  -8.845  -6.706  0.00  0.00    -0.084 Cl
ENDBRANCH   7  10
ENDBRANCH   2   5
BRANCH   1  18
ATOM     17  C   UNL     1      -1.263  -0.761   0.011  0.00  0.00    +0.138 C 
ATOM     18  N   UNL     1      -1.243  -2.058   0.003  0.00  0.00    -0.188 NA
BRANCH  17  24
ATOM     19  C   UNL     1      -0.017   1.393   0.010  0.00  0.00    +0.013 A 
ATOM     20  C   UNL     1       1.168   2.096   0.002  0.00  0.00    +0.046 A 
ATOM     21  C   UNL     1       2.380   1.418  -0.013  0.00  0.00    +0.117 A 
ATOM     22  C   UNL     1       2.404   0.029  -0.021  0.00  0.00    +0.046 A 
ATOM     23  C   UNL     1       1.224  -0.682  -0.014  0.00  0.00    +0.013 A 
ATOM     24  C   UNL     1       0.002  -0.004   0.002  0.00  0.00    -0.005 A 
BRANCH  21  25
ATOM     25  O   UNL     1       3.546   2.115  -0.022  0.00  0.00    -0.507 OA
ATOM     26  H   UNL     1       3.893   2.313   0.859  0.00  0.00    +0.292 HD
ENDBRANCH  21  25
ENDBRANCH  17  24
ENDBRANCH   1  18
TORSDOF 5
