REMARK  Name = ZINC09615204
REMARK  7 active torsions:
REMARK  status: ('A' for Active; 'I' for Inactive)
REMARK    1  A    between atoms: C_1  and  C_2
REMARK    2  A    between atoms: C_10  and  N_13
REMARK    3  A    between atoms: C_14  and  C_16
REMARK    4  A    between atoms: C_19  and  C_22
REMARK    5  A    between atoms: C_22  and  C_23
REMARK    6  A    between atoms: C_22  and  C_24
REMARK    7  A    between atoms: C_22  and  C_25
REMARK                            x       y       z     vdW  Elec       q    Type
REMARK                         _______ _______ _______ _____ _____    ______ ____
ROOT
ATOM      1  N   UNL     1       3.563  -0.704  -0.034  0.00  0.00    -0.276 N 
ATOM      2  C   UNL     1       3.565  -2.049   0.061  0.00  0.00    +0.248 C 
ATOM      3  O   UNL     1       2.513  -2.659   0.068  0.00  0.00    -0.270 OA
ATOM      4  H   UNL     1       4.402  -0.222  -0.108  0.00  0.00    +0.155 HD
ENDROOT
BRANCH   1  14
ATOM      5  C   UNL     1      -1.442   3.112   1.142  0.00  0.00    +0.047 C 
ATOM      6  C   UNL     1      -1.198   2.093   0.058  0.00  0.00    -0.008 A 
ATOM      7  C   UNL     1      -2.144   1.864  -0.895  0.00  0.00    +0.008 A 
ATOM      8  C   UNL     1      -1.904   0.908  -1.893  0.00  0.00    +0.019 A 
ATOM      9  C   UNL     1      -0.739   0.224  -1.912  0.00  0.00    +0.096 A 
ATOM     10  N   UNL     1       0.217   0.450  -0.967  0.00  0.00    -0.266 N 
ATOM     11  C   UNL     1       0.012   1.375   0.020  0.00  0.00    +0.143 A 
ATOM     12  N   UNL     1       0.939   1.603   0.947  0.00  0.00    -0.235 NA
ATOM     13  C   UNL     1       2.089   0.947   0.951  0.00  0.00    +0.142 A 
ATOM     14  C   UNL     1       2.349  -0.001  -0.025  0.00  0.00    +0.118 A 
ATOM     15  C   UNL     1       1.374  -0.246  -1.008  0.00  0.00    +0.280 A 
ATOM     16  O   UNL     1       1.570  -1.074  -1.884  0.00  0.00    -0.265 OA
ENDBRANCH   1  14
BRANCH   2  17
ATOM     17  C   UNL     1       4.845  -2.781   0.158  0.00  0.00    +0.037 A 
ATOM     18  C   UNL     1       6.054  -2.084   0.145  0.00  0.00    +0.013 A 
ATOM     19  C   UNL     1       7.245  -2.774   0.240  0.00  0.00    +0.005 A 
ATOM     20  C   UNL     1       7.243  -4.154   0.337  0.00  0.00    -0.042 A 
ATOM     21  C   UNL     1       6.048  -4.851   0.345  0.00  0.00    +0.005 A 
ATOM     22  C   UNL     1       4.850  -4.174   0.256  0.00  0.00    +0.013 A 
BRANCH  20  23
ATOM     23  C   UNL     1       8.549  -4.901   0.435  0.00  0.00    -0.013 C 
ATOM     24  C   UNL     1       8.674  -5.867  -0.745  0.00  0.00    +0.015 C 
ATOM     25  C   UNL     1       9.710  -3.905   0.405  0.00  0.00    +0.015 C 
ATOM     26  C   UNL     1       8.587  -5.690   1.746  0.00  0.00    +0.015 C 
ENDBRANCH  20  23
ENDBRANCH   2  17
TORSDOF 3
