REMARK  Name = ZINC44864500
REMARK  8 active torsions:
REMARK  status: ('A' for Active; 'I' for Inactive)
REMARK    1  A    between atoms: C_1  and  C_2
REMARK    2  A    between atoms: C_5  and  C_21
REMARK    3  A    between atoms: C_10  and  C_12
REMARK    4  A    between atoms: C_12  and  C_14
REMARK    5  A    between atoms: C_12  and  C_17
REMARK    6  A    between atoms: C_14  and  C_15
REMARK    7  A    between atoms: C_14  and  C_16
REMARK    8  A    between atoms: N_18  and  O_19
REMARK                            x       y       z     vdW  Elec       q    Type
REMARK                         _______ _______ _______ _____ _____    ______ ____
ROOT
ATOM      1  C   UNL     1       3.129  -2.065   1.370  0.00  0.00    +0.144 C 
ENDROOT
BRANCH   1   9
ATOM      2  C   UNL     1      -0.038   1.681   0.550  0.00  0.00    +0.009 C 
ATOM      3  C   UNL     1      -0.004   0.168   0.328  0.00  0.00    +0.004 C 
ATOM      4  C   UNL     1      -1.435  -0.373   0.273  0.00  0.00    +0.009 C 
ATOM      5  C   UNL     1      -1.402  -1.882   0.018  0.00  0.00    +0.004 C 
ATOM      6  C   UNL     1      -0.667  -2.574   1.170  0.00  0.00    +0.111 C 
ATOM      7  N   UNL     1       0.658  -1.959   1.323  0.00  0.00    -0.300 N 
ATOM      8  C   UNL     1       0.747  -0.501   1.483  0.00  0.00    +0.111 C 
ATOM      9  C   UNL     1       1.772  -2.718   1.317  0.00  0.00    +0.226 C 
ATOM     10  O   UNL     1       1.682  -3.927   1.269  0.00  0.00    -0.275 OA
ATOM     11  C   UNL     1      -0.671  -2.162  -1.296  0.00  0.00    +0.009 C 
ENDBRANCH   1   9
BRANCH   1  12
ATOM     12  C   UNL     1       3.616  -1.805  -0.032  0.00  0.00    +0.144 C 
ATOM     13  N   UNL     1       4.391  -2.658  -0.616  0.00  0.00    -0.076 NA
ATOM     14  N   UNL     1       3.236  -0.657  -0.691  0.00  0.00    -0.343 N 
ATOM     15  H   UNL     1       2.654  -0.016  -0.253  0.00  0.00    +0.144 HD
ATOM     16  H   UNL     1       3.549  -0.489  -1.594  0.00  0.00    +0.144 HD
BRANCH  13  17
ATOM     17  O   UNL     1       4.848  -2.413  -1.933  0.00  0.00    -0.408 OA
ATOM     18  H   UNL     1       5.422  -3.107  -2.286  0.00  0.00    +0.328 HD
ENDBRANCH  13  17
ENDBRANCH   1  12
BRANCH   1  19
ATOM     19  C   UNL     1       4.113  -2.991   2.088  0.00  0.00    +0.002 C 
ATOM     20  C   UNL     1       5.487  -2.321   2.156  0.00  0.00    +0.008 C 
ATOM     21  C   UNL     1       3.610  -3.269   3.506  0.00  0.00    +0.008 C 
ENDBRANCH   1  19
TORSDOF 4
