REMARK  Name = ZINC02416903
REMARK  7 active torsions:
REMARK  status: ('A' for Active; 'I' for Inactive)
REMARK    1  A    between atoms: C_1  and  C_2
REMARK    2  A    between atoms: C_2  and  C_3
REMARK    3  A    between atoms: C_3  and  C_4
REMARK    4  A    between atoms: C_4  and  C_5
REMARK    5  A    between atoms: C_11  and  N_15
REMARK    6  A    between atoms: N_15  and  C_16
REMARK    7  A    between atoms: C_16  and  C_17
REMARK                            x       y       z     vdW  Elec       q    Type
REMARK                         _______ _______ _______ _____ _____    ______ ____
ROOT
ATOM      1  C   UNL     1      -1.705  10.481  -2.654  0.00  0.00    +0.046 A 
ATOM      2  C   UNL     1      -2.363  10.075  -3.806  0.00  0.00    -0.022 A 
ATOM      3  C   UNL     1      -2.500   8.732  -4.080  0.00  0.00    -0.031 A 
ATOM      4  C   UNL     1      -1.964   7.784  -3.181  0.00  0.00    +0.037 A 
ATOM      5  C   UNL     1      -2.003   6.314  -3.291  0.00  0.00    +0.093 A 
ATOM      6  C   UNL     1      -1.390   5.606  -2.250  0.00  0.00    +0.080 A 
ATOM      7  C   UNL     1      -1.366   4.218  -2.248  0.00  0.00    +0.136 A 
ATOM      8  N   UNL     1      -1.936   3.575  -3.266  0.00  0.00    -0.220 NA
ATOM      9  C   UNL     1      -2.515   4.258  -4.237  0.00  0.00    +0.224 A 
ATOM     10  N   UNL     1      -2.556   5.566  -4.272  0.00  0.00    -0.234 NA
ATOM     11  S   UNL     1      -0.779   6.858  -1.155  0.00  0.00    -0.064 S 
ATOM     12  C   UNL     1      -1.317   8.299  -2.044  0.00  0.00    +0.111 A 
ATOM     13  N   UNL     1      -1.208   9.591  -1.818  0.00  0.00    -0.244 NA
ATOM     14  C   UNL     1      -3.245   8.539  -5.379  0.00  0.00    +0.036 C 
ATOM     15  C   UNL     1      -3.930   9.895  -5.654  0.00  0.00    +0.009 C 
ATOM     16  C   UNL     1      -3.012  10.887  -4.907  0.00  0.00    +0.037 C 
ENDROOT
BRANCH   7  17
ATOM     17  N   UNL     1      -0.759   3.519  -1.216  0.00  0.00    -0.326 N 
ATOM     18  H   UNL     1      -0.344   4.000  -0.483  0.00  0.00    +0.148 HD
BRANCH  17  19
ATOM     19  C   UNL     1      -0.745   2.054  -1.233  0.00  0.00    +0.134 C 
BRANCH  19  20
ATOM     20  C   UNL     1      -0.019   1.537   0.011  0.00  0.00    +0.135 C 
ATOM     21  C   UNL     1       0.002  -0.004   0.002  0.00  0.00    +0.035 C 
ATOM     22  C   UNL     1       1.508  -0.363   0.039  0.00  0.00    +0.031 C 
ATOM     23  C   UNL     1       2.138   0.935   0.603  0.00  0.00    +0.160 C 
ATOM     24  O   UNL     1       1.348   1.983  -0.000  0.00  0.00    -0.375 OA
ENDBRANCH  19  20
ENDBRANCH  17  19
ENDBRANCH   7  17
BRANCH   1  25
ATOM     25  C   UNL     1      -1.558  11.951  -2.355  0.00  0.00    +0.056 C 
BRANCH  25  26
ATOM     26  C   UNL     1      -0.259  12.470  -2.975  0.00  0.00    +0.006 C 
BRANCH  26  28
ATOM     27  C   UNL     1       1.189  14.480  -3.293  0.00  0.00    +0.004 C 
ATOM     28  C   UNL     1      -0.110  13.962  -2.673  0.00  0.00    -0.003 C 
ENDBRANCH  26  28
ENDBRANCH  25  26
ENDBRANCH   1  25
TORSDOF 6
