REMARK  Name = ZINC00422675
REMARK  7 active torsions:
REMARK  status: ('A' for Active; 'I' for Inactive)
REMARK    1  A    between atoms: C_1  and  C_2
REMARK    2  A    between atoms: C_5  and  C_23
REMARK    3  A    between atoms: C_6  and  N_8
REMARK    4  A    between atoms: C_9  and  C_11
REMARK    5  A    between atoms: C_12  and  N_22
REMARK    6  A    between atoms: C_14  and  C_21
REMARK    7  A    between atoms: C_16  and  C_20
REMARK                            x       y       z     vdW  Elec       q    Type
REMARK                         _______ _______ _______ _____ _____    ______ ____
ROOT
ATOM      1  C   UNL     1      -1.196  -2.348   0.970  0.00  0.00    +0.097 A 
ATOM      2  C   UNL     1      -2.228  -3.234   1.185  0.00  0.00    +0.054 A 
ATOM      3  C   UNL     1      -1.913  -4.651   1.280  0.00  0.00    +0.032 A 
ATOM      4  C   UNL     1      -2.793  -5.742   1.493  0.00  0.00    -0.037 A 
ATOM      5  C   UNL     1      -2.275  -7.014   1.556  0.00  0.00    +0.027 A 
ATOM      6  C   UNL     1      -0.912  -7.224   1.413  0.00  0.00    +0.040 A 
ATOM      7  N   UNL     1      -0.096  -6.207   1.216  0.00  0.00    -0.245 NA
ATOM      8  C   UNL     1      -0.543  -4.972   1.148  0.00  0.00    +0.111 A 
ATOM      9  S   UNL     1       0.242  -3.398   0.900  0.00  0.00    -0.062 S 
ATOM     10  C   UNL     1      -0.359  -8.624   1.484  0.00  0.00    +0.065 C 
ATOM     11  C   UNL     1      -4.274  -5.510   1.648  0.00  0.00    +0.044 C 
ENDROOT
BRANCH   1  13
ATOM     12  N   UNL     1      -0.135  -0.227   0.636  0.00  0.00    -0.281 N 
ATOM     13  C   UNL     1      -1.262  -0.938   0.840  0.00  0.00    +0.257 C 
ATOM     14  O   UNL     1      -2.336  -0.369   0.913  0.00  0.00    -0.269 OA
ATOM     15  H   UNL     1       0.712  -0.685   0.516  0.00  0.00    +0.155 HD
BRANCH  12  21
ATOM     16  C   UNL     1      -2.643   3.888  -0.332  0.00  0.00    +0.044 C 
ATOM     17  C   UNL     1      -1.390   3.191   0.132  0.00  0.00    -0.049 A 
ATOM     18  C   UNL     1      -0.289   3.933   0.519  0.00  0.00    +0.004 A 
ATOM     19  C   UNL     1       0.862   3.297   0.945  0.00  0.00    +0.005 A 
ATOM     20  C   UNL     1       0.917   1.918   0.985  0.00  0.00    -0.029 A 
ATOM     21  C   UNL     1      -0.187   1.169   0.597  0.00  0.00    +0.037 A 
ATOM     22  C   UNL     1      -1.341   1.811   0.165  0.00  0.00    +0.027 A 
ATOM     23  C   UNL     1       2.172   1.226   1.449  0.00  0.00    +0.045 C 
ENDBRANCH  12  21
ENDBRANCH   1  13
BRANCH   2  24
ATOM     24  N   UNL     1      -3.537  -2.787   1.305  0.00  0.00    -0.356 N 
ATOM     25  H   UNL     1      -3.715  -1.888   1.621  0.00  0.00    +0.142 HD
ATOM     26  H   UNL     1      -4.273  -3.374   1.073  0.00  0.00    +0.142 HD
ENDBRANCH   2  24
TORSDOF 3
