REMARK  Name = ZINC03227083
REMARK  5 active torsions:
REMARK  status: ('A' for Active; 'I' for Inactive)
REMARK    1  A    between atoms: C_4  and  S_7
REMARK    2  A    between atoms: S_7  and  N_10
REMARK    3  A    between atoms: N_10  and  C_11
REMARK    4  A    between atoms: C_23  and  S_25
REMARK    5  A    between atoms: S_25  and  C_26
REMARK                            x       y       z     vdW  Elec       q    Type
REMARK                         _______ _______ _______ _____ _____    ______ ____
ROOT
ATOM      1  C   UNL     1       1.734   5.462   0.015  0.00  0.00    +0.125 C 
ATOM      2  C   UNL     1       2.222   4.033   0.002  0.00  0.00    -0.019 A 
ATOM      3  C   UNL     1       3.448   3.441  -0.013  0.00  0.00    +0.006 A 
ATOM      4  C   UNL     1       3.558   2.049  -0.022  0.00  0.00    +0.001 A 
ATOM      5  C   UNL     1       2.467   1.229  -0.015  0.00  0.00    +0.008 A 
ATOM      6  C   UNL     1       1.187   1.807   0.000  0.00  0.00    -0.017 A 
ATOM      7  C   UNL     1       1.100   3.211   0.009  0.00  0.00    -0.009 A 
ATOM      8  C   UNL     1      -0.115   3.889   0.024  0.00  0.00    -0.024 A 
ATOM      9  C   UNL     1      -1.258   3.150   0.031  0.00  0.00    +0.005 A 
ATOM     10  C   UNL     1      -1.197   1.754   0.017  0.00  0.00    +0.001 A 
ATOM     11  C   UNL     1      -0.013   1.076   0.008  0.00  0.00    +0.008 A 
ATOM     12  C   UNL     1       0.193   5.366   0.029  0.00  0.00    +0.107 C 
ENDROOT
BRANCH   1  13
ATOM     13  N   UNL     1       2.211   6.150   1.216  0.00  0.00    -0.181 NA
ATOM     14  H   UNL     1       1.748   6.030   2.060  0.00  0.00    +0.149 HD
BRANCH  13  15
ATOM     15  S   UNL     1       3.542   7.133   1.135  0.00  0.00    +0.059 S 
ATOM     16  O   UNL     1       3.732   7.668   2.437  0.00  0.00    -0.153 OA
ATOM     17  O   UNL     1       4.551   6.396   0.459  0.00  0.00    -0.153 OA
BRANCH  15  21
ATOM     18  C   UNL     1       2.469  10.617  -1.549  0.00  0.00    +0.000 A 
ATOM     19  C   UNL     1       2.239  10.697  -0.189  0.00  0.00    +0.002 A 
ATOM     20  C   UNL     1       2.567   9.633   0.631  0.00  0.00    +0.028 A 
ATOM     21  C   UNL     1       3.124   8.489   0.090  0.00  0.00    +0.105 A 
ATOM     22  C   UNL     1       3.358   8.412  -1.270  0.00  0.00    +0.028 A 
ATOM     23  C   UNL     1       3.026   9.473  -2.091  0.00  0.00    +0.002 A 
ENDBRANCH  15  21
ENDBRANCH  13  15
ENDBRANCH   1  13
BRANCH  12  24
ATOM     24  S   UNL     1      -0.471   6.142   1.528  0.00  0.00    -0.087 S 
BRANCH  24  25
ATOM     25  C   UNL     1      -2.218   6.003   1.342  0.00  0.00    +0.161 A 
ATOM     26  N   UNL     1      -2.914   5.472   0.354  0.00  0.00    -0.133 NA
ATOM     27  N   UNL     1      -4.288   5.465   0.413  0.00  0.00    -0.125 NA
ATOM     28  C   UNL     1      -4.904   5.998   1.450  0.00  0.00    +0.180 A 
ATOM     29  S   UNL     1      -3.520   6.550   2.435  0.00  0.00    -0.025 S 
ATOM     30  N   UNL     1      -6.266   6.102   1.708  0.00  0.00    -0.336 N 
ATOM     31  H   UNL     1      -6.574   6.526   2.524  0.00  0.00    +0.144 HD
ATOM     32  H   UNL     1      -6.908   5.751   1.071  0.00  0.00    +0.144 HD
ENDBRANCH  24  25
ENDBRANCH  12  24
TORSDOF 5
