REMARK  Name = ZINC53047024
REMARK  6 active torsions:
REMARK  status: ('A' for Active; 'I' for Inactive)
REMARK    1  A    between atoms: C_1  and  C_2
REMARK    2  A    between atoms: C_2  and  C_14
REMARK    3  A    between atoms: C_3  and  C_4
REMARK    4  A    between atoms: N_6  and  C_7
REMARK    5  A    between atoms: C_7  and  C_12
REMARK    6  A    between atoms: C_12  and  O_13
REMARK                            x       y       z     vdW  Elec       q    Type
REMARK                         _______ _______ _______ _____ _____    ______ ____
ROOT
ATOM      1  C   UNL     1       0.771  -1.284   3.036  0.00  0.00    +0.237 C 
ATOM      2  O   UNL     1       1.850  -1.351   3.592  0.00  0.00    -0.271 OA
ATOM      3  N   UNL     1      -0.274  -0.705   3.660  0.00  0.00    -0.304 N 
ATOM      4  H   UNL     1      -1.119  -0.601   3.196  0.00  0.00    +0.150 HD
ENDROOT
BRANCH   3   5
ATOM      5  C   UNL     1      -0.132  -0.231   5.039  0.00  0.00    +0.058 C 
ATOM      6  C   UNL     1      -1.500   0.231   5.582  0.00  0.00    +0.028 C 
ATOM      7  C   UNL     1      -2.040  -1.003   6.348  0.00  0.00    +0.002 C 
ATOM      8  C   UNL     1      -0.764  -1.580   7.010  0.00  0.00    +0.002 C 
ATOM      9  C   UNL     1       0.336  -1.382   5.946  0.00  0.00    +0.028 C 
BRANCH   5  10
ATOM     10  C   UNL     1       0.872   0.923   5.096  0.00  0.00    +0.181 C 
BRANCH  10  11
ATOM     11  O   UNL     1       0.484   1.937   4.167  0.00  0.00    -0.393 OA
ATOM     12  H   UNL     1       1.077   2.701   4.149  0.00  0.00    +0.209 HD
ENDBRANCH  10  11
ENDBRANCH   5  10
ENDBRANCH   3   5
BRANCH   1  15
ATOM     13  C   UNL     1       3.046  -2.111   1.582  0.00  0.00    +0.039 C 
ATOM     14  C   UNL     1       1.661  -2.298   1.018  0.00  0.00    -0.071 C 
ATOM     15  C   UNL     1       0.605  -1.836   1.682  0.00  0.00    +0.066 C 
ATOM     16  C   UNL     1       1.472  -3.009  -0.297  0.00  0.00    +0.039 C 
ENDBRANCH   1  15
TORSDOF 4
