REMARK  Name = ZINC09461420
REMARK  8 active torsions:
REMARK  status: ('A' for Active; 'I' for Inactive)
REMARK    1  A    between atoms: C_1  and  C_2
REMARK    2  A    between atoms: C_3  and  C_8
REMARK    3  A    between atoms: C_4  and  C_7
REMARK    4  A    between atoms: C_8  and  O_9
REMARK    5  A    between atoms: O_9  and  C_10
REMARK    6  A    between atoms: C_13  and  C_16
REMARK    7  A    between atoms: N_18  and  N_19
REMARK    8  A    between atoms: N_19  and  C_20
REMARK                            x       y       z     vdW  Elec       q    Type
REMARK                         _______ _______ _______ _____ _____    ______ ____
ROOT
ATOM      1  C   UNL     1      -2.990  -1.643  -1.465  0.00  0.00    +0.121 A 
ATOM      2  C   UNL     1      -3.487  -2.351  -0.376  0.00  0.00    +0.046 A 
ATOM      3  C   UNL     1      -4.498  -3.269  -0.553  0.00  0.00    +0.016 A 
ATOM      4  C   UNL     1      -5.016  -3.498  -1.830  0.00  0.00    +0.038 A 
ATOM      5  C   UNL     1      -4.510  -2.789  -2.923  0.00  0.00    +0.016 A 
ATOM      6  C   UNL     1      -3.503  -1.868  -2.737  0.00  0.00    +0.046 A 
ENDROOT
BRANCH   4   7
ATOM      7  C   UNL     1      -6.096  -4.485  -2.025  0.00  0.00    +0.260 C 
ATOM      8  O   UNL     1      -6.546  -4.682  -3.137  0.00  0.00    -0.269 OA
ATOM      9  N   UNL     1      -6.583  -5.168  -0.970  0.00  0.00    -0.232 N 
ATOM     10  H   UNL     1      -6.223  -5.011  -0.083  0.00  0.00    +0.173 HD
BRANCH   9  11
ATOM     11  N   UNL     1      -7.607  -6.106  -1.154  0.00  0.00    -0.261 N 
ATOM     12  H   UNL     1      -7.910  -6.323  -2.050  0.00  0.00    +0.170 HD
BRANCH  11  13
ATOM     13  C   UNL     1      -8.194  -6.728  -0.047  0.00  0.00    +0.081 A 
ATOM     14  C   UNL     1      -8.603  -8.053  -0.129  0.00  0.00    +0.066 A 
ATOM     15  C   UNL     1      -9.179  -8.666   0.968  0.00  0.00    +0.042 A 
ATOM     16  C   UNL     1      -9.357  -7.958   2.144  0.00  0.00    +0.044 A 
ATOM     17  C   UNL     1      -8.955  -6.637   2.227  0.00  0.00    +0.042 A 
ATOM     18  C   UNL     1      -8.375  -6.019   1.135  0.00  0.00    +0.066 A 
ATOM     19 CL   UNL     1      -7.871  -4.362   1.240  0.00  0.00    -0.081 Cl
ATOM     20 CL   UNL     1     -10.085  -8.730   3.518  0.00  0.00    -0.083 Cl
ATOM     21 CL   UNL     1      -8.386  -8.940  -1.605  0.00  0.00    -0.081 Cl
ENDBRANCH  11  13
ENDBRANCH   9  11
ENDBRANCH   4   7
BRANCH   1  22
ATOM     22  O   UNL     1      -1.998  -0.736  -1.286  0.00  0.00    -0.487 OA
BRANCH  22  23
ATOM     23  C   UNL     1      -1.516  -0.554   0.047  0.00  0.00    +0.269 C 
BRANCH  23  26
ATOM     24  C   UNL     1       1.671  -1.027  -0.331  0.00  0.00    +0.069 C 
ATOM     25  C   UNL     1       0.966   0.286  -0.113  0.00  0.00    +0.087 A 
ATOM     26  C   UNL     1      -0.425   0.484   0.051  0.00  0.00    +0.054 A 
ATOM     27  C   UNL     1      -0.548   1.823   0.211  0.00  0.00    +0.141 A 
ATOM     28  O   UNL     1       0.691   2.330   0.141  0.00  0.00    -0.359 OA
ATOM     29  N   UNL     1       1.516   1.464  -0.039  0.00  0.00    -0.083 NA
ATOM     30  C   UNL     1      -1.827   2.593   0.421  0.00  0.00    +0.089 C 
ENDBRANCH  23  26
ENDBRANCH  22  23
ENDBRANCH   1  22
TORSDOF 6
