REMARK  Name = ZINC09074086
REMARK  7 active torsions:
REMARK  status: ('A' for Active; 'I' for Inactive)
REMARK    1  A    between atoms: C_1  and  C_2
REMARK    2  A    between atoms: C_5  and  N_9
REMARK    3  A    between atoms: C_6  and  C_8
REMARK    4  A    between atoms: C_13  and  C_15
REMARK    5  A    between atoms: C_15  and  O_16
REMARK    6  A    between atoms: O_16  and  C_17
REMARK    7  A    between atoms: C_17  and  C_19
REMARK                            x       y       z     vdW  Elec       q    Type
REMARK                         _______ _______ _______ _____ _____    ______ ____
ROOT
ATOM      1  N   UNL     1      10.828   0.139  -0.135  0.00  0.00    -0.269 N 
ATOM      2  C   UNL     1       9.570   0.622  -0.118  0.00  0.00    +0.310 C 
ATOM      3  O   UNL     1       9.380   1.822  -0.098  0.00  0.00    -0.252 OA
ATOM      4  N   UNL     1       8.523  -0.227  -0.125  0.00  0.00    -0.237 N 
ATOM      5  C   UNL     1       7.264   0.256  -0.108  0.00  0.00    +0.258 C 
ATOM      6  O   UNL     1       7.075   1.454  -0.088  0.00  0.00    -0.272 OA
ATOM      7  H   UNL     1      10.982  -0.817  -0.069  0.00  0.00    +0.156 HD
ATOM      8  H   UNL     1       8.674  -1.185  -0.141  0.00  0.00    +0.159 HD
ENDROOT
BRANCH   1  13
ATOM      9  C   UNL     1      15.225   3.695  -0.588  0.00  0.00    +0.044 C 
ATOM     10  C   UNL     1      14.057   2.750  -0.468  0.00  0.00    -0.050 A 
ATOM     11  C   UNL     1      12.816   3.123  -0.950  0.00  0.00    +0.005 A 
ATOM     12  C   UNL     1      11.743   2.260  -0.840  0.00  0.00    +0.024 A 
ATOM     13  C   UNL     1      11.913   1.016  -0.247  0.00  0.00    +0.038 A 
ATOM     14  C   UNL     1      13.159   0.646   0.240  0.00  0.00    -0.029 A 
ATOM     15  C   UNL     1      14.229   1.512   0.123  0.00  0.00    +0.008 A 
ATOM     16  C   UNL     1      13.347  -0.701   0.890  0.00  0.00    +0.045 C 
ENDBRANCH   1  13
BRANCH   5  17
ATOM     17  C   UNL     1       6.093  -0.692  -0.116  0.00  0.00    +0.328 C 
BRANCH  17  18
ATOM     18  O   UNL     1       4.856   0.067  -0.095  0.00  0.00    -0.452 OA
BRANCH  18  19
ATOM     19  C   UNL     1       3.706  -0.636  -0.098  0.00  0.00    +0.340 C 
ATOM     20  O   UNL     1       3.737  -1.851  -0.118  0.00  0.00    -0.245 OA
BRANCH  19  21
ATOM     21  C   UNL     1       2.412   0.067  -0.078  0.00  0.00    +0.061 A 
ATOM     22  C   UNL     1       2.377   1.465  -0.056  0.00  0.00    +0.016 A 
ATOM     23  C   UNL     1       1.166   2.119  -0.040  0.00  0.00    +0.017 A 
ATOM     24  C   UNL     1      -0.018   1.393  -0.045  0.00  0.00    +0.030 A 
ATOM     25  C   UNL     1       0.002  -0.006  -0.063  0.00  0.00    +0.048 A 
ATOM     26  C   UNL     1       1.221  -0.663  -0.082  0.00  0.00    +0.039 A 
ATOM     27  N   UNL     1      -1.176  -0.750  -0.057  0.00  0.00    -0.284 N 
ATOM     28  C   UNL     1      -2.378  -0.325  -0.436  0.00  0.00    +0.227 C 
ATOM     29  O   UNL     1      -3.305  -1.104  -0.382  0.00  0.00    -0.275 OA
ATOM     30  C   UNL     1      -2.650   1.070  -0.930  0.00  0.00    +0.170 C 
ATOM     31  S   UNL     1      -1.573   2.229  -0.036  0.00  0.00    -0.114 S 
ATOM     32  H   UNL     1      -1.113  -1.667   0.253  0.00  0.00    +0.155 HD
ENDBRANCH  19  21
ENDBRANCH  18  19
ENDBRANCH  17  18
ENDBRANCH   5  17
TORSDOF 5
