REMARK  Name = ZINC09077035
REMARK  10 active torsions:
REMARK  status: ('A' for Active; 'I' for Inactive)
REMARK    1  A    between atoms: C_1  and  C_2
REMARK    2  A    between atoms: C_2  and  C_3
REMARK    3  A    between atoms: C_3  and  C_5
REMARK    4  A    between atoms: C_3  and  N_6
REMARK    5  A    between atoms: C_10  and  C_12
REMARK    6  A    between atoms: C_12  and  N_13
REMARK    7  A    between atoms: C_16  and  C_20
REMARK    8  A    between atoms: C_16  and  C_22
REMARK    9  A    between atoms: C_20  and  C_21
REMARK   10  A    between atoms: C_25  and  C_28
REMARK                            x       y       z     vdW  Elec       q    Type
REMARK                         _______ _______ _______ _____ _____    ______ ____
ROOT
ATOM      1  N   UNL     1      -7.480   0.829   3.657  0.00  0.00    -0.215 N 
ATOM      2  C   UNL     1      -8.304  -0.222   3.837  0.00  0.00    +0.251 C 
ATOM      3  O   UNL     1      -7.996  -1.344   4.176  0.00  0.00    -0.272 OA
ATOM      4  C   UNL     1      -9.696   0.291   3.527  0.00  0.00    +0.138 C 
ATOM      5  N   UNL     1      -9.474   1.705   3.176  0.00  0.00    -0.281 N 
ATOM      6  C   UNL     1      -8.152   1.925   3.286  0.00  0.00    +0.310 C 
ATOM      7  O   UNL     1      -7.625   2.999   3.069  0.00  0.00    -0.252 OA
ATOM      8  H   UNL     1     -10.150   2.351   2.919  0.00  0.00    +0.152 HD
ENDROOT
BRANCH   4   9
ATOM      9  C   UNL     1     -10.292  -0.460   2.365  0.00  0.00    -0.015 A 
ATOM     10  C   UNL     1     -11.037  -1.602   2.589  0.00  0.00    +0.006 A 
ATOM     11  C   UNL     1     -11.588  -2.288   1.522  0.00  0.00    +0.004 A 
ATOM     12  C   UNL     1     -11.385  -1.838   0.232  0.00  0.00    -0.050 A 
ATOM     13  C   UNL     1     -10.635  -0.699   0.007  0.00  0.00    +0.004 A 
ATOM     14  C   UNL     1     -10.089  -0.009   1.074  0.00  0.00    +0.006 A 
ATOM     15  C   UNL     1     -11.981  -2.589  -0.931  0.00  0.00    +0.044 C 
ENDBRANCH   4   9
BRANCH   4  16
ATOM     16  C   UNL     1     -10.598   0.178   4.758  0.00  0.00    +0.037 C 
ATOM     17  C   UNL     1     -10.066   1.089   5.866  0.00  0.00    +0.007 C 
ENDBRANCH   4  16
BRANCH   1  18
ATOM     18  C   UNL     1      -6.029   0.779   3.851  0.00  0.00    +0.214 C 
BRANCH  18  23
ATOM     19  N   UNL     1      -2.082  -0.162   1.273  0.00  0.00    -0.297 N 
ATOM     20  C   UNL     1      -3.424  -0.053   1.334  0.00  0.00    +0.306 C 
ATOM     21  O   UNL     1      -4.096  -0.264   0.344  0.00  0.00    -0.252 OA
ATOM     22  N   UNL     1      -4.020   0.289   2.493  0.00  0.00    -0.239 N 
ATOM     23  C   UNL     1      -5.362   0.397   2.554  0.00  0.00    +0.238 C 
ATOM     24  O   UNL     1      -6.033   0.187   1.567  0.00  0.00    -0.274 OA
ATOM     25  H   UNL     1      -1.545   0.006   2.063  0.00  0.00    +0.151 HD
ATOM     26  H   UNL     1      -3.483   0.457   3.284  0.00  0.00    +0.159 HD
BRANCH  19  27
ATOM     27  C   UNL     1      -1.433  -0.534   0.013  0.00  0.00    +0.071 C 
ATOM     28  C   UNL     1      -1.416  -2.058  -0.121  0.00  0.00    +0.028 C 
BRANCH  27  30
ATOM     29  C   UNL     1      -0.019   1.526   0.010  0.00  0.00    +0.005 C 
ATOM     30  C   UNL     1       0.002  -0.004   0.002  0.00  0.00    +0.019 C 
ENDBRANCH  27  30
ENDBRANCH  19  27
ENDBRANCH  18  23
ENDBRANCH   1  18
TORSDOF 6
