REMARK  Name = ZINC15803478
REMARK  8 active torsions:
REMARK  status: ('A' for Active; 'I' for Inactive)
REMARK    1  A    between atoms: C_1  and  C_2
REMARK    2  A    between atoms: C_2  and  C_4
REMARK    3  A    between atoms: C_2  and  O_15
REMARK    4  A    between atoms: N_6  and  C_7
REMARK    5  A    between atoms: C_8  and  C_12
REMARK    6  A    between atoms: O_15  and  C_16
REMARK    7  A    between atoms: C_16  and  C_18
REMARK    8  A    between atoms: C_20  and  C_28
REMARK                            x       y       z     vdW  Elec       q    Type
REMARK                         _______ _______ _______ _____ _____    ______ ____
ROOT
ATOM      1  C   UNL     1       2.815  -3.812  -0.644  0.00  0.00    +0.341 C 
ATOM      2  O   UNL     1       1.902  -4.429  -1.154  0.00  0.00    -0.245 OA
ENDROOT
BRANCH   1   3
ATOM      3  C   UNL     1       4.191  -4.348  -0.698  0.00  0.00    +0.070 A 
ATOM      4  C   UNL     1       5.271  -3.614  -0.228  0.00  0.00    +0.044 A 
ATOM      5  C   UNL     1       6.560  -4.165  -0.294  0.00  0.00    +0.072 A 
ATOM      6  N   UNL     1       6.789  -5.359  -0.800  0.00  0.00    -0.247 NA
ATOM      7  C   UNL     1       5.812  -6.130  -1.279  0.00  0.00    +0.072 A 
ATOM      8  C   UNL     1       4.471  -5.672  -1.255  0.00  0.00    +0.014 A 
ATOM      9  C   UNL     1       3.449  -6.484  -1.759  0.00  0.00    +0.011 A 
ATOM     10  C   UNL     1       3.753  -7.711  -2.268  0.00  0.00    +0.001 A 
ATOM     11  C   UNL     1       5.069  -8.167  -2.295  0.00  0.00    +0.002 A 
ATOM     12  C   UNL     1       6.088  -7.402  -1.814  0.00  0.00    +0.028 A 
BRANCH   5  13
ATOM     13  C   UNL     1       7.704  -3.373   0.217  0.00  0.00    +0.001 A 
ATOM     14  C   UNL     1       7.491  -2.103   0.752  0.00  0.00    +0.013 A 
ATOM     15  C   UNL     1       8.558  -1.371   1.230  0.00  0.00    +0.039 A 
ATOM     16  C   UNL     1       9.841  -1.892   1.171  0.00  0.00    +0.123 A 
ATOM     17  C   UNL     1      10.057  -3.152   0.635  0.00  0.00    +0.039 A 
ATOM     18  C   UNL     1       8.996  -3.893   0.159  0.00  0.00    +0.013 A 
ATOM     19  F   UNL     1      10.884  -1.170   1.636  0.00  0.00    -0.205 F 
ENDBRANCH   5  13
ENDBRANCH   1   3
BRANCH   1  20
ATOM     20  O   UNL     1       2.573  -2.638  -0.029  0.00  0.00    -0.449 OA
BRANCH  20  22
ATOM     21  C   UNL     1       0.492  -2.706   1.234  0.00  0.00    +0.062 C 
ATOM     22  C   UNL     1       1.198  -2.172  -0.015  0.00  0.00    +0.259 C 
BRANCH  22  23
ATOM     23  C   UNL     1       1.177  -0.665   0.003  0.00  0.00    +0.258 C 
ATOM     24  O   UNL     1       2.220  -0.045   0.002  0.00  0.00    -0.271 OA
ATOM     25  N   UNL     1       0.002  -0.007   0.018  0.00  0.00    -0.276 N 
ATOM     26  H   UNL     1      -0.832  -0.503   0.018  0.00  0.00    +0.155 HD
BRANCH  25  27
ATOM     27  C   UNL     1      -0.017   1.379   0.034  0.00  0.00    +0.084 A 
ATOM     28  C   UNL     1      -1.118   2.228   0.045  0.00  0.00    +0.065 A 
ATOM     29  C   UNL     1      -0.844   3.645   0.064  0.00  0.00    +0.022 A 
ATOM     30  C   UNL     1       0.447   4.022   0.059  0.00  0.00    +0.048 A 
ATOM     31  S   UNL     1       1.325   2.473   0.036  0.00  0.00    -0.081 S 
BRANCH  28  32
ATOM     32  C   UNL     1      -2.489   1.709   0.041  0.00  0.00    +0.244 C 
ATOM     33  O   UNL     1      -2.685   0.508   0.028  0.00  0.00    -0.270 OA
ATOM     34  N   UNL     1      -3.532   2.562   0.053  0.00  0.00    -0.325 N 
ATOM     35  H   UNL     1      -3.376   3.519   0.063  0.00  0.00    +0.145 HD
ATOM     36  H   UNL     1      -4.440   2.219   0.050  0.00  0.00    +0.145 HD
ENDBRANCH  28  32
ENDBRANCH  25  27
ENDBRANCH  22  23
ENDBRANCH  20  22
ENDBRANCH   1  20
TORSDOF 7
