REMARK  Name = ZINC35555268
REMARK  7 active torsions:
REMARK  status: ('A' for Active; 'I' for Inactive)
REMARK    1  A    between atoms: C_1  and  C_2
REMARK    2  A    between atoms: C_3  and  S_13
REMARK    3  A    between atoms: C_5  and  C_7
REMARK    4  A    between atoms: C_9  and  C_12
REMARK    5  A    between atoms: S_13  and  N_16
REMARK    6  A    between atoms: C_20  and  C_23
REMARK    7  A    between atoms: N_25  and  C_26
REMARK                            x       y       z     vdW  Elec       q    Type
REMARK                         _______ _______ _______ _____ _____    ______ ____
ROOT
ATOM      1  S   UNL     1      -2.767  -0.081   0.130  0.00  0.00    +0.062 S 
ATOM      2  O   UNL     1      -2.450  -1.446   0.365  0.00  0.00    -0.153 OA
ATOM      3  O   UNL     1      -1.857   0.817  -0.491  0.00  0.00    -0.153 OA
ENDROOT
BRANCH   1   6
ATOM      4  C   UNL     1      -5.452  -1.769   0.672  0.00  0.00    +0.053 C 
ATOM      5  C   UNL     1      -5.299  -0.833  -0.500  0.00  0.00    +0.014 A 
ATOM      6  C   UNL     1      -4.233  -0.066  -0.848  0.00  0.00    +0.116 A 
ATOM      7  C   UNL     1      -4.313   0.723  -1.972  0.00  0.00    +0.048 A 
ATOM      8  C   UNL     1      -5.470   0.709  -2.707  0.00  0.00    +0.062 A 
ATOM      9  S   UNL     1      -6.470  -0.454  -1.793  0.00  0.00    -0.088 S 
BRANCH   8  10
ATOM     10  C   UNL     1      -5.800   1.456  -3.937  0.00  0.00    +0.209 A 
ATOM     11  N   UNL     1      -6.968   1.394  -4.605  0.00  0.00    -0.191 NA
ATOM     12  C   UNL     1      -6.929   2.176  -5.645  0.00  0.00    +0.225 A 
ATOM     13  O   UNL     1      -5.730   2.772  -5.686  0.00  0.00    -0.338 OA
ATOM     14  N   UNL     1      -5.007   2.296  -4.561  0.00  0.00    -0.056 NA
ATOM     15  C   UNL     1      -8.045   2.377  -6.638  0.00  0.00    +0.112 C 
ENDBRANCH   8  10
ENDBRANCH   1   6
BRANCH   1  16
ATOM     16  N   UNL     1      -3.152   0.577   1.600  0.00  0.00    -0.176 NA
ATOM     17  C   UNL     1      -3.493  -0.285   2.740  0.00  0.00    +0.109 C 
ATOM     18  C   UNL     1      -2.596   0.087   3.925  0.00  0.00    +0.018 C 
ATOM     19  C   UNL     1      -2.728   1.585   4.209  0.00  0.00    +0.015 C 
ATOM     20  C   UNL     1      -2.267   2.380   2.985  0.00  0.00    +0.091 C 
ATOM     21  C   UNL     1      -3.154   2.034   1.791  0.00  0.00    +0.122 C 
BRANCH  20  22
ATOM     22  C   UNL     1      -2.366   3.855   3.278  0.00  0.00    +0.218 C 
ATOM     23  O   UNL     1      -3.078   4.562   2.596  0.00  0.00    -0.275 OA
ATOM     24  N   UNL     1      -1.664   4.389   4.297  0.00  0.00    -0.312 N 
ATOM     25  H   UNL     1      -1.095   3.824   4.842  0.00  0.00    +0.149 HD
BRANCH  24  26
ATOM     26  C   UNL     1      -1.760   5.823   4.581  0.00  0.00    +0.073 C 
ATOM     27  C   UNL     1      -0.721   6.598   3.745  0.00  0.00    +0.022 C 
ATOM     28  C   UNL     1      -0.238   7.726   4.691  0.00  0.00    +0.002 C 
ATOM     29  C   UNL     1      -0.193   7.020   6.069  0.00  0.00    +0.002 C 
ATOM     30  C   UNL     1      -1.425   6.091   6.059  0.00  0.00    +0.022 C 
ENDBRANCH  24  26
ENDBRANCH  20  22
ENDBRANCH   1  16
TORSDOF 5
