REMARK  Name = ZINC67561196
REMARK  3 active torsions:
REMARK  status: ('A' for Active; 'I' for Inactive)
REMARK    1  A    between atoms: C_4  and  C_7
REMARK    2  A    between atoms: C_10  and  N_12
REMARK    3  A    between atoms: N_15  and  C_16
REMARK                            x       y       z     vdW  Elec       q    Type
REMARK                         _______ _______ _______ _____ _____    ______ ____
ROOT
ATOM      1  N   UNL     1       2.937  -1.910  -2.217  0.00  0.00    -0.296 N 
ATOM      2  C   UNL     1       3.251  -2.277  -3.475  0.00  0.00    +0.304 C 
ATOM      3  O   UNL     1       4.374  -2.665  -3.732  0.00  0.00    -0.253 OA
ATOM      4  N   UNL     1       2.321  -2.213  -4.449  0.00  0.00    -0.269 N 
ATOM      5  H   UNL     1       2.041  -1.600  -2.012  0.00  0.00    +0.151 HD
ATOM      6  H   UNL     1       1.406  -1.977  -4.230  0.00  0.00    +0.156 HD
ENDROOT
BRANCH   4   7
ATOM      7  C   UNL     1       2.676  -2.487  -5.776  0.00  0.00    +0.037 A 
ATOM      8  C   UNL     1       1.760  -3.087  -6.630  0.00  0.00    +0.027 A 
ATOM      9  C   UNL     1       2.105  -3.359  -7.941  0.00  0.00    +0.049 A 
ATOM     10  C   UNL     1       3.367  -3.033  -8.405  0.00  0.00    +0.142 A 
ATOM     11  C   UNL     1       4.290  -2.431  -7.550  0.00  0.00    +0.077 A 
ATOM     12  C   UNL     1       3.942  -2.153  -6.239  0.00  0.00    +0.050 A 
ATOM     13  N   UNL     1       5.565  -2.108  -8.036  0.00  0.00    -0.280 N 
ATOM     14  C   UNL     1       5.772  -2.089  -9.370  0.00  0.00    +0.255 C 
ATOM     15  O   UNL     1       6.875  -1.841  -9.812  0.00  0.00    -0.272 OA
ATOM     16  C   UNL     1       4.628  -2.376 -10.309  0.00  0.00    +0.325 C 
ATOM     17  O   UNL     1       3.720  -3.293  -9.693  0.00  0.00    -0.481 OA
ATOM     18  H   UNL     1       6.287  -1.901  -7.422  0.00  0.00    +0.155 HD
ENDBRANCH   4   7
BRANCH   1  21
ATOM     19  C   UNL     1       3.773  -1.054   0.046  0.00  0.00    +0.041 C 
ATOM     20  C   UNL     1       3.519  -2.555   0.192  0.00  0.00    +0.033 C 
ATOM     21  C   UNL     1       3.948  -1.979  -1.159  0.00  0.00    +0.083 C 
BRANCH  19  25
ATOM     22  C   UNL     1       0.374   1.533   0.069  0.00  0.00    +0.000 A 
ATOM     23  C   UNL     1       1.648   2.066   0.117  0.00  0.00    +0.000 A 
ATOM     24  C   UNL     1       2.748   1.229   0.110  0.00  0.00    +0.004 A 
ATOM     25  C   UNL     1       2.574  -0.141   0.055  0.00  0.00    -0.042 A 
ATOM     26  C   UNL     1       1.299  -0.674   0.008  0.00  0.00    +0.004 A 
ATOM     27  C   UNL     1       0.199   0.163   0.014  0.00  0.00    +0.000 A 
ENDBRANCH  19  25
ENDBRANCH   1  21
TORSDOF 3
