REMARK  Name = ZINC35458023
REMARK  8 active torsions:
REMARK  status: ('A' for Active; 'I' for Inactive)
REMARK    1  A    between atoms: C_1  and  C_2
REMARK    2  A    between atoms: C_2  and  O_4
REMARK    3  A    between atoms: O_4  and  C_5
REMARK    4  A    between atoms: C_5  and  C_6
REMARK    5  A    between atoms: C_6  and  O_30
REMARK    6  A    between atoms: C_13  and  C_29
REMARK    7  A    between atoms: C_24  and  C_25
REMARK    8  A    between atoms: C_24  and  C_26
REMARK                            x       y       z     vdW  Elec       q    Type
REMARK                         _______ _______ _______ _____ _____    ______ ____
ROOT
ATOM      1  C   UNL     1       0.123  -2.586  -2.956  0.00  0.00    +0.103 C 
ATOM      2  C   UNL     1       1.412  -2.110  -3.654  0.00  0.00    +0.045 C 
ATOM      3  C   UNL     1       2.261  -3.378  -3.889  0.00  0.00    -0.023 C 
ATOM      4  C   UNL     1       3.014  -3.300  -5.192  0.00  0.00    +0.007 C 
ATOM      5  C   UNL     1       4.482  -2.929  -5.017  0.00  0.00    +0.006 C 
ATOM      6  C   UNL     1       5.111  -3.946  -4.056  0.00  0.00    +0.012 C 
ATOM      7  C   UNL     1       4.533  -3.684  -2.669  0.00  0.00    -0.025 C 
ATOM      8  C   UNL     1       3.045  -3.677  -2.639  0.00  0.00    +0.002 C 
ATOM      9  C   UNL     1       2.416  -4.826  -1.860  0.00  0.00    +0.005 C 
ATOM     10  C   UNL     1       0.961  -4.453  -1.533  0.00  0.00    +0.007 C 
ATOM     11  C   UNL     1       0.228  -4.125  -2.846  0.00  0.00    +0.025 C 
ATOM     12  C   UNL     1       1.184  -4.502  -4.008  0.00  0.00    +0.013 C 
ATOM     13  C   UNL     1       5.133  -4.672  -1.668  0.00  0.00    +0.007 C 
ATOM     14  C   UNL     1       6.652  -4.489  -1.629  0.00  0.00    +0.002 C 
ATOM     15  C   UNL     1       7.236  -4.741  -3.020  0.00  0.00    +0.018 C 
ATOM     16  C   UNL     1       6.630  -3.771  -4.040  0.00  0.00    +0.072 C 
ATOM     17  C   UNL     1       7.192  -4.048  -5.436  0.00  0.00    +0.023 C 
ATOM     18  C   UNL     1       5.000  -2.291  -2.242  0.00  0.00    +0.012 C 
ENDROOT
BRANCH  16  19
ATOM     19  C   UNL     1       6.971  -2.362  -3.630  0.00  0.00    +0.362 C 
ATOM     20  O   UNL     1       7.705  -2.164  -2.677  0.00  0.00    -0.246 OA
ATOM     21  O   UNL     1       6.511  -1.418  -4.250  0.00  0.00    -0.246 OA
ENDBRANCH  16  19
BRANCH   1  22
ATOM     22  O   UNL     1      -1.019  -2.226  -3.736  0.00  0.00    -0.385 OA
ATOM     23  H   UNL     1      -1.133  -1.273  -3.851  0.00  0.00    +0.210 HD
ENDBRANCH   1  22
BRANCH   1  24
ATOM     24  C   UNL     1       0.022  -1.965  -1.561  0.00  0.00    +0.267 C 
BRANCH  24  25
ATOM     25  O   UNL     1      -1.044  -2.587  -0.840  0.00  0.00    -0.462 OA
BRANCH  25  27
ATOM     26  C   UNL     1      -2.373  -2.762   1.233  0.00  0.00    +0.136 C 
ATOM     27  C   UNL     1      -1.267  -2.153   0.411  0.00  0.00    +0.304 C 
ATOM     28  O   UNL     1      -0.580  -1.276   0.878  0.00  0.00    -0.251 OA
ENDBRANCH  25  27
ENDBRANCH  24  25
ENDBRANCH   1  24
TORSDOF 5
