REMARK  Name = ZINC63907809
REMARK  8 active torsions:
REMARK  status: ('A' for Active; 'I' for Inactive)
REMARK    1  A    between atoms: C_7  and  C_10
REMARK    2  A    between atoms: C_13  and  S_23
REMARK    3  A    between atoms: N_15  and  C_16
REMARK    4  A    between atoms: C_16  and  C_17
REMARK    5  A    between atoms: S_23  and  C_24
REMARK    6  A    between atoms: C_24  and  C_25
REMARK    7  A    between atoms: N_27  and  C_28
REMARK    8  A    between atoms: C_32  and  C_34
REMARK                            x       y       z     vdW  Elec       q    Type
REMARK                         _______ _______ _______ _____ _____    ______ ____
ROOT
ATOM      1  C   UNL     1       0.528  -3.077  -0.041  0.00  0.00    +0.147 C 
ATOM      2  N   UNL     1      -0.768  -3.068   0.128  0.00  0.00    -0.169 NA
ATOM      3  N   UNL     1      -1.290  -4.367   0.125  0.00  0.00    -0.237 N 
ATOM      4  C   UNL     1      -0.149  -5.276  -0.073  0.00  0.00    +0.237 C 
ATOM      5  N   UNL     1       1.014  -4.380  -0.181  0.00  0.00    -0.283 N 
ATOM      6  H   UNL     1      -2.221  -4.619   0.232  0.00  0.00    +0.171 HD
ENDROOT
BRANCH   1  13
ATOM      7  C   UNL     1      -0.420   1.303   0.669  0.00  0.00    +0.001 A 
ATOM      8  C   UNL     1       0.685   2.144   0.525  0.00  0.00    +0.002 A 
ATOM      9  C   UNL     1       1.911   1.665   0.203  0.00  0.00    +0.026 A 
ATOM     10  C   UNL     1       2.095   0.272   0.003  0.00  0.00    +0.043 A 
ATOM     11  N   UNL     1       3.166  -0.430  -0.311  0.00  0.00    -0.380 N 
ATOM     12  C   UNL     1       2.806  -1.849  -0.396  0.00  0.00    +0.152 C 
ATOM     13  C   UNL     1       1.328  -1.925  -0.083  0.00  0.00    +0.022 C 
ATOM     14  C   UNL     1       0.927  -0.610   0.156  0.00  0.00    +0.006 A 
ATOM     15  C   UNL     1      -0.320  -0.040   0.493  0.00  0.00    +0.010 A 
ATOM     16  H   UNL     1       4.052  -0.066  -0.463  0.00  0.00    +0.160 HD
ENDBRANCH   1  13
BRANCH   5  17
ATOM     17  C   UNL     1       2.409  -4.776  -0.392  0.00  0.00    +0.140 C 
BRANCH  17  18
ATOM     18  C   UNL     1       3.045  -5.135   0.952  0.00  0.00    +0.136 C 
ATOM     19  C   UNL     1       4.550  -5.456   0.766  0.00  0.00    +0.035 C 
ATOM     20  C   UNL     1       5.095  -5.146   2.187  0.00  0.00    +0.031 C 
ATOM     21  C   UNL     1       4.202  -3.967   2.631  0.00  0.00    +0.160 C 
ATOM     22  O   UNL     1       3.007  -4.006   1.840  0.00  0.00    -0.375 OA
ENDBRANCH  17  18
ENDBRANCH   5  17
BRANCH   4  23
ATOM     23  S   UNL     1      -0.355  -6.231  -1.601  0.00  0.00    -0.109 S 
BRANCH  23  24
ATOM     24  C   UNL     1      -0.484  -4.966  -2.895  0.00  0.00    +0.168 C 
BRANCH  24  25
ATOM     25  C   UNL     1      -0.661  -5.633  -4.234  0.00  0.00    +0.227 C 
ATOM     26  O   UNL     1      -0.697  -6.843  -4.309  0.00  0.00    -0.275 OA
ATOM     27  N   UNL     1      -0.779  -4.886  -5.349  0.00  0.00    -0.285 N 
ATOM     28  H   UNL     1      -0.817  -3.919  -5.283  0.00  0.00    +0.155 HD
BRANCH  27  29
ATOM     29  C   UNL     1      -0.847  -5.505  -6.603  0.00  0.00    +0.035 A 
ATOM     30  C   UNL     1      -0.242  -4.911  -7.705  0.00  0.00    +0.023 A 
ATOM     31  C   UNL     1      -0.307  -5.518  -8.945  0.00  0.00    +0.003 A 
ATOM     32  C   UNL     1      -0.971  -6.718  -9.098  0.00  0.00    +0.019 A 
ATOM     33  C   UNL     1      -1.582  -7.322  -7.997  0.00  0.00    +0.054 A 
ATOM     34  C   UNL     1      -1.513  -6.712  -6.744  0.00  0.00    +0.042 A 
BRANCH  33  35
ATOM     35  C   UNL     1      -2.272  -8.567  -8.152  0.00  0.00    +0.099 C 
ATOM     36  N   UNL     1      -2.820  -9.555  -8.276  0.00  0.00    -0.191 NA
ENDBRANCH  33  35
ENDBRANCH  27  29
ENDBRANCH  24  25
ENDBRANCH  23  24
ENDBRANCH   4  23
TORSDOF 8
