REMARK  Name = ZINC24959470
REMARK  6 active torsions:
REMARK  status: ('A' for Active; 'I' for Inactive)
REMARK    1  A    between atoms: C_1  and  C_2
REMARK    2  A    between atoms: C_2  and  C_4
REMARK    3  A    between atoms: C_2  and  S_14
REMARK    4  A    between atoms: N_10  and  C_11
REMARK    5  A    between atoms: N_10  and  C_12
REMARK    6  A    between atoms: S_14  and  C_15
REMARK                            x       y       z     vdW  Elec       q    Type
REMARK                         _______ _______ _______ _____ _____    ______ ____
ROOT
ATOM      1  C   UNL     1       3.795   1.275   1.544  0.00  0.00    +0.149 A 
ATOM      2  N   UNL     1       4.102   2.555   1.424  0.00  0.00    -0.198 NA
ATOM      3  C   UNL     1       5.366   2.952   1.548  0.00  0.00    +0.217 A 
ATOM      4  N   UNL     1       6.321   2.058   1.784  0.00  0.00    -0.181 NA
ATOM      5  C   UNL     1       6.009   0.772   1.899  0.00  0.00    +0.222 A 
ATOM      6  N   UNL     1       4.742   0.384   1.778  0.00  0.00    -0.198 NA
ATOM      7  N   UNL     1       6.997  -0.159   2.145  0.00  0.00    -0.306 N 
ATOM      8  C   UNL     1       6.652  -1.577   2.272  0.00  0.00    +0.132 C 
ATOM      9  C   UNL     1       8.392   0.270   2.278  0.00  0.00    +0.132 C 
ATOM     10  N   UNL     1       5.686   4.289   1.428  0.00  0.00    -0.327 N 
ATOM     11  H   UNL     1       6.731   4.616   1.532  0.00  0.00    +0.145 HD
ATOM     12  H   UNL     1       4.895   5.027   1.229  0.00  0.00    +0.145 HD
ENDROOT
BRANCH   1  14
ATOM     13  C   UNL     1       1.589   1.200   2.675  0.00  0.00    +0.027 C 
ATOM     14  C   UNL     1       2.361   0.830   1.407  0.00  0.00    +0.111 C 
BRANCH  14  15
ATOM     15  S   UNL     1       1.607   1.654  -0.022  0.00  0.00    -0.146 S 
BRANCH  15  16
ATOM     16  C   UNL     1       2.492   0.961  -1.446  0.00  0.00    +0.047 C 
ATOM     17  C   UNL     1       2.075  -0.513  -1.679  0.00  0.00    +0.014 C 
ATOM     18  C   UNL     1       2.408  -0.725  -3.180  0.00  0.00    +0.001 C 
ATOM     19  C   UNL     1       2.024   0.612  -3.847  0.00  0.00    +0.001 C 
ATOM     20  C   UNL     1       2.078   1.684  -2.744  0.00  0.00    +0.014 C 
ENDBRANCH  15  16
ENDBRANCH  14  15
ENDBRANCH   1  14
TORSDOF 3
