REMARK  Name = ZINC62138710
REMARK  5 active torsions:
REMARK  status: ('A' for Active; 'I' for Inactive)
REMARK    1  A    between atoms: C_4  and  N_17
REMARK    2  A    between atoms: C_5  and  C_7
REMARK    3  A    between atoms: C_7  and  C_8
REMARK    4  A    between atoms: C_8  and  C_10
REMARK    5  A    between atoms: C_8  and  O_16
REMARK                            x       y       z     vdW  Elec       q    Type
REMARK                         _______ _______ _______ _____ _____    ______ ____
ROOT
ATOM      1  C   UNL     1       1.390  -2.139  -0.091  0.00  0.00    +0.076 C 
ENDROOT
BRANCH   1   6
ATOM      2  C   UNL     1       2.036   1.581  -0.042  0.00  0.00    +0.000 A 
ATOM      3  C   UNL     1       0.762   2.079   0.158  0.00  0.00    +0.002 A 
ATOM      4  C   UNL     1      -0.308   1.213   0.278  0.00  0.00    +0.033 A 
ATOM      5  C   UNL     1      -0.105  -0.152   0.197  0.00  0.00    +0.129 A 
ATOM      6  C   UNL     1       1.168  -0.651  -0.004  0.00  0.00    -0.014 A 
ATOM      7  C   UNL     1       2.239   0.216  -0.122  0.00  0.00    +0.006 A 
BRANCH   5   8
ATOM      8  N   UNL     1      -1.251  -1.080   0.326  0.00  0.00    +0.057 N 
ATOM      9  O   UNL     1      -2.349  -0.650   0.592  0.00  0.00    -0.126 OA
ATOM     10  O   UNL     1      -1.089  -2.267   0.165  0.00  0.00    -0.126 OA
ENDBRANCH   5   8
ENDBRANCH   1   6
BRANCH   1  11
ATOM     11  C   UNL     1       1.365  -2.741   1.315  0.00  0.00    +0.184 C 
BRANCH  11  12
ATOM     12  C   UNL     1       1.481  -4.241   1.221  0.00  0.00    +0.135 A 
ATOM     13  C   UNL     1       0.455  -5.110   1.207  0.00  0.00    +0.048 A 
ATOM     14  C   UNL     1       1.016  -6.404   1.109  0.00  0.00    +0.057 A 
ATOM     15  C   UNL     1       2.352  -6.248   1.069  0.00  0.00    +0.170 A 
ATOM     16  O   UNL     1       2.628  -4.935   1.131  0.00  0.00    -0.450 OA
ATOM     17 BR   UNL     1       3.625  -7.641   0.939  0.00  0.00    -0.008 Br
ENDBRANCH  11  12
BRANCH  11  18
ATOM     18  O   UNL     1       2.459  -2.225   2.074  0.00  0.00    -0.384 OA
ATOM     19  H   UNL     1       3.328  -2.483   1.738  0.00  0.00    +0.210 HD
ENDBRANCH  11  18
ENDBRANCH   1  11
TORSDOF 5
