REMARK  Name = ZINC52272022
REMARK  7 active torsions:
REMARK  status: ('A' for Active; 'I' for Inactive)
REMARK    1  A    between atoms: C_1  and  C_2
REMARK    2  A    between atoms: C_5  and  N_19
REMARK    3  A    between atoms: C_6  and  S_9
REMARK    4  A    between atoms: C_7  and  C_8
REMARK    5  A    between atoms: S_9  and  N_12
REMARK    6  A    between atoms: N_12  and  C_13
REMARK    7  A    between atoms: C_16  and  C_18
REMARK                            x       y       z     vdW  Elec       q    Type
REMARK                         _______ _______ _______ _____ _____    ______ ____
ROOT
ATOM      1  C   UNL     1      -1.090   1.155  -0.613  0.00  0.00    +0.044 C 
ATOM      2  C   UNL     1      -0.812  -0.322  -0.501  0.00  0.00    -0.046 A 
ATOM      3  C   UNL     1      -0.619  -1.076  -1.644  0.00  0.00    +0.005 A 
ATOM      4  C   UNL     1      -0.365  -2.430  -1.545  0.00  0.00    +0.025 A 
ATOM      5  C   UNL     1      -0.303  -3.034  -0.295  0.00  0.00    +0.052 A 
ATOM      6  C   UNL     1      -0.497  -2.273   0.851  0.00  0.00    +0.129 A 
ATOM      7  C   UNL     1      -0.746  -0.919   0.744  0.00  0.00    -0.019 A 
ATOM      8  C   UNL     1      -0.951  -0.091   1.987  0.00  0.00    +0.046 C 
ENDROOT
BRANCH   6   9
ATOM      9  S   UNL     1      -0.421  -3.034   2.438  0.00  0.00    +0.061 S 
ATOM     10  O   UNL     1      -1.024  -2.129   3.352  0.00  0.00    -0.153 OA
ATOM     11  O   UNL     1      -0.881  -4.369   2.271  0.00  0.00    -0.153 OA
BRANCH   9  12
ATOM     12  N   UNL     1       1.178  -3.134   2.856  0.00  0.00    -0.187 NA
ATOM     13  H   UNL     1       1.602  -4.001   2.953  0.00  0.00    +0.148 HD
BRANCH  12  14
ATOM     14  C   UNL     1       1.954  -1.911   3.082  0.00  0.00    +0.080 C 
ATOM     15  C   UNL     1       3.063  -1.962   4.134  0.00  0.00    +0.025 C 
ATOM     16  C   UNL     1       3.421  -1.915   2.647  0.00  0.00    +0.006 C 
ATOM     17  C   UNL     1       3.966  -3.196   2.010  0.00  0.00    +0.009 C 
ENDBRANCH  12  14
ENDBRANCH   9  12
ENDBRANCH   6   9
BRANCH   5  18
ATOM     18  N   UNL     1      -0.046  -4.403  -0.191  0.00  0.00    -0.356 N 
ATOM     19  H   UNL     1      -0.047  -4.958  -0.987  0.00  0.00    +0.142 HD
ATOM     20  H   UNL     1       0.133  -4.798   0.676  0.00  0.00    +0.142 HD
ENDBRANCH   5  18
TORSDOF 4
