REMARK  Name = ZINC58414435
REMARK  9 active torsions:
REMARK  status: ('A' for Active; 'I' for Inactive)
REMARK    1  A    between atoms: C_1  and  C_2
REMARK    2  A    between atoms: C_5  and  C_22
REMARK    3  A    between atoms: C_7  and  N_8
REMARK    4  A    between atoms: C_9  and  C_11
REMARK    5  A    between atoms: C_13  and  C_18
REMARK    6  A    between atoms: C_15  and  C_16
REMARK    7  A    between atoms: C_15  and  C_17
REMARK    8  A    between atoms: C_19  and  C_20
REMARK    9  A    between atoms: C_19  and  C_21
REMARK                            x       y       z     vdW  Elec       q    Type
REMARK                         _______ _______ _______ _____ _____    ______ ____
ROOT
ATOM      1  N   UNL     1       2.818  -1.383   4.423  0.00  0.00    -0.285 N 
ATOM      2  C   UNL     1       1.807  -0.582   4.034  0.00  0.00    +0.221 C 
ATOM      3  O   UNL     1       1.501  -0.518   2.862  0.00  0.00    -0.275 OA
ATOM      4  H   UNL     1       3.022  -1.484   5.366  0.00  0.00    +0.155 HD
ENDROOT
BRANCH   1  11
ATOM      5  C   UNL     1       5.526  -1.988   5.041  0.00  0.00    +0.045 C 
ATOM      6  C   UNL     1       4.903  -2.385   3.728  0.00  0.00    -0.029 A 
ATOM      7  C   UNL     1       5.653  -3.068   2.788  0.00  0.00    +0.006 A 
ATOM      8  C   UNL     1       5.090  -3.435   1.583  0.00  0.00    +0.013 A 
ATOM      9  C   UNL     1       3.758  -3.118   1.310  0.00  0.00    +0.040 A 
ATOM     10  C   UNL     1       3.002  -2.430   2.257  0.00  0.00    +0.036 A 
ATOM     11  C   UNL     1       3.575  -2.070   3.467  0.00  0.00    +0.037 A 
BRANCH   9  12
ATOM     12  C   UNL     1       3.152  -3.510   0.019  0.00  0.00    +0.248 A 
ATOM     13  N   UNL     1       1.921  -3.272  -0.367  0.00  0.00    -0.108 NA
ATOM     14  N   UNL     1       1.744  -3.757  -1.545  0.00  0.00    -0.116 NA
ATOM     15  C   UNL     1       2.847  -4.320  -1.954  0.00  0.00    +0.332 A 
ATOM     16  O   UNL     1       3.764  -4.174  -0.982  0.00  0.00    -0.423 OA
ENDBRANCH   9  12
ENDBRANCH   1  11
BRANCH   2  17
ATOM     17  C   UNL     1       1.056   0.234   5.055  0.00  0.00    +0.089 C 
ATOM     18  C   UNL     1      -0.472   0.198   5.003  0.00  0.00    +0.030 C 
ATOM     19  C   UNL     1       0.273  -0.524   6.128  0.00  0.00    -0.016 C 
ATOM     20  C   UNL     1       0.311  -2.053   6.083  0.00  0.00    +0.012 C 
ATOM     21  C   UNL     1       0.211   0.094   7.526  0.00  0.00    +0.012 C 
BRANCH  18  22
ATOM     22  C   UNL     1      -1.112  -0.650   3.934  0.00  0.00    -0.023 C 
ATOM     23  C   UNL     1      -2.405  -0.588   3.735  0.00  0.00    -0.079 C 
ATOM     24  C   UNL     1      -3.253   0.333   4.574  0.00  0.00    +0.038 C 
ATOM     25  C   UNL     1      -3.045  -1.436   2.667  0.00  0.00    +0.038 C 
ENDBRANCH  18  22
ENDBRANCH   2  17
TORSDOF 4
