REMARK  Name = ZINC40549403
REMARK  9 active torsions:
REMARK  status: ('A' for Active; 'I' for Inactive)
REMARK    1  A    between atoms: C_1  and  C_2
REMARK    2  A    between atoms: C_2  and  C_3
REMARK    3  A    between atoms: C_6  and  O_35
REMARK    4  A    between atoms: C_7  and  C_9
REMARK    5  A    between atoms: C_11  and  C_15
REMARK    6  A    between atoms: N_17  and  C_18
REMARK    7  A    between atoms: C_19  and  C_26
REMARK    8  A    between atoms: N_28  and  C_29
REMARK    9  A    between atoms: C_29  and  C_30
REMARK                            x       y       z     vdW  Elec       q    Type
REMARK                         _______ _______ _______ _____ _____    ______ ____
ROOT
ATOM      1  C   UNL     1       7.468  -2.319  -3.661  0.00  0.00    +0.266 C 
ATOM      2  O   UNL     1       7.382  -2.648  -4.829  0.00  0.00    -0.268 OA
ATOM      3  N   UNL     1       8.665  -2.334  -3.042  0.00  0.00    -0.274 N 
ATOM      4  H   UNL     1       8.734  -2.071  -2.111  0.00  0.00    +0.156 HD
ENDROOT
BRANCH   3   5
ATOM      5  C   UNL     1       9.799  -2.724  -3.737  0.00  0.00    +0.085 A 
ATOM      6  C   UNL     1      11.097  -2.806  -3.268  0.00  0.00    +0.069 A 
ATOM      7  C   UNL     1      12.123  -3.251  -4.210  0.00  0.00    -0.023 A 
ATOM      8  C   UNL     1      11.654  -3.528  -5.440  0.00  0.00    -0.004 A 
ATOM      9  S   UNL     1       9.910  -3.215  -5.337  0.00  0.00    -0.077 S 
ATOM     10  C   UNL     1      12.749  -3.977  -6.370  0.00  0.00    +0.043 C 
ATOM     11  C   UNL     1      14.056  -3.536  -5.674  0.00  0.00    +0.010 C 
ATOM     12  C   UNL     1      13.629  -3.502  -4.193  0.00  0.00    +0.037 C 
BRANCH   6  13
ATOM     13  C   UNL     1      11.432  -2.460  -1.883  0.00  0.00    +0.247 C 
ATOM     14  O   UNL     1      11.404  -3.316  -1.018  0.00  0.00    -0.270 OA
ATOM     15  N   UNL     1      11.771  -1.194  -1.568  0.00  0.00    -0.304 N 
ATOM     16  H   UNL     1      11.793  -0.512  -2.258  0.00  0.00    +0.149 HD
BRANCH  15  17
ATOM     17  C   UNL     1      12.105  -0.848  -0.184  0.00  0.00    +0.179 C 
BRANCH  17  18
ATOM     18  C   UNL     1      12.445   0.618  -0.101  0.00  0.00    +0.122 A 
ATOM     19  C   UNL     1      11.575   1.614   0.143  0.00  0.00    +0.046 A 
ATOM     20  C   UNL     1      12.318   2.817   0.132  0.00  0.00    +0.041 A 
ATOM     21  C   UNL     1      13.597   2.484  -0.118  0.00  0.00    +0.195 A 
ATOM     22  O   UNL     1      13.669   1.150  -0.252  0.00  0.00    -0.466 OA
ENDBRANCH  17  18
ENDBRANCH  15  17
ENDBRANCH   6  13
ENDBRANCH   3   5
BRANCH   1  25
ATOM     23  C   UNL     1       4.189  -1.390  -2.337  0.00  0.00    +0.097 A 
ATOM     24  C   UNL     1       4.974  -1.836  -3.416  0.00  0.00    +0.062 A 
ATOM     25  C   UNL     1       6.264  -1.904  -2.924  0.00  0.00    +0.121 A 
ATOM     26  N   UNL     1       6.201  -1.509  -1.617  0.00  0.00    -0.272 N 
ATOM     27  H   UNL     1       6.958  -1.456  -1.013  0.00  0.00    +0.189 HD
ATOM     28  N   UNL     1       4.990  -1.214  -1.308  0.00  0.00    -0.173 NA
BRANCH  23  33
ATOM     29  C   UNL     1       0.707  -0.490  -1.238  0.00  0.00    -0.047 A 
ATOM     30  C   UNL     1      -0.014  -0.718  -2.397  0.00  0.00    +0.007 A 
ATOM     31  C   UNL     1       0.625  -1.164  -3.538  0.00  0.00    +0.046 A 
ATOM     32  C   UNL     1       1.992  -1.386  -3.527  0.00  0.00    +0.126 A 
ATOM     33  C   UNL     1       2.723  -1.156  -2.359  0.00  0.00    +0.044 A 
ATOM     34  C   UNL     1       2.071  -0.701  -1.215  0.00  0.00    +0.017 A 
BRANCH  29  36
ATOM     35  C   UNL     1      -0.019   1.526   0.010  0.00  0.00    +0.009 C 
ATOM     36  C   UNL     1       0.002  -0.004   0.002  0.00  0.00    +0.032 C 
ENDBRANCH  29  36
BRANCH  32  37
ATOM     37  O   UNL     1       2.621  -1.825  -4.649  0.00  0.00    -0.506 OA
ATOM     38  H   UNL     1       2.940  -1.116  -5.224  0.00  0.00    +0.292 HD
ENDBRANCH  32  37
ENDBRANCH  23  33
ENDBRANCH   1  25
TORSDOF 8
