REMARK  Name = ZINC49431967
REMARK  4 active torsions:
REMARK  status: ('A' for Active; 'I' for Inactive)
REMARK    1  A    between atoms: C_6  and  C_7
REMARK    2  A    between atoms: C_7  and  N_10
REMARK    3  A    between atoms: C_11  and  C_13
REMARK    4  A    between atoms: C_16  and  N_18
REMARK                            x       y       z     vdW  Elec       q    Type
REMARK                         _______ _______ _______ _____ _____    ______ ____
ROOT
ATOM      1  C   UNL     1      -1.293  -0.776   0.011  0.00  0.00    +0.060 C 
ATOM      2  C   UNL     1      -1.230  -1.989   0.941  0.00  0.00    +0.033 C 
ATOM      3  C   UNL     1      -1.402  -2.188  -0.566  0.00  0.00    +0.033 C 
ENDROOT
BRANCH   1   9
ATOM      4  C   UNL     1       1.058  -0.177   0.625  0.00  0.00    +0.007 A 
ATOM      5  C   UNL     1       2.233   0.515   0.400  0.00  0.00    +0.022 A 
ATOM      6  C   UNL     1       2.337   1.367  -0.685  0.00  0.00    +0.059 A 
ATOM      7  C   UNL     1       1.264   1.524  -1.546  0.00  0.00    +0.060 A 
ATOM      8  C   UNL     1       0.089   0.831  -1.320  0.00  0.00    +0.027 A 
ATOM      9  C   UNL     1      -0.013  -0.020  -0.235  0.00  0.00    -0.023 A 
ATOM     10 CL   UNL     1       1.393   2.593  -2.908  0.00  0.00    -0.082 Cl
ATOM     11 CL   UNL     1       3.813   2.237  -0.968  0.00  0.00    -0.082 Cl
ENDBRANCH   1   9
BRANCH   1  12
ATOM     12  N   UNL     1      -2.511   0.038   0.043  0.00  0.00    -0.305 N 
ATOM     13  C   UNL     1      -2.686   0.954   1.016  0.00  0.00    +0.219 C 
ATOM     14  O   UNL     1      -1.796   1.169   1.811  0.00  0.00    -0.275 OA
ATOM     15  H   UNL     1      -3.193  -0.083  -0.637  0.00  0.00    +0.150 HD
BRANCH  13  16
ATOM     16  C   UNL     1      -3.985   1.710   1.115  0.00  0.00    +0.106 C 
ATOM     17  C   UNL     1      -3.960   3.205   0.792  0.00  0.00    +0.047 C 
ATOM     18  C   UNL     1      -4.120   2.737   2.241  0.00  0.00    +0.182 C 
BRANCH  18  19
ATOM     19  N   UNL     1      -5.439   2.894   2.859  0.00  0.00    +0.026 N 
ATOM     20  O   UNL     1      -5.580   2.687   4.042  0.00  0.00    -0.131 OA
ATOM     21  O   UNL     1      -6.386   3.229   2.187  0.00  0.00    -0.131 OA
ENDBRANCH  18  19
ENDBRANCH  13  16
ENDBRANCH   1  12
TORSDOF 4
