REMARK  Name = ZINC66149825
REMARK  12 active torsions:
REMARK  status: ('A' for Active; 'I' for Inactive)
REMARK    1  A    between atoms: C_1  and  C_2
REMARK    2  A    between atoms: C_2  and  C_3
REMARK    3  A    between atoms: C_3  and  C_5
REMARK    4  A    between atoms: C_3  and  N_6
REMARK    5  A    between atoms: N_6  and  C_7
REMARK    6  A    between atoms: N_6  and  C_8
REMARK    7  A    between atoms: C_8  and  C_9
REMARK    8  A    between atoms: C_9  and  N_10
REMARK    9  A    between atoms: C_11  and  C_13
REMARK   10  A    between atoms: C_13  and  N_14
REMARK   11  A    between atoms: N_17  and  C_18
REMARK   12  A    between atoms: C_18  and  C_19
REMARK                            x       y       z     vdW  Elec       q    Type
REMARK                         _______ _______ _______ _____ _____    ______ ____
ROOT
ATOM      1  C   UNL     1      -3.998   4.848   4.350  0.00  0.00    +0.201 C 
ENDROOT
BRANCH   1   2
ATOM      2  N   UNL     1      -4.602   5.115   5.658  0.00  0.00    -0.291 N 
ATOM      3  C   UNL     1      -4.898   6.380   6.017  0.00  0.00    +0.300 C 
ATOM      4  O   UNL     1      -4.665   7.299   5.257  0.00  0.00    -0.253 OA
ATOM      5  N   UNL     1      -5.454   6.625   7.221  0.00  0.00    -0.295 N 
ATOM      6  H   UNL     1      -4.788   4.382   6.264  0.00  0.00    +0.151 HD
ATOM      7  H   UNL     1      -5.640   5.892   7.827  0.00  0.00    +0.151 HD
BRANCH   5   8
ATOM      8  C   UNL     1      -5.776   8.000   7.612  0.00  0.00    +0.141 C 
BRANCH   8   9
ATOM      9  C   UNL     1      -6.383   8.001   8.991  0.00  0.00    -0.030 A 
ATOM     10  C   UNL     1      -7.751   7.876   9.144  0.00  0.00    +0.008 A 
ATOM     11  C   UNL     1      -8.308   7.876  10.409  0.00  0.00    +0.038 A 
ATOM     12  C   UNL     1      -7.495   8.001  11.523  0.00  0.00    +0.123 A 
ATOM     13  C   UNL     1      -6.125   8.126  11.368  0.00  0.00    +0.038 A 
ATOM     14  C   UNL     1      -5.570   8.120  10.103  0.00  0.00    +0.008 A 
ATOM     15  F   UNL     1      -8.039   8.002  12.760  0.00  0.00    -0.205 F 
ENDBRANCH   8   9
ENDBRANCH   5   8
ENDBRANCH   1   2
BRANCH   1  17
ATOM     16  N   UNL     1      -3.218   2.884   3.064  0.00  0.00    -0.316 N 
ATOM     17  C   UNL     1      -3.768   3.367   4.196  0.00  0.00    +0.230 C 
ATOM     18  O   UNL     1      -4.078   2.609   5.090  0.00  0.00    -0.274 OA
ATOM     19  H   UNL     1      -2.970   3.490   2.349  0.00  0.00    +0.149 HD
BRANCH  16  20
ATOM     20  C   UNL     1      -2.995   1.444   2.914  0.00  0.00    +0.086 C 
BRANCH  20  21
ATOM     21  C   UNL     1      -2.364   1.165   1.548  0.00  0.00    -0.060 C 
BRANCH  21  22
ATOM     22  N   UNL     1      -2.140  -0.279   1.398  0.00  0.00    +0.381 N 
ATOM     23  C   UNL     1      -3.432  -0.977   1.394  0.00  0.00    -0.096 C 
ATOM     24  H   UNL     1      -1.579  -0.614   2.167  0.00  0.00    -0.082 HD
BRANCH  22  25
ATOM     25  C   UNL     1      -1.440  -0.537   0.132  0.00  0.00    -0.072 C 
ATOM     26  C   UNL     1      -2.349  -0.158  -1.039  0.00  0.00    -0.013 C 
BRANCH  25  28
ATOM     27  C   UNL     1      -0.111  -2.382   1.167  0.00  0.00    +0.002 C 
ATOM     28  C   UNL     1      -1.082  -2.021   0.041  0.00  0.00    -0.019 C 
ENDBRANCH  25  28
ENDBRANCH  22  25
ENDBRANCH  21  22
ENDBRANCH  20  21
ENDBRANCH  16  20
ENDBRANCH   1  17
TORSDOF 9
