REMARK  Name = ZINC36504532
REMARK  10 active torsions:
REMARK  status: ('A' for Active; 'I' for Inactive)
REMARK    1  A    between atoms: C_3  and  C_6
REMARK    2  A    between atoms: C_6  and  N_7
REMARK    3  A    between atoms: N_7  and  C_8
REMARK    4  A    between atoms: C_8  and  C_10
REMARK    5  A    between atoms: C_8  and  C_19
REMARK    6  A    between atoms: C_11  and  O_18
REMARK    7  A    between atoms: C_13  and  O_17
REMARK    8  A    between atoms: C_15  and  O_16
REMARK    9  A    between atoms: N_21  and  C_22
REMARK   10  A    between atoms: C_28  and  C_30
REMARK                            x       y       z     vdW  Elec       q    Type
REMARK                         _______ _______ _______ _____ _____    ______ ____
ROOT
ATOM      1  C   UNL     1       4.495  -0.556   1.943  0.00  0.00    +0.200 C 
ENDROOT
BRANCH   1   2
ATOM      2  C   UNL     1       5.650  -1.214   1.234  0.00  0.00    +0.065 A 
ATOM      3  C   UNL     1       6.749  -1.653   1.958  0.00  0.00    +0.129 A 
ATOM      4  C   UNL     1       7.812  -2.259   1.305  0.00  0.00    +0.091 A 
ATOM      5  C   UNL     1       7.775  -2.427  -0.071  0.00  0.00    +0.124 A 
ATOM      6  C   UNL     1       6.676  -1.990  -0.794  0.00  0.00    +0.091 A 
ATOM      7  C   UNL     1       5.611  -1.388  -0.141  0.00  0.00    +0.129 A 
BRANCH   7   8
ATOM      8  O   UNL     1       4.532  -0.963  -0.850  0.00  0.00    -0.506 OA
ATOM      9  H   UNL     1       4.602  -0.052  -1.165  0.00  0.00    +0.292 HD
ENDBRANCH   7   8
BRANCH   5  10
ATOM     10  O   UNL     1       8.817  -3.021  -0.711  0.00  0.00    -0.507 OA
ATOM     11  H   UNL     1       8.735  -3.981  -0.789  0.00  0.00    +0.292 HD
ENDBRANCH   5  10
BRANCH   3  12
ATOM     12  O   UNL     1       6.784  -1.488   3.306  0.00  0.00    -0.506 OA
ATOM     13  H   UNL     1       6.481  -2.259   3.805  0.00  0.00    +0.292 HD
ENDBRANCH   3  12
ENDBRANCH   1   2
BRANCH   1  14
ATOM     14  C   UNL     1       3.328  -1.508   1.994  0.00  0.00    +0.239 C 
ATOM     15  O   UNL     1       2.292  -1.228   1.429  0.00  0.00    -0.273 OA
ATOM     16  N   UNL     1       3.435  -2.670   2.668  0.00  0.00    -0.311 N 
ATOM     17  H   UNL     1       4.263  -2.894   3.121  0.00  0.00    +0.149 HD
BRANCH  16  18
ATOM     18  C   UNL     1       2.300  -3.595   2.718  0.00  0.00    +0.073 C 
ATOM     19  C   UNL     1       1.362  -3.191   3.857  0.00  0.00    +0.022 C 
ATOM     20  C   UNL     1       0.177  -4.158   3.908  0.00  0.00    +0.002 C 
ATOM     21  C   UNL     1       0.689  -5.579   4.149  0.00  0.00    +0.000 C 
ATOM     22  C   UNL     1       1.627  -5.984   3.011  0.00  0.00    +0.002 C 
ATOM     23  C   UNL     1       2.812  -5.017   2.959  0.00  0.00    +0.022 C 
ENDBRANCH  16  18
ENDBRANCH   1  14
BRANCH   1  24
ATOM     24  N   UNL     1       4.105   0.657   1.219  0.00  0.00    -0.277 N 
ATOM     25  C   UNL     1       4.911   1.737   1.230  0.00  0.00    +0.237 C 
ATOM     26  O   UNL     1       5.959   1.705   1.840  0.00  0.00    -0.274 OA
BRANCH  25  27
ATOM     27  C   UNL     1       4.509   2.984   0.486  0.00  0.00    +0.159 C 
ATOM     28  C   UNL     1       4.847   2.842  -1.015  0.00  0.00    +0.041 C 
ATOM     29  C   UNL     1       6.249   3.490  -1.086  0.00  0.00    +0.098 C 
ATOM     30  C   UNL     1       6.281   4.434   0.096  0.00  0.00    +0.214 C 
ATOM     31  O   UNL     1       7.081   5.333   0.245  0.00  0.00    -0.276 OA
ATOM     32  N   UNL     1       5.293   4.132   0.958  0.00  0.00    -0.304 N 
ATOM     33  H   UNL     1       5.119   4.610   1.784  0.00  0.00    +0.149 HD
ENDBRANCH  25  27
BRANCH  24  34
ATOM     34  C   UNL     1       2.838   0.695   0.484  0.00  0.00    +0.183 C 
BRANCH  34  37
ATOM     35  C   UNL     1       0.318   2.308   2.635  0.00  0.00    +0.041 A 
ATOM     36  C   UNL     1       1.414   2.378   1.744  0.00  0.00    +0.046 A 
ATOM     37  C   UNL     1       1.729   1.113   1.414  0.00  0.00    +0.122 A 
ATOM     38  O   UNL     1       0.887   0.285   2.054  0.00  0.00    -0.466 OA
ATOM     39  C   UNL     1       0.029   1.004   2.796  0.00  0.00    +0.195 A 
ENDBRANCH  34  37
ENDBRANCH  24  34
ENDBRANCH   1  24
TORSDOF 10
