REMARK  Name = ZINC07854813
REMARK  7 active torsions:
REMARK  status: ('A' for Active; 'I' for Inactive)
REMARK    1  A    between atoms: C_1  and  C_2
REMARK    2  A    between atoms: C_2  and  C_24
REMARK    3  A    between atoms: N_5  and  N_9
REMARK    4  A    between atoms: C_10  and  C_12
REMARK    5  A    between atoms: C_12  and  N_54
REMARK    6  A    between atoms: C_16  and  C_18
REMARK    7  A    between atoms: N_22  and  C_23
REMARK                            x       y       z     vdW  Elec       q    Type
REMARK                         _______ _______ _______ _____ _____    ______ ____
ROOT
ATOM      1  N   UNL     1      -5.963   3.561   2.130  0.00  0.00    -0.225 N 
ATOM      2  C   UNL     1      -5.168   3.695   1.050  0.00  0.00    +0.213 C 
ATOM      3  O   UNL     1      -5.649   3.679  -0.063  0.00  0.00    -0.276 OA
ATOM      4  H   UNL     1      -5.578   3.573   3.020  0.00  0.00    +0.173 HD
ENDROOT
BRANCH   1   9
ATOM      5  C   UNL     1     -10.308   2.255   3.091  0.00  0.00    +0.047 C 
ATOM      6  C   UNL     1      -9.457   2.539   1.851  0.00  0.00    +0.137 C 
ATOM      7  C   UNL     1      -7.997   2.234   2.124  0.00  0.00    +0.267 C 
ATOM      8  O   UNL     1      -7.517   1.162   2.423  0.00  0.00    -0.271 OA
ATOM      9  N   UNL     1      -7.345   3.403   1.966  0.00  0.00    -0.137 N 
ATOM     10  C   UNL     1      -8.182   4.394   1.639  0.00  0.00    +0.327 C 
ATOM     11  O   UNL     1      -7.828   5.541   1.448  0.00  0.00    -0.251 OA
ATOM     12  N   UNL     1      -9.458   3.979   1.542  0.00  0.00    -0.280 N 
ATOM     13  H   UNL     1     -10.228   4.523   1.315  0.00  0.00    +0.152 HD
BRANCH   6  14
ATOM     14  C   UNL     1      -9.953   1.743   0.672  0.00  0.00    -0.015 A 
ATOM     15  C   UNL     1      -9.400   0.508   0.390  0.00  0.00    +0.006 A 
ATOM     16  C   UNL     1      -9.858  -0.224  -0.690  0.00  0.00    +0.000 A 
ATOM     17  C   UNL     1     -10.863   0.282  -1.492  0.00  0.00    +0.000 A 
ATOM     18  C   UNL     1     -11.413   1.520  -1.213  0.00  0.00    +0.000 A 
ATOM     19  C   UNL     1     -10.957   2.250  -0.131  0.00  0.00    +0.006 A 
ENDBRANCH   6  14
ENDBRANCH   1   9
BRANCH   2  20
ATOM     20  C   UNL     1      -3.681   3.865   1.226  0.00  0.00    +0.021 C 
BRANCH  20  25
ATOM     21  C   UNL     1      -3.694   5.053  -0.900  0.00  0.00    -0.077 C 
ATOM     22  C   UNL     1      -2.620   5.399  -1.962  0.00  0.00    -0.020 C 
ATOM     23  C   UNL     1      -1.299   5.296  -1.164  0.00  0.00    -0.011 C 
ATOM     24  C   UNL     1      -1.627   4.395   0.041  0.00  0.00    -0.020 C 
ATOM     25  N   UNL     1      -3.029   4.004  -0.111  0.00  0.00    +0.391 N 
ATOM     26  H   UNL     1      -3.086   3.107  -0.608  0.00  0.00    -0.080 HD
BRANCH  24  27
ATOM     27  C   UNL     1      -0.741   3.176   0.026  0.00  0.00    +0.005 A 
ATOM     28  C   UNL     1      -1.159   1.894   0.017  0.00  0.00    +0.021 A 
ATOM     29  C   UNL     1      -0.013   1.076   0.008  0.00  0.00    +0.019 A 
ATOM     30  C   UNL     1       1.063   1.889   0.002  0.00  0.00    +0.085 A 
ATOM     31  N   UNL     1       0.623   3.179   0.013  0.00  0.00    -0.355 N 
ATOM     32  C   UNL     1       1.474   4.371   0.012  0.00  0.00    +0.148 C 
ENDBRANCH  24  27
ENDBRANCH  20  25
ENDBRANCH   2  20
TORSDOF 5
