REMARK  Name = ZINC24980692
REMARK  9 active torsions:
REMARK  status: ('A' for Active; 'I' for Inactive)
REMARK    1  A    between atoms: C_1  and  C_2
REMARK    2  A    between atoms: C_2  and  C_4
REMARK    3  A    between atoms: C_2  and  S_14
REMARK    4  A    between atoms: N_10  and  C_11
REMARK    5  A    between atoms: N_10  and  C_12
REMARK    6  A    between atoms: S_14  and  C_15
REMARK    7  A    between atoms: N_19  and  C_20
REMARK    8  A    between atoms: C_25  and  O_26
REMARK    9  A    between atoms: O_26  and  C_27
REMARK                            x       y       z     vdW  Elec       q    Type
REMARK                         _______ _______ _______ _____ _____    ______ ____
ROOT
ATOM      1  C   UNL     1      -3.576   7.378  -2.334  0.00  0.00    +0.028 C 
ATOM      2  C   UNL     1      -3.460   6.111  -3.184  0.00  0.00    +0.119 C 
ENDROOT
BRANCH   2   3
ATOM      3  C   UNL     1      -3.064   6.484  -4.590  0.00  0.00    +0.149 A 
ATOM      4  N   UNL     1      -1.821   6.850  -4.849  0.00  0.00    -0.198 NA
ATOM      5  C   UNL     1      -1.467   7.176  -6.090  0.00  0.00    +0.217 A 
ATOM      6  N   UNL     1      -2.367   7.141  -7.067  0.00  0.00    -0.181 NA
ATOM      7  C   UNL     1      -3.617   6.777  -6.801  0.00  0.00    +0.222 A 
ATOM      8  N   UNL     1      -3.962   6.448  -5.558  0.00  0.00    -0.198 NA
ATOM      9  N   UNL     1      -4.555   6.739  -7.812  0.00  0.00    -0.306 N 
ATOM     10  C   UNL     1      -5.933   6.338  -7.518  0.00  0.00    +0.132 C 
ATOM     11  C   UNL     1      -4.174   7.101  -9.179  0.00  0.00    +0.132 C 
ATOM     12  N   UNL     1      -0.168   7.553  -6.361  0.00  0.00    -0.327 N 
ATOM     13  H   UNL     1       0.124   7.822  -7.387  0.00  0.00    +0.145 HD
ATOM     14  H   UNL     1       0.576   7.585  -5.552  0.00  0.00    +0.145 HD
ENDBRANCH   2   3
BRANCH   2  15
ATOM     15  S   UNL     1      -2.203   5.021  -2.472  0.00  0.00    -0.075 S 
BRANCH  15  16
ATOM     16  C   UNL     1      -2.970   4.631  -0.935  0.00  0.00    +0.197 A 
ATOM     17  N   UNL     1      -4.136   5.063  -0.512  0.00  0.00    -0.122 NA
ATOM     18  N   UNL     1      -4.385   4.581   0.652  0.00  0.00    -0.137 NA
ATOM     19  C   UNL     1      -3.406   3.814   1.040  0.00  0.00    +0.230 A 
ATOM     20  N   UNL     1      -2.465   3.821   0.044  0.00  0.00    -0.273 N 
BRANCH  20  21
ATOM     21  C   UNL     1      -1.240   3.135   0.030  0.00  0.00    +0.091 A 
ATOM     22  C   UNL     1      -1.220   1.749   0.017  0.00  0.00    +0.030 A 
ATOM     23  C   UNL     1      -0.013   1.076   0.008  0.00  0.00    +0.002 A 
ATOM     24  C   UNL     1       1.177   1.782   0.000  0.00  0.00    +0.004 A 
ATOM     25  C   UNL     1       1.164   3.164   0.007  0.00  0.00    +0.048 A 
ATOM     26  C   UNL     1      -0.043   3.846   0.022  0.00  0.00    +0.144 A 
BRANCH  26  27
ATOM     27  O   UNL     1      -0.057   5.205   0.029  0.00  0.00    -0.493 OA
ATOM     28  C   UNL     1       1.210   5.867   0.020  0.00  0.00    +0.277 C 
ENDBRANCH  26  27
ENDBRANCH  20  21
ENDBRANCH  15  16
ENDBRANCH   2  15
TORSDOF 5
