REMARK  Name = ZINC39763610
REMARK  12 active torsions:
REMARK  status: ('A' for Active; 'I' for Inactive)
REMARK    1  A    between atoms: C_1  and  C_2
REMARK    2  A    between atoms: C_2  and  N_3
REMARK    3  A    between atoms: C_4  and  C_21
REMARK    4  A    between atoms: C_7  and  S_8
REMARK    5  A    between atoms: S_8  and  C_9
REMARK    6  A    between atoms: C_9  and  C_11
REMARK    7  A    between atoms: C_9  and  C_12
REMARK    8  A    between atoms: N_14  and  C_15
REMARK    9  A    between atoms: C_21  and  O_22
REMARK   10  A    between atoms: O_22  and  C_23
REMARK   11  A    between atoms: C_25  and  C_30
REMARK   12  A    between atoms: C_28  and  C_29
REMARK                            x       y       z     vdW  Elec       q    Type
REMARK                         _______ _______ _______ _____ _____    ______ ____
ROOT
ATOM      1  N   UNL     1      -1.372  -0.511   0.012  0.00  0.00    -0.303 N 
ATOM      2  C   UNL     1      -2.139  -0.798   1.108  0.00  0.00    +0.172 A 
ATOM      3  N   UNL     1      -3.292  -1.221   0.675  0.00  0.00    -0.130 NA
ATOM      4  N   UNL     1      -3.308  -1.222  -0.610  0.00  0.00    -0.122 NA
ATOM      5  C   UNL     1      -2.156  -0.790  -1.070  0.00  0.00    +0.192 A 
ENDROOT
BRANCH   1   7
ATOM      6  C   UNL     1      -0.019   1.526   0.010  0.00  0.00    +0.027 C 
ATOM      7  C   UNL     1       0.002  -0.004   0.002  0.00  0.00    +0.122 C 
ENDBRANCH   1   7
BRANCH   5   8
ATOM      8  S   UNL     1      -1.707  -0.609  -2.764  0.00  0.00    -0.074 S 
BRANCH   8   9
ATOM      9  C   UNL     1      -3.184  -1.145  -3.670  0.00  0.00    +0.137 C 
ATOM     10  C   UNL     1      -4.335  -0.179  -3.385  0.00  0.00    +0.029 C 
BRANCH   9  11
ATOM     11  C   UNL     1      -2.890  -1.155  -5.148  0.00  0.00    +0.226 C 
ATOM     12  O   UNL     1      -1.961  -0.511  -5.586  0.00  0.00    -0.275 OA
ATOM     13  N   UNL     1      -3.661  -1.881  -5.983  0.00  0.00    -0.312 N 
ATOM     14  H   UNL     1      -4.404  -2.396  -5.633  0.00  0.00    +0.149 HD
BRANCH  13  15
ATOM     15  C   UNL     1      -3.375  -1.891  -7.420  0.00  0.00    +0.073 C 
ATOM     16  C   UNL     1      -4.048  -0.686  -8.082  0.00  0.00    +0.022 C 
ATOM     17  C   UNL     1      -3.750  -0.696  -9.582  0.00  0.00    +0.002 C 
ATOM     18  C   UNL     1      -4.292  -1.986 -10.201  0.00  0.00    +0.000 C 
ATOM     19  C   UNL     1      -3.619  -3.191  -9.539  0.00  0.00    +0.002 C 
ATOM     20  C   UNL     1      -3.917  -3.181  -8.039  0.00  0.00    +0.022 C 
ENDBRANCH  13  15
ENDBRANCH   9  11
ENDBRANCH   8   9
ENDBRANCH   5   8
BRANCH   2  21
ATOM     21  C   UNL     1      -1.725  -0.651   2.550  0.00  0.00    +0.305 C 
BRANCH  21  22
ATOM     22  O   UNL     1      -2.059   0.659   3.011  0.00  0.00    -0.484 OA
BRANCH  22  23
ATOM     23  C   UNL     1      -1.751   0.957   4.301  0.00  0.00    +0.124 A 
ATOM     24  C   UNL     1      -1.134   0.009   5.104  0.00  0.00    +0.049 A 
ATOM     25  C   UNL     1      -0.821   0.315   6.415  0.00  0.00    -0.047 A 
ATOM     26  C   UNL     1      -1.123   1.564   6.926  0.00  0.00    +0.004 A 
ATOM     27  C   UNL     1      -1.738   2.510   6.127  0.00  0.00    +0.007 A 
ATOM     28  C   UNL     1      -2.048   2.211   4.814  0.00  0.00    -0.009 A 
ATOM     29  C   UNL     1      -2.713   3.245   3.942  0.00  0.00    +0.047 C 
ATOM     30  C   UNL     1      -0.151  -0.714   7.288  0.00  0.00    +0.044 C 
ENDBRANCH  22  23
ENDBRANCH  21  22
ENDBRANCH   2  21
TORSDOF 8
