REMARK  Name = ZINC35081890
REMARK  7 active torsions:
REMARK  status: ('A' for Active; 'I' for Inactive)
REMARK    1  A    between atoms: C_1  and  C_2
REMARK    2  A    between atoms: C_2  and  C_4
REMARK    3  A    between atoms: C_2  and  N_7
REMARK    4  A    between atoms: C_4  and  C_5
REMARK    5  A    between atoms: C_4  and  C_6
REMARK    6  A    between atoms: N_7  and  C_8
REMARK    7  A    between atoms: C_13  and  N_14
REMARK                            x       y       z     vdW  Elec       q    Type
REMARK                         _______ _______ _______ _____ _____    ______ ____
ROOT
ATOM      1  C   UNL     1       0.029  -0.638   2.395  0.00  0.00    +0.050 A 
ATOM      2  C   UNL     1      -1.318  -0.332   2.464  0.00  0.00    +0.053 A 
ATOM      3  C   UNL     1      -2.002  -0.481   3.670  0.00  0.00    +0.080 A 
ATOM      4  C   UNL     1      -1.307  -0.945   4.811  0.00  0.00    +0.067 A 
ATOM      5  C   UNL     1       0.052  -1.251   4.730  0.00  0.00    +0.040 A 
ATOM      6  C   UNL     1       0.713  -1.103   3.527  0.00  0.00    +0.047 A 
ATOM      7  C   UNL     1      -2.059  -1.089   6.064  0.00  0.00    +0.259 A 
ATOM      8  O   UNL     1      -1.521  -1.483   7.082  0.00  0.00    -0.267 OA
ATOM      9  N   UNL     1      -3.373  -0.767   6.043  0.00  0.00    -0.313 N 
ATOM     10  H   UNL     1      -3.901  -0.850   6.853  0.00  0.00    +0.170 HD
ATOM     11  C   UNL     1      -3.961  -0.327   4.899  0.00  0.00    +0.199 A 
ATOM     12  N   UNL     1      -3.323  -0.190   3.777  0.00  0.00    -0.237 NA
ENDROOT
BRANCH   6  13
ATOM     13  N   UNL     1       2.075  -1.415   3.439  0.00  0.00    -0.357 N 
ATOM     14  H   UNL     1       2.543  -1.308   2.596  0.00  0.00    +0.142 HD
ATOM     15  H   UNL     1       2.551  -1.736   4.220  0.00  0.00    +0.142 HD
ENDBRANCH   6  13
BRANCH   1  16
ATOM     16  N   UNL     1       0.711  -0.489   1.189  0.00  0.00    -0.340 N 
ATOM     17  H   UNL     1       1.654  -0.707   1.135  0.00  0.00    +0.146 HD
BRANCH  16  19
ATOM     18  C   UNL     1      -0.019   1.526   0.010  0.00  0.00    +0.028 C 
ATOM     19  C   UNL     1       0.002  -0.004   0.002  0.00  0.00    +0.070 C 
BRANCH  19  20
ATOM     20  C   UNL     1       0.718  -0.497  -1.257  0.00  0.00    +0.003 C 
ATOM     21  C   UNL     1      -0.022   0.009  -2.496  0.00  0.00    +0.009 C 
ATOM     22  C   UNL     1       2.154   0.032  -1.268  0.00  0.00    +0.009 C 
ENDBRANCH  19  20
ENDBRANCH  16  19
ENDBRANCH   1  16
TORSDOF 4
