REMARK  Name = ZINC28915622
REMARK  10 active torsions:
REMARK  status: ('A' for Active; 'I' for Inactive)
REMARK    1  A    between atoms: C_1  and  C_2
REMARK    2  A    between atoms: C_3  and  C_25
REMARK    3  A    between atoms: N_5  and  C_11
REMARK    4  A    between atoms: C_8  and  C_9
REMARK    5  A    between atoms: C_11  and  C_12
REMARK    6  A    between atoms: C_12  and  C_14
REMARK    7  A    between atoms: C_12  and  O_24
REMARK    8  A    between atoms: C_14  and  O_15
REMARK    9  A    between atoms: O_15  and  C_16
REMARK   10  A    between atoms: C_16  and  C_17
REMARK                            x       y       z     vdW  Elec       q    Type
REMARK                         _______ _______ _______ _____ _____    ______ ____
ROOT
ATOM      1  C   UNL     1       0.002  -0.004   0.002  0.00  0.00    +0.161 C 
ENDROOT
BRANCH   1   2
ATOM      2  O   UNL     1      -0.017   1.425   0.010  0.00  0.00    -0.388 OA
ATOM      3  H   UNL     1      -0.509   1.973  -0.807  0.00  0.00    +0.210 HD
ENDBRANCH   1   2
BRANCH   1   4
ATOM      4  C   UNL     1       0.742  -0.511   1.242  0.00  0.00    +0.181 C 
BRANCH   4   9
ATOM      5  C   UNL     1      -2.074   1.118   5.937  0.00  0.00    +0.047 C 
ATOM      6  C   UNL     1      -1.367   0.630   4.698  0.00  0.00    -0.005 A 
ATOM      7  C   UNL     1      -0.374   1.401   4.083  0.00  0.00    +0.063 A 
ATOM      8  N   UNL     1       0.239   0.982   3.012  0.00  0.00    -0.173 NA
ATOM      9  N   UNL     1      -0.008  -0.140   2.444  0.00  0.00    -0.226 N 
ATOM     10  C   UNL     1      -0.944  -0.986   2.920  0.00  0.00    +0.285 A 
ATOM     11  O   UNL     1      -1.167  -2.047   2.362  0.00  0.00    -0.265 OA
ATOM     12  C   UNL     1      -1.684  -0.603   4.129  0.00  0.00    +0.122 A 
ATOM     13  C   UNL     1      -0.005   2.739   4.671  0.00  0.00    +0.068 C 
BRANCH  12  14
ATOM     14  C   UNL     1      -2.688  -1.453   4.694  0.00  0.00    +0.105 C 
ATOM     15  N   UNL     1      -3.484  -2.128   5.143  0.00  0.00    -0.191 NA
ENDBRANCH  12  14
ENDBRANCH   4   9
ENDBRANCH   1   4
BRANCH   1  16
ATOM     16  C   UNL     1       0.718  -0.497  -1.257  0.00  0.00    +0.193 C 
BRANCH  16  17
ATOM     17  O   UNL     1      -0.036  -0.123  -2.412  0.00  0.00    -0.373 OA
BRANCH  17  18
ATOM     18  C   UNL     1       0.549  -0.538  -3.647  0.00  0.00    +0.195 C 
BRANCH  18  19
ATOM     19  C   UNL     1      -0.325  -0.093  -4.791  0.00  0.00    -0.022 A 
ATOM     20  C   UNL     1      -1.327  -0.923  -5.259  0.00  0.00    +0.007 A 
ATOM     21  C   UNL     1      -2.132  -0.513  -6.305  0.00  0.00    +0.020 A 
ATOM     22  C   UNL     1      -1.929   0.723  -6.891  0.00  0.00    +0.041 A 
ATOM     23  C   UNL     1      -0.923   1.551  -6.426  0.00  0.00    +0.020 A 
ATOM     24  C   UNL     1      -0.121   1.143  -5.376  0.00  0.00    +0.007 A 
ATOM     25 CL   UNL     1      -2.936   1.236  -8.208  0.00  0.00    -0.084 Cl
ENDBRANCH  18  19
ENDBRANCH  17  18
ENDBRANCH  16  17
ENDBRANCH   1  16
TORSDOF 8
