REMARK  Name = ZINC41604850
REMARK  8 active torsions:
REMARK  status: ('A' for Active; 'I' for Inactive)
REMARK    1  A    between atoms: C_1  and  C_2
REMARK    2  A    between atoms: C_2  and  C_3
REMARK    3  A    between atoms: C_2  and  S_4
REMARK    4  A    between atoms: S_4  and  C_5
REMARK    5  A    between atoms: C_5  and  C_6
REMARK    6  A    between atoms: N_14  and  C_15
REMARK    7  A    between atoms: C_18  and  C_21
REMARK    8  A    between atoms: C_21  and  N_22
REMARK                            x       y       z     vdW  Elec       q    Type
REMARK                         _______ _______ _______ _____ _____    ______ ____
ROOT
ATOM      1  C   UNL     1       8.141  -4.608  -4.332  0.00  0.00    +0.060 A 
ATOM      2  C   UNL     1       8.575  -3.766  -5.315  0.00  0.00    +0.094 A 
ATOM      3  C   UNL     1       7.708  -2.761  -5.780  0.00  0.00    +0.253 A 
ATOM      4  O   UNL     1       8.063  -1.991  -6.658  0.00  0.00    -0.268 OA
ATOM      5  N   UNL     1       6.476  -2.664  -5.237  0.00  0.00    -0.295 N 
ATOM      6  H   UNL     1       5.862  -1.979  -5.543  0.00  0.00    +0.172 HD
ATOM      7  C   UNL     1       6.099  -3.532  -4.259  0.00  0.00    +0.200 A 
ATOM      8  N   UNL     1       6.915  -4.475  -3.832  0.00  0.00    -0.220 NA
ATOM      9  N   UNL     1       4.846  -3.427  -3.712  0.00  0.00    -0.285 N 
ATOM     10  H   UNL     1       4.269  -2.689  -3.960  0.00  0.00    +0.155 HD
ENDROOT
BRANCH   9  11
ATOM     11  C   UNL     1       4.402  -4.385  -2.795  0.00  0.00    +0.034 A 
ATOM     12  C   UNL     1       3.555  -4.016  -1.758  0.00  0.00    +0.023 A 
ATOM     13  C   UNL     1       3.117  -4.964  -0.854  0.00  0.00    +0.003 A 
ATOM     14  C   UNL     1       3.521  -6.281  -0.982  0.00  0.00    -0.064 A 
ATOM     15  C   UNL     1       4.364  -6.652  -2.013  0.00  0.00    +0.003 A 
ATOM     16  C   UNL     1       4.800  -5.710  -2.924  0.00  0.00    +0.023 A 
BRANCH  14  17
ATOM     17  C   UNL     1       3.041  -7.313   0.006  0.00  0.00    -0.043 C 
BRANCH  17  18
ATOM     18  N   UNL     1       1.787  -7.907  -0.476  0.00  0.00    +0.382 N 
ATOM     19  C   UNL     1       0.742  -6.877  -0.513  0.00  0.00    -0.078 C 
ATOM     20  C   UNL     1      -0.544  -7.471  -1.091  0.00  0.00    -0.019 C 
ATOM     21  C   UNL     1      -1.004  -8.636  -0.210  0.00  0.00    -0.004 C 
ATOM     22  C   UNL     1       0.123  -9.669  -0.118  0.00  0.00    -0.019 C 
ATOM     23  C   UNL     1       1.385  -8.994   0.424  0.00  0.00    -0.078 C 
ATOM     24  H   UNL     1       1.927  -8.275  -1.405  0.00  0.00    -0.081 HD
ENDBRANCH  17  18
ENDBRANCH  14  17
ENDBRANCH   9  11
BRANCH   1  25
ATOM     25  C   UNL     1       9.050  -5.694  -3.817  0.00  0.00    +0.125 C 
BRANCH  25  26
ATOM     26  S   UNL     1       9.680  -5.229  -2.180  0.00  0.00    -0.152 S 
BRANCH  26  28
ATOM     27  C   UNL     1      11.935  -6.700  -2.663  0.00  0.00    +0.018 C 
ATOM     28  C   UNL     1      10.742  -6.621  -1.708  0.00  0.00    +0.041 C 
ATOM     29  C   UNL     1      11.247  -6.415  -0.278  0.00  0.00    +0.018 C 
ENDBRANCH  26  28
ENDBRANCH  25  26
ENDBRANCH   1  25
TORSDOF 6
