REMARK  Name = ZINC35388098
REMARK  6 active torsions:
REMARK  status: ('A' for Active; 'I' for Inactive)
REMARK    1  A    between atoms: C_1  and  C_2
REMARK    2  A    between atoms: C_10  and  C_12
REMARK    3  A    between atoms: C_12  and  N_13
REMARK    4  A    between atoms: N_13  and  CA_14
REMARK    5  A    between atoms: CA_14  and  CB_16
REMARK    6  A    between atoms: CA_14  and  C_17
REMARK                            x       y       z     vdW  Elec       q    Type
REMARK                         _______ _______ _______ _____ _____    ______ ____
ROOT
ATOM      1  C   UNL     1      -0.018   1.503   0.010  0.00  0.00    +0.064 C 
ATOM      2  C   UNL     1       0.002  -0.004   0.002  0.00  0.00    +0.033 A 
ATOM      3  C   UNL     1       0.005  -0.653  -1.162  0.00  0.00    +0.070 A 
ATOM      4  S   UNL     1       0.032  -2.358  -0.630  0.00  0.00    -0.057 S 
ATOM      5  C   UNL     1       0.036  -2.054   1.123  0.00  0.00    +0.180 A 
ATOM      6  N   UNL     1       0.023  -0.686   1.195  0.00  0.00    -0.259 N 
ATOM      7  C   UNL     1       0.027  -0.142   2.448  0.00  0.00    +0.259 A 
ATOM      8  O   UNL     1       0.011   1.071   2.587  0.00  0.00    -0.267 OA
ATOM      9  C   UNL     1       0.049  -0.973   3.568  0.00  0.00    +0.092 A 
ATOM     10  C   UNL     1       0.066  -2.342   3.404  0.00  0.00    +0.032 A 
ATOM     11  N   UNL     1       0.052  -2.840   2.171  0.00  0.00    -0.229 NA
ENDROOT
BRANCH  10  12
ATOM     12  C   ACE A   0       0.091  -3.257   4.601  0.00  0.00    -0.025 C 
BRANCH  12  13
ATOM     13  N   UNL     1      -1.153  -4.037   4.646  0.00  0.00    +0.391 N 
ATOM     14  H1  UNL     1      -1.941  -3.410   4.718  0.00  0.00    -0.084 HD
ATOM     15  H2  UNL     1      -1.237  -4.587   3.804  0.00  0.00    -0.084 HD
BRANCH  13  16
ATOM     16  CA  UNL     1      -1.130  -4.929   5.813  0.00  0.00    +0.041 C 
ATOM     17  CB  UNL     1      -0.012  -5.960   5.644  0.00  0.00    -0.002 C 
BRANCH  16  18
ATOM     18  C   UNL     1      -2.454  -5.639   5.930  0.00  0.00    +0.342 C 
ATOM     19  O   UNL     1      -3.267  -5.565   5.024  0.00  0.00    -0.248 OA
ATOM     20  OXT UNL     1      -2.712  -6.287   6.930  0.00  0.00    -0.248 OA
ENDBRANCH  16  18
ENDBRANCH  13  16
ENDBRANCH  12  13
ENDBRANCH  10  12
TORSDOF 4
