REMARK  Name = ZINC35455751
REMARK  5 active torsions:
REMARK  status: ('A' for Active; 'I' for Inactive)
REMARK    1  A    between atoms: C_4  and  C_7
REMARK    2  A    between atoms: C_8  and  C_19
REMARK    3  A    between atoms: N_10  and  C_12
REMARK    4  A    between atoms: N_23  and  C_27
REMARK    5  A    between atoms: C_27  and  C_28
REMARK                            x       y       z     vdW  Elec       q    Type
REMARK                         _______ _______ _______ _____ _____    ______ ____
ROOT
ATOM      1  C   UNL     1       3.698  -0.687  -0.038  0.00  0.00    +0.104 A 
ATOM      2  C   UNL     1       3.994  -1.964   0.625  0.00  0.00    +0.071 A 
ATOM      3  C   UNL     1       5.325  -2.252   0.335  0.00  0.00    +0.281 A 
ATOM      4  N   UNL     1       5.802  -1.249  -0.432  0.00  0.00    -0.196 N 
ATOM      5  N   UNL     1       4.793  -0.307  -0.654  0.00  0.00    -0.162 NA
ATOM      6  O   UNL     1       6.017  -3.340   0.749  0.00  0.00    -0.265 OA
ENDROOT
BRANCH   2   7
ATOM      7  C   UNL     1       3.076  -2.770   1.428  0.00  0.00    +0.044 C 
ATOM      8  C   UNL     1       2.940  -4.101   1.175  0.00  0.00    +0.099 C 
ATOM      9  C   UNL     1       2.094  -5.018   1.853  0.00  0.00    +0.269 C 
ATOM     10  O   UNL     1       1.345  -4.763   2.780  0.00  0.00    -0.268 OA
ATOM     11  N   UNL     1       2.274  -6.223   1.278  0.00  0.00    -0.216 N 
ATOM     12  C   UNL     1       3.175  -6.119   0.287  0.00  0.00    +0.313 C 
ATOM     13  O   UNL     1       3.547  -7.038  -0.417  0.00  0.00    -0.252 OA
ATOM     14  N   UNL     1       3.602  -4.846   0.186  0.00  0.00    -0.265 N 
ATOM     15  H   UNL     1       4.249  -4.507  -0.451  0.00  0.00    +0.157 HD
BRANCH  11  16
ATOM     16  C   UNL     1       1.591  -7.457   1.673  0.00  0.00    +0.156 C 
BRANCH  16  17
ATOM     17  C   UNL     1       0.313  -7.598   0.887  0.00  0.00    +0.006 A 
ATOM     18  C   UNL     1      -0.894  -7.246   1.462  0.00  0.00    +0.008 A 
ATOM     19  C   UNL     1      -2.067  -7.375   0.742  0.00  0.00    +0.000 A 
ATOM     20  C   UNL     1      -2.034  -7.855  -0.554  0.00  0.00    +0.003 A 
ATOM     21  C   UNL     1      -0.829  -8.207  -1.131  0.00  0.00    +0.038 A 
ATOM     22  C   UNL     1       0.347  -8.073  -0.412  0.00  0.00    +0.128 A 
ATOM     23  F   UNL     1       1.527  -8.412  -0.977  0.00  0.00    -0.205 F 
ENDBRANCH  16  17
ENDBRANCH  11  16
ENDBRANCH   2   7
BRANCH   1  27
ATOM     24  C   UNL     1      -0.017   1.379   0.010  0.00  0.00    +0.000 A 
ATOM     25  C   UNL     1       1.169   2.092   0.002  0.00  0.00    +0.001 A 
ATOM     26  C   UNL     1       2.377   1.427  -0.013  0.00  0.00    +0.010 A 
ATOM     27  C   UNL     1       2.403   0.033  -0.021  0.00  0.00    +0.003 A 
ATOM     28  C   UNL     1       1.205  -0.680  -0.013  0.00  0.00    +0.010 A 
ATOM     29  C   UNL     1       0.002  -0.004   0.002  0.00  0.00    +0.001 A 
ENDBRANCH   1  27
BRANCH   4  30
ATOM     30  C   UNL     1       7.107  -1.167  -0.934  0.00  0.00    +0.069 A 
ATOM     31  C   UNL     1       8.172  -1.646  -0.184  0.00  0.00    +0.028 A 
ATOM     32  C   UNL     1       9.458  -1.564  -0.682  0.00  0.00    +0.002 A 
ATOM     33  C   UNL     1       9.685  -1.006  -1.926  0.00  0.00    +0.000 A 
ATOM     34  C   UNL     1       8.626  -0.527  -2.676  0.00  0.00    +0.002 A 
ATOM     35  C   UNL     1       7.337  -0.612  -2.186  0.00  0.00    +0.028 A 
ENDBRANCH   4  30
TORSDOF 5
