REMARK  Name = ZINC39666572
REMARK  10 active torsions:
REMARK  status: ('A' for Active; 'I' for Inactive)
REMARK    1  A    between atoms: C_1  and  C_2
REMARK    2  A    between atoms: C_2  and  C_4
REMARK    3  A    between atoms: C_2  and  O_30
REMARK    4  A    between atoms: C_4  and  N_5
REMARK    5  A    between atoms: C_6  and  C_8
REMARK    6  A    between atoms: C_19  and  C_21
REMARK    7  A    between atoms: C_21  and  C_22
REMARK    8  A    between atoms: C_22  and  C_23
REMARK    9  A    between atoms: C_23  and  C_24
REMARK   10  A    between atoms: O_30  and  C_31
REMARK                            x       y       z     vdW  Elec       q    Type
REMARK                         _______ _______ _______ _____ _____    ______ ____
ROOT
ATOM      1  C   UNL     1       1.468  -3.687   1.338  0.00  0.00    +0.100 C 
ATOM      2  C   UNL     1       2.300  -3.911   0.055  0.00  0.00    +0.121 C 
ATOM      3  N   UNL     1       3.673  -4.183   0.542  0.00  0.00    -0.300 N 
ATOM      4  C   UNL     1       3.477  -5.026   1.745  0.00  0.00    +0.115 C 
ATOM      5  C   UNL     1       2.243  -4.424   2.444  0.00  0.00    -0.004 C 
ATOM      6  C   UNL     1       1.382  -5.532   3.044  0.00  0.00    -0.010 C 
ATOM      7  C   UNL     1       2.151  -6.211   4.180  0.00  0.00    -0.082 C 
ATOM      8  N   UNL     1       2.490  -5.218   5.206  0.00  0.00    +0.379 N 
ATOM      9  C   UNL     1       3.394  -4.207   4.645  0.00  0.00    -0.082 C 
ATOM     10  C   UNL     1       2.677  -3.442   3.528  0.00  0.00    -0.010 C 
ATOM     11  C   UNL     1       4.836  -3.759   0.010  0.00  0.00    +0.216 C 
ATOM     12  O   UNL     1       5.888  -4.069   0.528  0.00  0.00    -0.276 OA
ATOM     13  H   UNL     1       1.647  -4.770   5.531  0.00  0.00    -0.086 HD
ATOM     14  H   UNL     1       2.943  -5.679   5.981  0.00  0.00    -0.086 HD
ENDROOT
BRANCH   1  16
ATOM     15  N   UNL     1       0.308  -1.737   2.322  0.00  0.00    -0.312 N 
ATOM     16  C   UNL     1       1.375  -2.216   1.653  0.00  0.00    +0.218 C 
ATOM     17  O   UNL     1       2.261  -1.464   1.305  0.00  0.00    -0.275 OA
ATOM     18  H   UNL     1      -0.401  -2.338   2.600  0.00  0.00    +0.149 HD
BRANCH  15  19
ATOM     19  C   UNL     1       0.217  -0.307   2.628  0.00  0.00    +0.148 C 
BRANCH  19  21
ATOM     20  C   UNL     1      -1.177   1.464   3.707  0.00  0.00    +0.053 C 
ATOM     21  C   UNL     1      -1.082  -0.029   3.387  0.00  0.00    +0.187 C 
BRANCH  21  22
ATOM     22  O   UNL     1      -2.197  -0.415   2.581  0.00  0.00    -0.486 OA
BRANCH  22  23
ATOM     23  C   UNL     1      -3.346  -0.738   3.230  0.00  0.00    +0.139 A 
ATOM     24  C   UNL     1      -3.435  -0.581   4.605  0.00  0.00    +0.047 A 
ATOM     25  C   UNL     1      -4.604  -0.909   5.263  0.00  0.00    +0.004 A 
ATOM     26  C   UNL     1      -5.686  -1.395   4.553  0.00  0.00    +0.002 A 
ATOM     27  C   UNL     1      -5.601  -1.554   3.182  0.00  0.00    +0.023 A 
ATOM     28  C   UNL     1      -4.436  -1.221   2.518  0.00  0.00    +0.083 A 
ATOM     29 CL   UNL     1      -4.331  -1.413   0.795  0.00  0.00    -0.080 Cl
ENDBRANCH  22  23
ENDBRANCH  21  22
ENDBRANCH  19  21
ENDBRANCH  15  19
ENDBRANCH   1  16
BRANCH  11  30
ATOM     30  C   UNL     1       4.830  -2.901  -1.229  0.00  0.00    +0.096 C 
BRANCH  30  31
ATOM     31  C   UNL     1       6.270  -2.561  -1.621  0.00  0.00    +0.014 C 
BRANCH  31  32
ATOM     32  C   UNL     1       6.264  -1.689  -2.878  0.00  0.00    +0.035 C 
BRANCH  32  33
ATOM     33  C   UNL     1       7.682  -1.355  -3.264  0.00  0.00    -0.047 A 
ATOM     34  C   UNL     1       8.287  -0.221  -2.755  0.00  0.00    +0.003 A 
ATOM     35  C   UNL     1       9.588   0.086  -3.110  0.00  0.00    +0.000 A 
ATOM     36  C   UNL     1      10.283  -0.741  -3.972  0.00  0.00    +0.000 A 
ATOM     37  C   UNL     1       9.677  -1.875  -4.481  0.00  0.00    +0.000 A 
ATOM     38  C   UNL     1       8.378  -2.184  -4.123  0.00  0.00    +0.003 A 
ENDBRANCH  32  33
ENDBRANCH  31  32
ENDBRANCH  30  31
ENDBRANCH  11  30
TORSDOF 9
