REMARK  Name = ZINC60396762
REMARK  6 active torsions:
REMARK  status: ('A' for Active; 'I' for Inactive)
REMARK    1  A    between atoms: C_1  and  C_2
REMARK    2  A    between atoms: C_5  and  C_9
REMARK    3  A    between atoms: C_6  and  O_8
REMARK    4  A    between atoms: N_11  and  N_12
REMARK    5  A    between atoms: C_13  and  C_15
REMARK    6  A    between atoms: C_16  and  C_17
REMARK                            x       y       z     vdW  Elec       q    Type
REMARK                         _______ _______ _______ _____ _____    ______ ____
ROOT
ATOM      1  N   UNL     1       0.081  -6.316  -1.222  0.00  0.00    -0.231 N 
ATOM      2  C   UNL     1       0.083  -6.979  -2.396  0.00  0.00    +0.253 C 
ATOM      3  O   UNL     1       0.070  -6.361  -3.445  0.00  0.00    -0.269 OA
ATOM      4  H   UNL     1       0.092  -6.809  -0.387  0.00  0.00    +0.173 HD
ENDROOT
BRANCH   1   7
ATOM      5  C   UNL     1       0.060  -4.252  -0.036  0.00  0.00    +0.264 C 
ATOM      6  O   UNL     1       0.073  -4.870   1.011  0.00  0.00    -0.269 OA
ATOM      7  N   UNL     1       0.062  -4.915  -1.209  0.00  0.00    -0.230 N 
ATOM      8  H   UNL     1       0.051  -4.423  -2.045  0.00  0.00    +0.173 HD
BRANCH   5  13
ATOM      9  C   UNL     1      -0.018   1.503   0.010  0.00  0.00    +0.044 C 
ATOM     10  C   UNL     1       0.002  -0.004   0.002  0.00  0.00    -0.047 A 
ATOM     11  C   UNL     1       0.006  -0.686  -1.204  0.00  0.00    +0.004 A 
ATOM     12  C   UNL     1       0.024  -2.064  -1.224  0.00  0.00    +0.017 A 
ATOM     13  C   UNL     1       0.040  -2.777  -0.022  0.00  0.00    +0.079 A 
ATOM     14  C   UNL     1       0.037  -2.084   1.195  0.00  0.00    +0.129 A 
ATOM     15  C   UNL     1       0.023  -0.697   1.196  0.00  0.00    +0.049 A 
BRANCH  14  16
ATOM     16  O   UNL     1       0.052  -2.766   2.368  0.00  0.00    -0.506 OA
ATOM     17  H   UNL     1       0.939  -2.952   2.704  0.00  0.00    +0.292 HD
ENDBRANCH  14  16
ENDBRANCH   5  13
ENDBRANCH   1   7
BRANCH   2  18
ATOM     18  C   UNL     1       0.102  -8.388  -2.409  0.00  0.00    +0.071 C 
ATOM     19  C   UNL     1       0.105  -9.058  -3.595  0.00  0.00    +0.034 C 
BRANCH  19  20
ATOM     20  C   UNL     1       0.123 -10.466  -3.607  0.00  0.00    +0.085 A 
ATOM     21  C   UNL     1       0.986 -11.287  -2.900  0.00  0.00    +0.156 A 
ATOM     22  N   UNL     1       0.678 -12.547  -3.184  0.00  0.00    -0.209 NA
ATOM     23  C   UNL     1      -0.325 -12.575  -4.026  0.00  0.00    +0.179 A 
ATOM     24  N   UNL     1      -0.735 -11.309  -4.337  0.00  0.00    -0.292 N 
ATOM     25  C   UNL     1      -1.790 -11.188  -5.210  0.00  0.00    +0.101 A 
ATOM     26  C   UNL     1      -2.380 -12.269  -5.722  0.00  0.00    +0.067 A 
ATOM     27  S   UNL     1      -1.434 -13.589  -4.978  0.00  0.00    -0.058 S 
ATOM     28 CL   UNL     1       2.248 -10.761  -1.830  0.00  0.00    -0.060 Cl
ENDBRANCH  19  20
ENDBRANCH   2  18
TORSDOF 5
