REMARK  Name = ZINC17093405
REMARK  4 active torsions:
REMARK  status: ('A' for Active; 'I' for Inactive)
REMARK    1  A    between atoms: C_4  and  C_7
REMARK    2  A    between atoms: C_7  and  S_8
REMARK    3  A    between atoms: S_8  and  C_9
REMARK    4  A    between atoms: C_15  and  C_19
REMARK                            x       y       z     vdW  Elec       q    Type
REMARK                         _______ _______ _______ _____ _____    ______ ____
ROOT
ATOM      1  C   UNL     1       5.786  -1.866   1.477  0.00  0.00    +0.174 C 
ATOM      2  N   UNL     1       6.355  -2.179   0.326  0.00  0.00    -0.192 NA
ATOM      3  C   UNL     1       7.509  -2.825   0.537  0.00  0.00    +0.215 C 
ATOM      4  N   UNL     1       8.404  -3.320  -0.309  0.00  0.00    -0.330 N 
ATOM      5  C   UNL     1       9.519  -3.945   0.039  0.00  0.00    +0.027 C 
ATOM      6  C   UNL     1       9.841  -4.135   1.370  0.00  0.00    +0.041 C 
ATOM      7  C   UNL     1       8.878  -3.601   2.413  0.00  0.00    +0.162 C 
ATOM      8  N   UNL     1       7.680  -2.928   1.897  0.00  0.00    -0.208 N 
ATOM      9  N   UNL     1       6.580  -2.310   2.498  0.00  0.00    -0.239 N 
ATOM     10  C   UNL     1      10.997  -4.789   1.761  0.00  0.00    +0.163 C 
ATOM     11  O   UNL     1      11.238  -4.929   2.946  0.00  0.00    -0.292 OA
ATOM     12  C   UNL     1      11.960  -5.331   0.736  0.00  0.00    +0.080 C 
ATOM     13  C   UNL     1      11.184  -5.695  -0.533  0.00  0.00    +0.014 C 
ATOM     14  C   UNL     1      10.446  -4.453  -1.038  0.00  0.00    +0.054 C 
ATOM     15  H   UNL     1       8.228  -3.215  -1.257  0.00  0.00    +0.168 HD
ATOM     16  H   UNL     1       6.413  -2.216   3.449  0.00  0.00    +0.172 HD
ENDROOT
BRANCH   7  17
ATOM     17  C   UNL     1       9.623  -2.623   3.284  0.00  0.00    -0.021 A 
ATOM     18  C   UNL     1       9.832  -1.328   2.848  0.00  0.00    +0.007 A 
ATOM     19  C   UNL     1      10.515  -0.431   3.647  0.00  0.00    +0.020 A 
ATOM     20  C   UNL     1      10.991  -0.830   4.884  0.00  0.00    +0.041 A 
ATOM     21  C   UNL     1      10.782  -2.126   5.320  0.00  0.00    +0.020 A 
ATOM     22  C   UNL     1      10.093  -3.020   4.522  0.00  0.00    +0.007 A 
ATOM     23 CL   UNL     1      11.850   0.296   5.888  0.00  0.00    -0.084 Cl
ENDBRANCH   7  17
BRANCH   1  24
ATOM     24  S   UNL     1       4.257  -1.011   1.666  0.00  0.00    -0.084 S 
BRANCH  24  25
ATOM     25  C   UNL     1       3.711  -0.707  -0.038  0.00  0.00    +0.112 C 
BRANCH  25  29
ATOM     26  C   UNL     1      -0.017   1.378   0.010  0.00  0.00    +0.000 A 
ATOM     27  C   UNL     1       1.171   2.086   0.002  0.00  0.00    +0.000 A 
ATOM     28  C   UNL     1       2.377   1.411  -0.013  0.00  0.00    +0.004 A 
ATOM     29  C   UNL     1       2.396   0.029  -0.020  0.00  0.00    -0.037 A 
ATOM     30  C   UNL     1       1.208  -0.679  -0.012  0.00  0.00    +0.004 A 
ATOM     31  C   UNL     1       0.002  -0.004   0.002  0.00  0.00    +0.000 A 
ENDBRANCH  25  29
ENDBRANCH  24  25
ENDBRANCH   1  24
TORSDOF 4
