REMARK  Name = ZINC25539829
REMARK  16 active torsions:
REMARK  status: ('A' for Active; 'I' for Inactive)
REMARK    1  A    between atoms: C_1  and  C_2
REMARK    2  A    between atoms: C_2  and  C_3
REMARK    3  A    between atoms: C_2  and  N_4
REMARK    4  A    between atoms: N_4  and  C_5
REMARK    5  A    between atoms: N_4  and  C_28
REMARK    6  A    between atoms: C_5  and  C_6
REMARK    7  A    between atoms: C_6  and  N_7
REMARK    8  A    between atoms: N_7  and  C_8
REMARK    9  A    between atoms: C_8  and  C_9
REMARK   10  A    between atoms: C_9  and  C_11
REMARK   11  A    between atoms: C_12  and  N_27
REMARK   12  A    between atoms: N_13  and  C_20
REMARK   13  A    between atoms: N_16  and  C_19
REMARK   14  A    between atoms: C_20  and  C_21
REMARK   15  A    between atoms: C_28  and  C_29
REMARK   16  A    between atoms: C_28  and  C_30
REMARK                            x       y       z     vdW  Elec       q    Type
REMARK                         _______ _______ _______ _____ _____    ______ ____
ROOT
ATOM      1  C   UNL     1       1.636   2.526   1.594  0.00  0.00    +0.121 A 
ATOM      2  C   UNL     1       0.430   1.929   2.002  0.00  0.00    +0.116 A 
ATOM      3  N   UNL     1       0.411   0.588   2.259  0.00  0.00    -0.277 N 
ATOM      4  C   UNL     1       1.516  -0.163   2.129  0.00  0.00    +0.333 A 
ATOM      5  O   UNL     1       1.447  -1.353   2.369  0.00  0.00    -0.246 OA
ATOM      6  N   UNL     1       2.695   0.351   1.742  0.00  0.00    -0.263 N 
ATOM      7  C   UNL     1       2.818   1.665   1.464  0.00  0.00    +0.269 A 
ATOM      8  O   UNL     1       3.888   2.128   1.113  0.00  0.00    -0.267 OA
ATOM      9  C   UNL     1       3.861  -0.527   1.620  0.00  0.00    +0.157 C 
ENDROOT
BRANCH   2  10
ATOM     10  N   UNL     1      -0.700   2.675   2.135  0.00  0.00    -0.344 N 
ATOM     11  H   UNL     1      -1.639   2.198   2.455  0.00  0.00    +0.144 HD
ATOM     12  H   UNL     1      -0.676   3.753   1.921  0.00  0.00    +0.144 HD
ENDBRANCH   2  10
BRANCH   1  13
ATOM     13  C   UNL     1       1.706   3.908   1.316  0.00  0.00    +0.185 C 
ATOM     14  O   UNL     1       0.746   4.620   1.528  0.00  0.00    -0.290 OA
BRANCH  13  15
ATOM     15  C   UNL     1       2.975   4.500   0.757  0.00  0.00    +0.161 C 
BRANCH  15  16
ATOM     16  N   UNL     1       2.794   5.944   0.558  0.00  0.00    -0.311 NA
ATOM     17  H   UNL     1       2.553   6.407   1.526  0.00  0.00    +0.122 HD
BRANCH  16  18
ATOM     18  C   UNL     1       4.013   6.557   0.013  0.00  0.00    +0.063 C 
BRANCH  18  19
ATOM     19  C   UNL     1       3.787   8.057  -0.181  0.00  0.00    -0.063 C 
BRANCH  19  20
ATOM     20  N   UNL     1       5.051   8.697  -0.571  0.00  0.00    +0.384 N 
ATOM     21  H   UNL     1       5.829   8.364   0.131  0.00  0.00    -0.081 HD
BRANCH  20  23
ATOM     22  C   UNL     1       6.285   7.000  -1.835  0.00  0.00    -0.014 C 
ATOM     23  C   UNL     1       5.455   8.283  -1.922  0.00  0.00    -0.074 C 
ATOM     24  C   UNL     1       4.209   8.028  -2.772  0.00  0.00    -0.014 C 
ENDBRANCH  20  23
BRANCH  20  25
ATOM     25  C   UNL     1       4.952  10.159  -0.476  0.00  0.00    -0.074 C 
ATOM     26  C   UNL     1       4.616  10.555   0.963  0.00  0.00    -0.014 C 
ATOM     27  C   UNL     1       6.288  10.788  -0.880  0.00  0.00    -0.014 C 
ENDBRANCH  20  25
ENDBRANCH  19  20
ENDBRANCH  18  19
ENDBRANCH  16  18
ENDBRANCH  15  16
ENDBRANCH  13  15
ENDBRANCH   1  13
BRANCH   3  28
ATOM     28  C   UNL     1      -0.840  -0.043   2.686  0.00  0.00    +0.163 C 
BRANCH  28  29
ATOM     29  C   UNL     1      -1.603  -0.515   1.475  0.00  0.00    -0.028 A 
ATOM     30  C   UNL     1      -2.513   0.325   0.861  0.00  0.00    +0.005 A 
ATOM     31  C   UNL     1      -3.210  -0.105  -0.252  0.00  0.00    +0.000 A 
ATOM     32  C   UNL     1      -3.004  -1.381  -0.745  0.00  0.00    +0.000 A 
ATOM     33  C   UNL     1      -2.098  -2.223  -0.128  0.00  0.00    +0.000 A 
ATOM     34  C   UNL     1      -1.398  -1.790   0.982  0.00  0.00    +0.005 A 
ENDBRANCH  28  29
ENDBRANCH   3  28
TORSDOF 11
