REMARK  Name = ZINC48653986
REMARK  5 active torsions:
REMARK  status: ('A' for Active; 'I' for Inactive)
REMARK    1  A    between atoms: C_1  and  C_2
REMARK    2  A    between atoms: C_3  and  S_9
REMARK    3  A    between atoms: N_5  and  C_7
REMARK    4  A    between atoms: S_9  and  N_12
REMARK    5  A    between atoms: N_12  and  C_13
REMARK                            x       y       z     vdW  Elec       q    Type
REMARK                         _______ _______ _______ _____ _____    ______ ____
ROOT
ATOM      1  S   UNL     1      -0.009  -0.263  -2.808  0.00  0.00    +0.096 S 
ATOM      2  O   UNL     1      -0.548  -1.324  -3.583  0.00  0.00    -0.148 OA
ATOM      3  O   UNL     1      -0.579   1.039  -2.798  0.00  0.00    -0.148 OA
ENDROOT
BRANCH   1   6
ATOM      4  C   UNL     1      -0.018   1.503   0.010  0.00  0.00    +0.069 C 
ATOM      5  C   UNL     1       0.002  -0.004   0.002  0.00  0.00    +0.088 A 
ATOM      6  C   UNL     1       0.008  -0.818  -1.135  0.00  0.00    +0.169 A 
ATOM      7  C   UNL     1       0.028  -2.108  -0.724  0.00  0.00    +0.154 A 
ATOM      8  N   UNL     1       0.035  -2.109   0.626  0.00  0.00    -0.254 N 
ATOM      9  N   UNL     1       0.023  -0.777   1.058  0.00  0.00    -0.173 NA
ATOM     10  C   UNL     1       0.055  -3.294   1.487  0.00  0.00    +0.174 C 
ATOM     11 CL   UNL     1       0.043  -3.509  -1.749  0.00  0.00    -0.060 Cl
ENDBRANCH   1   6
BRANCH   1  12
ATOM     12  N   UNL     1       1.568  -0.085  -3.281  0.00  0.00    -0.096 NA
BRANCH  12  13
ATOM     13  C   UNL     1       1.865   0.349  -4.576  0.00  0.00    +0.093 A 
ATOM     14  C   UNL     1       0.838   0.637  -5.465  0.00  0.00    +0.029 A 
ATOM     15  C   UNL     1       1.134   1.067  -6.744  0.00  0.00    +0.016 A 
ATOM     16  C   UNL     1       2.452   1.209  -7.140  0.00  0.00    +0.015 A 
ATOM     17  C   UNL     1       3.478   0.922  -6.257  0.00  0.00    +0.036 A 
ATOM     18  C   UNL     1       3.188   0.498  -4.974  0.00  0.00    +0.066 A 
ATOM     19 CL   UNL     1       4.475   0.146  -3.864  0.00  0.00    -0.081 Cl
ATOM     20  I   UNL     1       2.896   1.860  -9.082  0.00  0.00    -0.044 I 
ENDBRANCH  12  13
ENDBRANCH   1  12
TORSDOF 3
