REMARK  Name = ZINC02291178
REMARK  6 active torsions:
REMARK  status: ('A' for Active; 'I' for Inactive)
REMARK    1  A    between atoms: C_1  and  C_2
REMARK    2  A    between atoms: C_5  and  N_8
REMARK    3  A    between atoms: C_9  and  N_30
REMARK    4  A    between atoms: C_10  and  C_21
REMARK    5  A    between atoms: N_23  and  C_24
REMARK    6  A    between atoms: C_24  and  C_25
REMARK                            x       y       z     vdW  Elec       q    Type
REMARK                         _______ _______ _______ _____ _____    ______ ____
ROOT
ATOM      1  N   UNL     1       0.907   3.408   0.012  0.00  0.00    -0.280 N 
ATOM      2  C   UNL     1      -0.447   3.567   0.025  0.00  0.00    +0.117 A 
ATOM      3  C   UNL     1      -1.081   2.330   0.031  0.00  0.00    +0.104 A 
ATOM      4  C   UNL     1      -0.016   1.314   0.009  0.00  0.00    +0.123 A 
ATOM      5  C   UNL     1       1.241   2.068   0.001  0.00  0.00    +0.166 A 
ATOM      6  N   UNL     1       2.385   1.418  -0.012  0.00  0.00    -0.225 NA
ATOM      7  C   UNL     1       2.392   0.079  -0.020  0.00  0.00    +0.092 A 
ATOM      8  C   UNL     1       3.611  -0.624  -0.036  0.00  0.00    +0.030 A 
ATOM      9  C   UNL     1       3.608  -1.984  -0.043  0.00  0.00    +0.002 A 
ATOM     10  C   UNL     1       2.412  -2.699  -0.035  0.00  0.00    +0.002 A 
ATOM     11  C   UNL     1       1.213  -2.055  -0.021  0.00  0.00    +0.030 A 
ATOM     12  C   UNL     1       1.175  -0.648  -0.013  0.00  0.00    +0.090 A 
ATOM     13  N   UNL     1       0.002  -0.004   0.002  0.00  0.00    -0.241 NA
ENDROOT
BRANCH   1  18
ATOM     14  C   UNL     1       4.656   7.668   0.001  0.00  0.00    +0.044 C 
ATOM     15  C   UNL     1       3.660   6.537   0.004  0.00  0.00    -0.050 A 
ATOM     16  C   UNL     1       2.814   6.360  -1.076  0.00  0.00    +0.005 A 
ATOM     17  C   UNL     1       1.901   5.324  -1.076  0.00  0.00    +0.026 A 
ATOM     18  C   UNL     1       1.833   4.460   0.009  0.00  0.00    +0.050 A 
ATOM     19  C   UNL     1       2.679   4.644   1.094  0.00  0.00    +0.026 A 
ATOM     20  C   UNL     1       3.594   5.679   1.086  0.00  0.00    +0.005 A 
ENDBRANCH   1  18
BRANCH   3  21
ATOM     21  C   UNL     1      -2.521   2.086   0.051  0.00  0.00    +0.250 C 
ATOM     22  O   UNL     1      -3.106   1.979   1.114  0.00  0.00    -0.270 OA
ATOM     23  N   UNL     1      -3.203   1.980  -1.106  0.00  0.00    -0.304 N 
ATOM     24  H   UNL     1      -2.738   2.065  -1.953  0.00  0.00    +0.149 HD
BRANCH  23  25
ATOM     25  C   UNL     1      -4.648   1.735  -1.086  0.00  0.00    +0.179 C 
BRANCH  25  26
ATOM     26  C   UNL     1      -5.164   1.659  -2.499  0.00  0.00    +0.122 A 
ATOM     27  C   UNL     1      -5.252   0.543  -3.246  0.00  0.00    +0.046 A 
ATOM     28  C   UNL     1      -5.787   0.928  -4.497  0.00  0.00    +0.041 A 
ATOM     29  C   UNL     1      -5.995   2.256  -4.440  0.00  0.00    +0.195 A 
ATOM     30  O   UNL     1      -5.621   2.692  -3.226  0.00  0.00    -0.466 OA
ENDBRANCH  25  26
ENDBRANCH  23  25
ENDBRANCH   3  21
BRANCH   2  31
ATOM     31  N   UNL     1      -1.092   4.777   0.038  0.00  0.00    -0.343 N 
ATOM     32  H   UNL     1      -0.579   5.600   0.037  0.00  0.00    +0.144 HD
ATOM     33  H   UNL     1      -2.061   4.809   0.047  0.00  0.00    +0.144 HD
ENDBRANCH   2  31
TORSDOF 5
