REMARK  Name = ZINC20059209
REMARK  5 active torsions:
REMARK  status: ('A' for Active; 'I' for Inactive)
REMARK    1  A    between atoms: C_1  and  C_2
REMARK    2  A    between atoms: C_9  and  C_11
REMARK    3  A    between atoms: C_12  and  C_30
REMARK    4  A    between atoms: C_16  and  C_18
REMARK    5  A    between atoms: C_26  and  C_29
REMARK                            x       y       z     vdW  Elec       q    Type
REMARK                         _______ _______ _______ _____ _____    ______ ____
ROOT
ATOM      1  C   UNL     1      -2.359   2.360  -3.329  0.00  0.00    +0.044 C 
ATOM      2  C   UNL     1      -1.735   1.175  -3.439  0.00  0.00    +0.014 C 
ATOM      3  N   UNL     1      -0.840   0.772  -2.487  0.00  0.00    -0.321 N 
ATOM      4  C   UNL     1      -0.844   1.338  -1.241  0.00  0.00    +0.016 C 
ATOM      5  C   UNL     1      -1.437   2.533  -1.033  0.00  0.00    +0.024 C 
ATOM      6  C   UNL     1      -2.092   3.276  -2.170  0.00  0.00    +0.097 C 
ATOM      7  C   UNL     1      -1.464   3.117   0.245  0.00  0.00    +0.162 C 
ATOM      8  O   UNL     1      -1.997   4.199   0.396  0.00  0.00    -0.292 OA
ATOM      9  C   UNL     1      -0.845   2.428   1.431  0.00  0.00    +0.083 C 
ATOM     10  C   UNL     1      -0.890   0.913   1.205  0.00  0.00    -0.001 C 
ATOM     11  C   UNL     1      -0.176   0.596  -0.110  0.00  0.00    +0.055 C 
ATOM     12  C   UNL     1      -0.182   0.201   2.360  0.00  0.00    +0.008 C 
ATOM     13  C   UNL     1      -2.023   0.285  -4.620  0.00  0.00    +0.061 C 
ATOM     14  H   UNL     1      -0.107  -0.015  -2.719  0.00  0.00    +0.152 HD
ENDROOT
BRANCH   1  23
ATOM     15  C   UNL     1      -6.596   5.209  -9.200  0.00  0.00    +0.045 C 
ATOM     16  C   UNL     1      -5.563   4.694  -8.231  0.00  0.00    -0.032 A 
ATOM     17  C   UNL     1      -4.222   4.658  -8.589  0.00  0.00    +0.008 A 
ATOM     18  C   UNL     1      -3.307   4.178  -7.670  0.00  0.00    +0.044 A 
ATOM     19  C   UNL     1      -3.758   3.750  -6.426  0.00  0.00    +0.125 A 
ATOM     20  N   UNL     1      -5.046   3.795  -6.124  0.00  0.00    -0.240 NA
ATOM     21  C   UNL     1      -5.941   4.253  -6.979  0.00  0.00    +0.116 A 
ATOM     22  N   UNL     1      -2.847   3.265  -5.490  0.00  0.00    -0.267 N 
ATOM     23  C   UNL     1      -3.287   2.752  -4.324  0.00  0.00    +0.248 C 
ATOM     24  O   UNL     1      -4.481   2.625  -4.127  0.00  0.00    -0.270 OA
ATOM     25  H   UNL     1      -1.768   3.300  -5.704  0.00  0.00    +0.157 HD
ENDBRANCH   1  23
BRANCH   6  26
ATOM     26  C   UNL     1      -1.184   4.391  -2.621  0.00  0.00    +0.002 A 
ATOM     27  C   UNL     1      -1.421   5.725  -2.650  0.00  0.00    +0.012 A 
ATOM     28  C   UNL     1      -0.428   6.573  -3.105  0.00  0.00    +0.008 A 
ATOM     29  C   UNL     1       0.749   6.043  -3.518  0.00  0.00    +0.045 A 
ATOM     30  S   UNL     1       0.479   4.297  -3.262  0.00  0.00    -0.101 S 
ENDBRANCH   6  26
TORSDOF 2
