REMARK  Name = ZINC20672579
REMARK  5 active torsions:
REMARK  status: ('A' for Active; 'I' for Inactive)
REMARK    1  A    between atoms: C_1  and  C_2
REMARK    2  A    between atoms: C_3  and  C_23
REMARK    3  A    between atoms: C_4  and  C_16
REMARK    4  A    between atoms: C_20  and  O_22
REMARK    5  A    between atoms: C_23  and  C_25
REMARK                            x       y       z     vdW  Elec       q    Type
REMARK                         _______ _______ _______ _____ _____    ______ ____
ROOT
ATOM      1  C   UNL     1      -0.018   1.503   0.010  0.00  0.00    +0.061 C 
ATOM      2  C   UNL     1       0.002  -0.004   0.002  0.00  0.00    +0.016 C 
ATOM      3  C   UNL     1      -1.168  -0.669   0.004  0.00  0.00    +0.039 C 
ATOM      4  C   UNL     1      -1.261  -2.171  -0.015  0.00  0.00    +0.156 C 
ATOM      5  N   UNL     1       0.053  -2.747   0.270  0.00  0.00    -0.300 N 
ATOM      6  C   UNL     1       0.394  -4.033   0.579  0.00  0.00    +0.071 A 
ATOM      7  C   UNL     1      -0.350  -5.196   0.733  0.00  0.00    +0.028 A 
ATOM      8  C   UNL     1       0.344  -6.351   1.055  0.00  0.00    +0.002 A 
ATOM      9  C   UNL     1       1.719  -6.359   1.219  0.00  0.00    +0.002 A 
ATOM     10  C   UNL     1       2.482  -5.215   1.071  0.00  0.00    +0.030 A 
ATOM     11  C   UNL     1       1.802  -4.036   0.746  0.00  0.00    +0.091 A 
ATOM     12  N   UNL     1       2.235  -2.777   0.539  0.00  0.00    -0.214 NA
ATOM     13  C   UNL     1       1.216  -2.009   0.262  0.00  0.00    +0.202 A 
ATOM     14  N   UNL     1       1.210  -0.648  -0.013  0.00  0.00    -0.288 N 
ATOM     15  H   UNL     1       2.031  -0.170  -0.205  0.00  0.00    +0.155 HD
ENDROOT
BRANCH   4  16
ATOM     16  C   UNL     1      -1.726  -2.628  -1.373  0.00  0.00    -0.017 A 
ATOM     17  C   UNL     1      -0.976  -2.330  -2.496  0.00  0.00    +0.006 A 
ATOM     18  C   UNL     1      -1.399  -2.748  -3.744  0.00  0.00    +0.004 A 
ATOM     19  C   UNL     1      -2.574  -3.465  -3.872  0.00  0.00    +0.045 A 
ATOM     20  C   UNL     1      -3.328  -3.765  -2.747  0.00  0.00    +0.117 A 
ATOM     21  C   UNL     1      -2.897  -3.349  -1.495  0.00  0.00    +0.051 A 
BRANCH  20  22
ATOM     22  O   UNL     1      -4.483  -4.470  -2.870  0.00  0.00    -0.507 OA
ATOM     23  H   UNL     1      -4.368  -5.428  -2.806  0.00  0.00    +0.292 HD
ENDBRANCH  20  22
ENDBRANCH   4  16
BRANCH   3  24
ATOM     24  C   UNL     1      -2.358   0.073   0.025  0.00  0.00    +0.160 C 
ATOM     25  O   UNL     1      -2.317   1.288   0.041  0.00  0.00    -0.293 OA
ATOM     26  C   UNL     1      -3.689  -0.635   0.028  0.00  0.00    +0.091 C 
ENDBRANCH   3  24
TORSDOF 3
