REMARK  Name = ZINC50038714
REMARK  8 active torsions:
REMARK  status: ('A' for Active; 'I' for Inactive)
REMARK    1  A    between atoms: C_1  and  N_2
REMARK    2  A    between atoms: N_2  and  C_3
REMARK    3  A    between atoms: N_2  and  C_4
REMARK    4  A    between atoms: C_4  and  C_6
REMARK    5  A    between atoms: C_4  and  C_23
REMARK    6  A    between atoms: C_6  and  N_7
REMARK    7  A    between atoms: N_10  and  C_11
REMARK    8  A    between atoms: C_13  and  C_19
REMARK                            x       y       z     vdW  Elec       q    Type
REMARK                         _______ _______ _______ _____ _____    ______ ____
ROOT
ATOM      1  N   UNL     1      -1.882   1.582  -1.061  0.00  0.00    -0.300 N 
ATOM      2  C   UNL     1      -2.382   2.302  -2.084  0.00  0.00    +0.304 C 
ATOM      3  O   UNL     1      -3.175   1.795  -2.854  0.00  0.00    -0.253 OA
ATOM      4  N   UNL     1      -2.004   3.585  -2.254  0.00  0.00    -0.265 N 
ATOM      5  H   UNL     1      -1.249   1.987  -0.446  0.00  0.00    +0.150 HD
ATOM      6  H   UNL     1      -1.318   3.967  -1.685  0.00  0.00    +0.157 HD
ENDROOT
BRANCH   4   7
ATOM      7  C   UNL     1      -2.603   4.365  -3.253  0.00  0.00    +0.100 A 
ATOM      8  C   UNL     1      -3.246   5.529  -2.930  0.00  0.00    +0.042 A 
ATOM      9  C   UNL     1      -3.836   6.291  -3.948  0.00  0.00    +0.073 A 
ATOM     10  C   UNL     1      -3.765   5.874  -5.233  0.00  0.00    +0.098 A 
ATOM     11  N   UNL     1      -3.127   4.718  -5.556  0.00  0.00    -0.327 N 
ATOM     12  H   UNL     1      -3.087   4.435  -6.483  0.00  0.00    +0.168 HD
ATOM     13  C   UNL     1      -2.544   3.963  -4.605  0.00  0.00    +0.270 A 
ATOM     14  O   UNL     1      -1.970   2.931  -4.911  0.00  0.00    -0.266 OA
BRANCH   9  15
ATOM     15  C   UNL     1      -4.549   7.575  -3.611  0.00  0.00    +0.419 C 
ATOM     16  F   UNL     1      -5.050   8.152  -4.783  0.00  0.00    -0.166 F 
ATOM     17  F   UNL     1      -5.606   7.306  -2.735  0.00  0.00    -0.166 F 
ATOM     18  F   UNL     1      -3.652   8.460  -3.002  0.00  0.00    -0.166 F 
ENDBRANCH   9  15
ENDBRANCH   4   7
BRANCH   1  19
ATOM     19  C   UNL     1      -2.292   0.188  -0.876  0.00  0.00    +0.095 C 
BRANCH  19  20
ATOM     20  C   UNL     1      -1.493  -0.431   0.272  0.00  0.00    -0.020 C 
BRANCH  20  21
ATOM     21  C   UNL     1      -1.806   0.298   1.553  0.00  0.00    -0.052 A 
ATOM     22  C   UNL     1      -0.945   1.264   2.039  0.00  0.00    +0.009 A 
ATOM     23  C   UNL     1      -1.256   1.901   3.194  0.00  0.00    +0.045 A 
ATOM     24  S   UNL     1      -2.808   1.136   3.632  0.00  0.00    -0.105 S 
ATOM     25  C   UNL     1      -2.940   0.022   2.243  0.00  0.00    +0.047 A 
ENDBRANCH  20  21
BRANCH  20  27
ATOM     26  C   UNL     1      -1.471  -2.576  -0.801  0.00  0.00    -0.096 C 
ATOM     27  N   UNL     1      -1.857  -1.847   0.414  0.00  0.00    +0.382 N 
ATOM     28  C   UNL     1      -1.156  -2.420   1.572  0.00  0.00    -0.096 C 
ATOM     29  H   UNL     1      -2.853  -1.927   0.551  0.00  0.00    -0.082 HD
ENDBRANCH  20  27
ENDBRANCH  19  20
ENDBRANCH   1  19
TORSDOF 6
