REMARK  Name = ZINC13327319
REMARK  7 active torsions:
REMARK  status: ('A' for Active; 'I' for Inactive)
REMARK    1  A    between atoms: C_1  and  C_2
REMARK    2  A    between atoms: C_2  and  C_3
REMARK    3  A    between atoms: C_3  and  C_4
REMARK    4  A    between atoms: C_11  and  N_16
REMARK    5  A    between atoms: C_12  and  C_13
REMARK    6  A    between atoms: C_17  and  C_19
REMARK    7  A    between atoms: C_21  and  C_24
REMARK                            x       y       z     vdW  Elec       q    Type
REMARK                         _______ _______ _______ _____ _____    ______ ____
ROOT
ATOM      1  C   UNL     1       2.210  10.260   0.414  0.00  0.00    -0.006 C 
ATOM      2  C   UNL     1       0.920  10.280  -0.411  0.00  0.00    +0.008 C 
ATOM      3  C   UNL     1      -0.009   9.155   0.048  0.00  0.00    +0.037 C 
ATOM      4  C   UNL     1       0.766   7.843   0.035  0.00  0.00    -0.023 A 
ATOM      5  C   UNL     1       2.117   7.833   0.023  0.00  0.00    -0.004 A 
ATOM      6  S   UNL     1       2.557   6.118   0.016  0.00  0.00    -0.077 S 
ATOM      7  C   UNL     1       0.970   5.422   0.020  0.00  0.00    +0.085 A 
ATOM      8  C   UNL     1       0.138   6.533   0.034  0.00  0.00    +0.068 A 
ATOM      9  C   UNL     1       3.029   9.021   0.021  0.00  0.00    +0.046 C 
ENDROOT
BRANCH   8  10
ATOM     10  C   UNL     1      -1.321   6.389   0.046  0.00  0.00    +0.244 C 
ATOM     11  O   UNL     1      -1.917   6.325   1.105  0.00  0.00    -0.270 OA
ATOM     12  N   UNL     1      -2.002   6.330  -1.115  0.00  0.00    -0.325 N 
ATOM     13  H   UNL     1      -1.527   6.381  -1.960  0.00  0.00    +0.145 HD
ATOM     14  H   UNL     1      -2.967   6.234  -1.107  0.00  0.00    +0.145 HD
ENDBRANCH   8  10
BRANCH   7  15
ATOM     15  N   UNL     1       0.618   4.082   0.017  0.00  0.00    -0.274 N 
ATOM     16  C   UNL     1       1.575   3.134   0.003  0.00  0.00    +0.270 C 
ATOM     17  O   UNL     1       2.748   3.454  -0.007  0.00  0.00    -0.268 OA
ATOM     18  H   UNL     1      -0.318   3.827   0.025  0.00  0.00    +0.156 HD
BRANCH  16  19
ATOM     19  C   UNL     1       1.198   1.700  -0.000  0.00  0.00    +0.168 A 
ATOM     20  C   UNL     1       2.081   0.584  -0.015  0.00  0.00    +0.080 A 
ATOM     21  C   UNL     1       1.253  -0.486  -0.013  0.00  0.00    +0.135 A 
ATOM     22  O   UNL     1       0.002  -0.004   0.002  0.00  0.00    -0.359 OA
ATOM     23  N   UNL     1      -0.014   1.205   0.009  0.00  0.00    -0.073 NA
ATOM     24  C   UNL     1       1.657  -1.938  -0.024  0.00  0.00    +0.089 C 
ENDBRANCH  16  19
ENDBRANCH   7  15
BRANCH   1  25
ATOM     25  C   UNL     1       3.023  11.524   0.126  0.00  0.00    +0.003 C 
BRANCH  25  27
ATOM     26  C   UNL     1       5.060  12.826   0.754  0.00  0.00    +0.004 C 
ATOM     27  C   UNL     1       4.248  11.562   1.042  0.00  0.00    -0.003 C 
ENDBRANCH  25  27
ENDBRANCH   1  25
TORSDOF 5
