REMARK  Name = ZINC09691112
REMARK  4 active torsions:
REMARK  status: ('A' for Active; 'I' for Inactive)
REMARK    1  A    between atoms: C_1  and  C_2
REMARK    2  A    between atoms: C_10  and  C_11
REMARK    3  A    between atoms: C_11  and  C_13
REMARK    4  A    between atoms: C_13  and  N_14
REMARK                            x       y       z     vdW  Elec       q    Type
REMARK                         _______ _______ _______ _____ _____    ______ ____
ROOT
ATOM      1  N   UNL     1       5.494   0.124  -1.256  0.00  0.00    -0.216 N 
ATOM      2  C   UNL     1       4.348  -0.566  -1.429  0.00  0.00    +0.251 C 
ATOM      3  O   UNL     1       3.905  -1.003  -2.470  0.00  0.00    -0.272 OA
ATOM      4  C   UNL     1       3.731  -0.679  -0.053  0.00  0.00    +0.138 C 
ATOM      5  C   UNL     1       3.614  -2.143   0.354  0.00  0.00    +0.040 C 
ATOM      6  C   UNL     1       2.490  -2.786  -0.467  0.00  0.00    +0.008 C 
ATOM      7  C   UNL     1       1.157  -2.199  -0.006  0.00  0.00    +0.035 C 
ATOM      8  C   UNL     1       1.207  -0.693  -0.013  0.00  0.00    -0.042 A 
ATOM      9  C   UNL     1       2.394   0.007  -0.026  0.00  0.00    -0.012 A 
ATOM     10  C   UNL     1       2.373   1.395  -0.016  0.00  0.00    +0.006 A 
ATOM     11  C   UNL     1       1.174   2.078   0.002  0.00  0.00    +0.000 A 
ATOM     12  C   UNL     1      -0.017   1.376   0.010  0.00  0.00    +0.000 A 
ATOM     13  C   UNL     1       0.002  -0.004   0.002  0.00  0.00    +0.004 A 
ATOM     14  N   UNL     1       4.682   0.022   0.820  0.00  0.00    -0.281 N 
ATOM     15  C   UNL     1       5.679   0.456   0.028  0.00  0.00    +0.310 C 
ATOM     16  O   UNL     1       6.641   1.081   0.432  0.00  0.00    -0.252 OA
ATOM     17  H   UNL     1       4.606   0.147   1.779  0.00  0.00    +0.152 HD
ENDROOT
BRANCH   1  18
ATOM     18  C   UNL     1       6.421   0.466  -2.337  0.00  0.00    +0.198 C 
BRANCH  18  19
ATOM     19  C   UNL     1       6.038   1.801  -2.923  0.00  0.00    +0.188 C 
ATOM     20  O   UNL     1       5.085   2.408  -2.480  0.00  0.00    -0.290 OA
BRANCH  19  30
ATOM     21  C   UNL     1       5.471   4.441  -4.252  0.00  0.00    +0.045 C 
ATOM     22  C   UNL     1       6.605   3.530  -4.646  0.00  0.00    -0.025 A 
ATOM     23  C   UNL     1       7.472   3.897  -5.689  0.00  0.00    -0.007 A 
ATOM     24  C   UNL     1       7.442   5.073  -6.484  0.00  0.00    +0.009 A 
ATOM     25  C   UNL     1       8.362   5.275  -7.461  0.00  0.00    +0.001 A 
ATOM     26  C   UNL     1       9.364   4.347  -7.722  0.00  0.00    +0.001 A 
ATOM     27  C   UNL     1       9.431   3.190  -6.973  0.00  0.00    +0.015 A 
ATOM     28  C   UNL     1       8.503   2.970  -5.977  0.00  0.00    +0.020 A 
ATOM     29  S   UNL     1       8.227   1.666  -4.805  0.00  0.00    -0.085 S 
ATOM     30  C   UNL     1       6.793   2.349  -3.991  0.00  0.00    +0.060 A 
ENDBRANCH  19  30
ENDBRANCH  18  19
ENDBRANCH   1  18
TORSDOF 3
