REMARK  Name = ZINC01057511
REMARK  4 active torsions:
REMARK  status: ('A' for Active; 'I' for Inactive)
REMARK    1  A    between atoms: C_3  and  C_6
REMARK    2  A    between atoms: N_8  and  C_9
REMARK    3  A    between atoms: C_10  and  C_19
REMARK    4  A    between atoms: N_21  and  C_22
REMARK                            x       y       z     vdW  Elec       q    Type
REMARK                         _______ _______ _______ _____ _____    ______ ____
ROOT
ATOM      1  C   UNL     1       4.359  -1.700   1.455  0.00  0.00    +0.085 A 
ATOM      2  C   UNL     1       3.005  -1.644   1.748  0.00  0.00    +0.069 A 
ATOM      3  C   UNL     1       2.193  -0.680   1.017  0.00  0.00    -0.023 A 
ATOM      4  C   UNL     1       2.867   0.062   0.113  0.00  0.00    -0.004 A 
ATOM      5  S   UNL     1       4.546  -0.492   0.229  0.00  0.00    -0.077 S 
ATOM      6  C   UNL     1       2.317   1.110  -0.803  0.00  0.00    +0.043 C 
ATOM      7  C   UNL     1       1.442   2.079   0.004  0.00  0.00    +0.005 C 
ATOM      8  C   UNL     1       0.013   1.545   0.012  0.00  0.00    +0.001 C 
ATOM      9  C   UNL     1       0.022   0.018   0.002  0.00  0.00    +0.005 C 
ATOM     10  C   UNL     1       0.698  -0.519   1.259  0.00  0.00    +0.037 C 
ENDROOT
BRANCH   1  13
ATOM     11  C   UNL     1       6.606  -2.431   1.595  0.00  0.00    +0.284 C 
ATOM     12  O   UNL     1       6.911  -1.628   0.733  0.00  0.00    -0.266 OA
ATOM     13  N   UNL     1       5.327  -2.521   2.010  0.00  0.00    -0.273 N 
ATOM     14  H   UNL     1       5.084  -3.161   2.697  0.00  0.00    +0.156 HD
BRANCH  11  17
ATOM     15  C   UNL     1       9.561  -4.292   2.658  0.00  0.00    +0.042 A 
ATOM     16  C   UNL     1       8.956  -3.312   1.855  0.00  0.00    +0.054 A 
ATOM     17  C   UNL     1       7.630  -3.300   2.182  0.00  0.00    +0.189 A 
ATOM     18  O   UNL     1       7.429  -4.224   3.144  0.00  0.00    -0.458 OA
ATOM     19  C   UNL     1       8.590  -4.828   3.431  0.00  0.00    +0.196 A 
ENDBRANCH  11  17
ENDBRANCH   1  13
BRANCH   2  20
ATOM     20  C   UNL     1       2.410  -2.526   2.756  0.00  0.00    +0.251 C 
ATOM     21  O   UNL     1       1.973  -3.614   2.432  0.00  0.00    -0.270 OA
ATOM     22  N   UNL     1       2.348  -2.131   4.043  0.00  0.00    -0.281 N 
ATOM     23  H   UNL     1       2.755  -1.293   4.314  0.00  0.00    +0.155 HD
BRANCH  22  24
ATOM     24  C   UNL     1       1.694  -2.928   4.989  0.00  0.00    +0.034 A 
ATOM     25  C   UNL     1       0.994  -2.338   6.033  0.00  0.00    +0.025 A 
ATOM     26  C   UNL     1       0.345  -3.128   6.962  0.00  0.00    +0.022 A 
ATOM     27  C   UNL     1       0.403  -4.506   6.860  0.00  0.00    +0.041 A 
ATOM     28  C   UNL     1       1.105  -5.098   5.824  0.00  0.00    +0.022 A 
ATOM     29  C   UNL     1       1.750  -4.312   4.889  0.00  0.00    +0.025 A 
ATOM     30 CL   UNL     1      -0.408  -5.496   8.033  0.00  0.00    -0.084 Cl
ENDBRANCH  22  24
ENDBRANCH   2  20
TORSDOF 4
