REMARK  Name = ZINC16072377
REMARK  6 active torsions:
REMARK  status: ('A' for Active; 'I' for Inactive)
REMARK    1  A    between atoms: C_1  and  C_2
REMARK    2  A    between atoms: C_2  and  C_4
REMARK    3  A    between atoms: C_2  and  O_18
REMARK    4  A    between atoms: N_6  and  N_7
REMARK    5  A    between atoms: C_8  and  C_10
REMARK    6  A    between atoms: O_18  and  C_19
REMARK                            x       y       z     vdW  Elec       q    Type
REMARK                         _______ _______ _______ _____ _____    ______ ____
ROOT
ATOM      1  C   UNL     1       3.546   1.917  -0.265  0.00  0.00    +0.270 C 
ATOM      2  O   UNL     1       3.559   3.119  -0.427  0.00  0.00    -0.270 OA
ATOM      3  N   UNL     1       2.377   1.246  -0.296  0.00  0.00    -0.231 N 
ATOM      4  H   UNL     1       2.367   0.285  -0.167  0.00  0.00    +0.173 HD
ENDROOT
BRANCH   3   5
ATOM      5  N   UNL     1       1.178   1.937  -0.515  0.00  0.00    -0.230 N 
ATOM      6  C   UNL     1       0.010   1.266  -0.545  0.00  0.00    +0.260 C 
ATOM      7  O   UNL     1      -0.004   0.061  -0.383  0.00  0.00    -0.269 OA
ATOM      8  H   UNL     1       1.189   2.898  -0.644  0.00  0.00    +0.173 HD
BRANCH   6   9
ATOM      9  C   UNL     1      -1.255   1.994  -0.782  0.00  0.00    +0.041 A 
ATOM     10  C   UNL     1      -1.244   3.377  -0.963  0.00  0.00    +0.033 A 
ATOM     11  C   UNL     1      -2.428   4.051  -1.189  0.00  0.00    +0.043 A 
ATOM     12  C   UNL     1      -3.626   3.358  -1.226  0.00  0.00    +0.040 A 
ATOM     13  C   UNL     1      -3.644   1.986  -1.042  0.00  0.00    +0.043 A 
ATOM     14  C   UNL     1      -2.466   1.300  -0.820  0.00  0.00    +0.033 A 
ATOM     15 CL   UNL     1      -5.151   1.125  -1.089  0.00  0.00    -0.083 Cl
ATOM     16 CL   UNL     1      -2.415   5.771  -1.421  0.00  0.00    -0.083 Cl
ENDBRANCH   6   9
ENDBRANCH   3   5
BRANCH   1  18
ATOM     17  C   UNL     1       5.097   0.224  -1.200  0.00  0.00    +0.062 C 
ATOM     18  C   UNL     1       4.835   1.175  -0.030  0.00  0.00    +0.257 C 
BRANCH  18  19
ATOM     19  O   UNL     1       5.911   2.109   0.074  0.00  0.00    -0.477 OA
BRANCH  19  20
ATOM     20  C   UNL     1       7.007   1.714   0.776  0.00  0.00    +0.157 A 
ATOM     21  C   UNL     1       7.093   0.416   1.256  0.00  0.00    +0.048 A 
ATOM     22  C   UNL     1       8.207   0.016   1.968  0.00  0.00    +0.004 A 
ATOM     23  C   UNL     1       9.237   0.908   2.203  0.00  0.00    +0.003 A 
ATOM     24  C   UNL     1       9.155   2.203   1.726  0.00  0.00    +0.042 A 
ATOM     25  C   UNL     1       8.044   2.608   1.009  0.00  0.00    +0.165 A 
ATOM     26  F   UNL     1       7.966   3.872   0.538  0.00  0.00    -0.202 F 
ENDBRANCH  19  20
ENDBRANCH  18  19
ENDBRANCH   1  18
TORSDOF 5
