REMARK  Name = ZINC44801821
REMARK  14 active torsions:
REMARK  status: ('A' for Active; 'I' for Inactive)
REMARK    1  A    between atoms: C_1  and  C_2
REMARK    2  A    between atoms: C_2  and  C_3
REMARK    3  A    between atoms: C_3  and  C_4
REMARK    4  A    between atoms: C_4  and  C_6
REMARK    5  A    between atoms: C_4  and  N_7
REMARK    6  A    between atoms: C_8  and  C_10
REMARK    7  A    between atoms: C_10  and  C_12
REMARK    8  A    between atoms: C_10  and  N_13
REMARK    9  A    between atoms: N_13  and  C_14
REMARK   10  A    between atoms: C_17  and  O_25
REMARK   11  A    between atoms: C_18  and  N_20
REMARK   12  A    between atoms: N_20  and  S_21
REMARK   13  A    between atoms: S_21  and  C_24
REMARK   14  A    between atoms: O_25  and  C_26
REMARK                            x       y       z     vdW  Elec       q    Type
REMARK                         _______ _______ _______ _____ _____    ______ ____
ROOT
ATOM      1  C   UNL     1       0.592  -6.600  -3.708  0.00  0.00    +0.030 A 
ATOM      2  C   UNL     1       0.139  -6.332  -4.993  0.00  0.00    +0.026 A 
ATOM      3  C   UNL     1       0.382  -7.231  -6.016  0.00  0.00    +0.049 A 
ATOM      4  C   UNL     1       1.079  -8.400  -5.761  0.00  0.00    +0.142 A 
ATOM      5  C   UNL     1       1.535  -8.672  -4.473  0.00  0.00    +0.091 A 
ATOM      6  C   UNL     1       1.295  -7.768  -3.449  0.00  0.00    +0.051 A 
ENDROOT
BRANCH   1   7
ATOM      7  N   UNL     1       0.344  -5.689  -2.675  0.00  0.00    -0.333 N 
ATOM      8  H   UNL     1       0.663  -5.874  -1.778  0.00  0.00    +0.147 HD
BRANCH   7   9
ATOM      9  C   UNL     1      -0.399  -4.456  -2.949  0.00  0.00    +0.154 C 
ATOM     10  C   UNL     1       0.564  -3.385  -3.465  0.00  0.00    +0.038 C 
BRANCH   9  12
ATOM     11  N   UNL     1      -1.796  -2.848  -1.692  0.00  0.00    -0.311 N 
ATOM     12  C   UNL     1      -1.055  -3.973  -1.681  0.00  0.00    +0.233 C 
ATOM     13  O   UNL     1      -0.916  -4.598  -0.650  0.00  0.00    -0.274 OA
ATOM     14  H   UNL     1      -1.907  -2.348  -2.516  0.00  0.00    +0.149 HD
BRANCH  11  15
ATOM     15  C   UNL     1      -2.434  -2.378  -0.459  0.00  0.00    +0.070 C 
ATOM     16  C   UNL     1      -3.778  -3.087  -0.279  0.00  0.00    +0.028 C 
BRANCH  15  17
ATOM     17  C   UNL     1      -2.661  -0.868  -0.546  0.00  0.00    +0.022 C 
BRANCH  17  19
ATOM     18  C   UNL     1      -1.538   1.359  -0.687  0.00  0.00    +0.004 C 
ATOM     19  C   UNL     1      -1.311  -0.151  -0.601  0.00  0.00    -0.002 C 
ENDBRANCH  17  19
ENDBRANCH  15  17
ENDBRANCH  11  15
ENDBRANCH   9  12
ENDBRANCH   7   9
ENDBRANCH   1   7
BRANCH   5  20
ATOM     20  N   UNL     1       2.239  -9.853  -4.214  0.00  0.00    -0.217 N 
ATOM     21  H   UNL     1       2.840 -10.217  -4.883  0.00  0.00    +0.173 HD
BRANCH  20  22
ATOM     22  S   UNL     1       2.047 -10.631  -2.765  0.00  0.00    +0.040 S 
ATOM     23  O   UNL     1       2.824 -11.815  -2.882  0.00  0.00    -0.155 OA
ATOM     24  O   UNL     1       2.361  -9.653  -1.783  0.00  0.00    -0.155 OA
ATOM     25  C   UNL     1       0.283 -11.047  -2.689  0.00  0.00    +0.218 C 
ENDBRANCH  20  22
ENDBRANCH   5  20
BRANCH   4  26
ATOM     26  O   UNL     1       1.317  -9.284  -6.768  0.00  0.00    -0.493 OA
ATOM     27  C   UNL     1       0.819  -8.941  -8.063  0.00  0.00    +0.277 C 
ENDBRANCH   4  26
TORSDOF 9
