REMARK  Name = ZINC24985565
REMARK  13 active torsions:
REMARK  status: ('A' for Active; 'I' for Inactive)
REMARK    1  A    between atoms: C_1  and  C_2
REMARK    2  A    between atoms: C_2  and  O_3
REMARK    3  A    between atoms: O_3  and  C_4
REMARK    4  A    between atoms: C_6  and  C_16
REMARK    5  A    between atoms: C_8  and  O_13
REMARK    6  A    between atoms: C_9  and  O_10
REMARK    7  A    between atoms: O_10  and  C_11
REMARK    8  A    between atoms: C_11  and  C_12
REMARK    9  A    between atoms: O_13  and  C_14
REMARK   10  A    between atoms: C_14  and  C_15
REMARK   11  A    between atoms: N_18  and  C_19
REMARK   12  A    between atoms: C_19  and  C_21
REMARK   13  A    between atoms: C_19  and  C_22
REMARK                            x       y       z     vdW  Elec       q    Type
REMARK                         _______ _______ _______ _____ _____    ______ ____
ROOT
ATOM      1  C   UNL     1       1.638  -7.165  -0.035  0.00  0.00    +0.156 C 
ATOM      2  C   UNL     1       2.274  -7.369  -1.411  0.00  0.00    +0.038 C 
ENDROOT
BRANCH   1   3
ATOM      3  C   UNL     1       1.368  -8.506   0.597  0.00  0.00    +0.236 C 
ATOM      4  O   UNL     1       0.244  -8.962   0.597  0.00  0.00    -0.274 OA
ATOM      5  N   UNL     1       2.376  -9.200   1.162  0.00  0.00    -0.300 N 
ATOM      6  C   UNL     1       3.719  -8.612   1.274  0.00  0.00    +0.110 C 
ATOM      7  C   UNL     1       4.169  -8.688   2.737  0.00  0.00    +0.047 C 
ATOM      8  C   UNL     1       4.071 -10.134   3.224  0.00  0.00    +0.064 C 
ATOM      9  C   UNL     1       2.621 -10.612   3.137  0.00  0.00    +0.047 C 
ATOM     10  C   UNL     1       2.153 -10.555   1.684  0.00  0.00    +0.110 C 
ATOM     11  C   UNL     1       4.552 -10.224   4.647  0.00  0.00    +0.057 A 
ATOM     12  C   UNL     1       5.375 -11.197   5.101  0.00  0.00    +0.039 A 
ATOM     13  N   UNL     1       5.602 -10.976   6.396  0.00  0.00    -0.349 N 
ATOM     14  C   UNL     1       4.950  -9.905   6.768  0.00  0.00    +0.171 A 
ATOM     15  N   UNL     1       4.281  -9.408   5.700  0.00  0.00    -0.348 N 
ATOM     16  H   UNL     1       3.717  -8.620   5.689  0.00  0.00    +0.166 HD
ATOM     17  C   UNL     1       5.898 -12.307   4.222  0.00  0.00    +0.070 C 
ATOM     18  C   UNL     1       5.038 -12.347   2.951  0.00  0.00    +0.088 C 
ATOM     19  N   UNL     1       4.924 -10.994   2.388  0.00  0.00    -0.305 NA
ATOM     20  H   UNL     1       4.585 -11.025   1.438  0.00  0.00    +0.123 HD
ATOM     21  H   UNL     1       6.160 -11.523   6.970  0.00  0.00    +0.166 HD
ENDBRANCH   1   3
BRANCH   1  24
ATOM     22  C   UNL     1       0.383  -5.086  -0.237  0.00  0.00    +0.245 C 
ATOM     23  O   UNL     1       1.433  -4.479  -0.162  0.00  0.00    -0.270 OA
ATOM     24  N   UNL     1       0.378  -6.433  -0.183  0.00  0.00    -0.300 N 
ATOM     25  H   UNL     1      -0.461  -6.918  -0.243  0.00  0.00    +0.150 HD
BRANCH  22  28
ATOM     26  C   UNL     1      -2.073  -2.264  -0.583  0.00  0.00    +0.166 A 
ATOM     27  C   UNL     1      -0.883  -2.953  -0.442  0.00  0.00    +0.062 A 
ATOM     28  C   UNL     1      -0.887  -4.349  -0.386  0.00  0.00    +0.044 A 
ATOM     29  C   UNL     1      -2.095  -5.045  -0.473  0.00  0.00    +0.062 A 
ATOM     30  C   UNL     1      -3.283  -4.352  -0.613  0.00  0.00    +0.166 A 
ATOM     31  C   UNL     1      -3.276  -2.961  -0.663  0.00  0.00    +0.204 A 
BRANCH  26  32
ATOM     32  O   UNL     1      -2.070  -0.905  -0.636  0.00  0.00    -0.488 OA
BRANCH  32  34
ATOM     33  C   UNL     1      -0.997   1.260  -0.626  0.00  0.00    +0.048 C 
ATOM     34  C   UNL     1      -0.800  -0.256  -0.548  0.00  0.00    +0.226 C 
ENDBRANCH  32  34
ENDBRANCH  26  32
BRANCH  31  35
ATOM     35  O   UNL     1      -4.446  -2.281  -0.796  0.00  0.00    -0.485 OA
BRANCH  35  36
ATOM     36  C   UNL     1      -4.890  -2.008  -2.127  0.00  0.00    +0.226 C 
ATOM     37  C   UNL     1      -6.213  -1.242  -2.075  0.00  0.00    +0.048 C 
ENDBRANCH  35  36
ENDBRANCH  31  35
BRANCH  30  38
ATOM     38  O   UNL     1      -4.459  -5.030  -0.698  0.00  0.00    -0.488 OA
BRANCH  38  39
ATOM     39  C   UNL     1      -4.392  -6.456  -0.635  0.00  0.00    +0.226 C 
ATOM     40  C   UNL     1      -5.803  -7.038  -0.745  0.00  0.00    +0.048 C 
ENDBRANCH  38  39
ENDBRANCH  30  38
ENDBRANCH  22  28
ENDBRANCH   1  24
TORSDOF 9
