REMARK  Name = ZINC39685460
REMARK  8 active torsions:
REMARK  status: ('A' for Active; 'I' for Inactive)
REMARK    1  A    between atoms: C_1  and  C_2
REMARK    2  A    between atoms: C_5  and  C_9
REMARK    3  A    between atoms: C_6  and  C_8
REMARK    4  A    between atoms: C_13  and  C_22
REMARK    5  A    between atoms: N_24  and  C_25
REMARK    6  A    between atoms: C_25  and  C_26
REMARK    7  A    between atoms: C_26  and  O_27
REMARK    8  A    between atoms: O_27  and  C_28
REMARK                            x       y       z     vdW  Elec       q    Type
REMARK                         _______ _______ _______ _____ _____    ______ ____
ROOT
ATOM      1  C   UNL     1       0.150  -4.150  -0.010  0.00  0.00    +0.247 C 
ATOM      2  O   UNL     1       0.263  -4.736   1.049  0.00  0.00    -0.270 OA
ATOM      3  N   UNL     1       0.096  -4.846  -1.163  0.00  0.00    -0.296 N 
ATOM      4  C   UNL     1       0.068  -4.313  -2.546  0.00  0.00    +0.121 C 
ATOM      5  C   UNL     1       0.965  -5.277  -3.354  0.00  0.00    +0.100 C 
ATOM      6  C   UNL     1       0.947  -6.592  -2.555  0.00  0.00    -0.004 C 
ATOM      7  C   UNL     1       0.055  -6.318  -1.335  0.00  0.00    +0.115 C 
ATOM      8  C   UNL     1       0.355  -7.715  -3.401  0.00  0.00    -0.010 C 
ATOM      9  C   UNL     1       0.402  -9.024  -2.607  0.00  0.00    -0.082 C 
ATOM     10  N   UNL     1       1.791  -9.333  -2.249  0.00  0.00    +0.379 N 
ATOM     11  C   UNL     1       2.322  -8.293  -1.360  0.00  0.00    -0.082 C 
ATOM     12  C   UNL     1       2.357  -6.953  -2.101  0.00  0.00    -0.010 C 
ATOM     13  H   UNL     1       1.826 -10.225  -1.779  0.00  0.00    -0.086 HD
ATOM     14  H   UNL     1       2.352  -9.375  -3.087  0.00  0.00    -0.086 HD
ENDROOT
BRANCH   1  19
ATOM     15  C   UNL     1      -0.148   1.596  -0.101  0.00  0.00    +0.044 C 
ATOM     16  C   UNL     1      -0.070   0.092  -0.077  0.00  0.00    -0.050 A 
ATOM     17  C   UNL     1      -0.973  -0.657  -0.811  0.00  0.00    +0.004 A 
ATOM     18  C   UNL     1      -0.907  -2.034  -0.794  0.00  0.00    +0.013 A 
ATOM     19  C   UNL     1       0.074  -2.674  -0.034  0.00  0.00    +0.040 A 
ATOM     20  C   UNL     1       0.982  -1.913   0.705  0.00  0.00    -0.038 A 
ATOM     21  C   UNL     1       0.908  -0.535   0.675  0.00  0.00    +0.007 A 
ATOM     22  C   UNL     1       2.044  -2.595   1.528  0.00  0.00    +0.044 C 
ENDBRANCH   1  19
BRANCH   5  23
ATOM     23  C   UNL     1       2.368  -4.736  -3.446  0.00  0.00    +0.218 C 
ATOM     24  O   UNL     1       2.787  -3.987  -2.589  0.00  0.00    -0.275 OA
ATOM     25  N   UNL     1       3.158  -5.084  -4.482  0.00  0.00    -0.312 N 
ATOM     26  H   UNL     1       2.823  -5.683  -5.167  0.00  0.00    +0.149 HD
BRANCH  25  27
ATOM     27  C   UNL     1       4.522  -4.558  -4.572  0.00  0.00    +0.145 C 
BRANCH  27  28
ATOM     28  C   UNL     1       5.197  -5.104  -5.831  0.00  0.00    +0.247 C 
BRANCH  28  29
ATOM     29  O   UNL     1       4.523  -4.605  -6.988  0.00  0.00    -0.490 OA
BRANCH  29  30
ATOM     30  C   UNL     1       5.000  -4.998  -8.198  0.00  0.00    +0.123 A 
ATOM     31  C   UNL     1       6.093  -5.851  -8.271  0.00  0.00    +0.046 A 
ATOM     32  C   UNL     1       6.577  -6.249  -9.501  0.00  0.00    +0.006 A 
ATOM     33  C   UNL     1       5.976  -5.799 -10.662  0.00  0.00    +0.038 A 
ATOM     34  C   UNL     1       4.885  -4.948 -10.593  0.00  0.00    +0.127 A 
ATOM     35  C   UNL     1       4.393  -4.551  -9.362  0.00  0.00    +0.084 A 
ATOM     36  F   UNL     1       4.299  -4.509 -11.728  0.00  0.00    -0.205 F 
ENDBRANCH  29  30
ENDBRANCH  28  29
ENDBRANCH  27  28
ENDBRANCH  25  27
ENDBRANCH   5  23
TORSDOF 6
