REMARK  Name = ZINC39552497
REMARK  5 active torsions:
REMARK  status: ('A' for Active; 'I' for Inactive)
REMARK    1  A    between atoms: C_1  and  O_2
REMARK    2  A    between atoms: O_2  and  C_3
REMARK    3  A    between atoms: C_3  and  C_4
REMARK    4  A    between atoms: C_7  and  C_10
REMARK    5  A    between atoms: C_13  and  C_16
REMARK                            x       y       z     vdW  Elec       q    Type
REMARK                         _______ _______ _______ _____ _____    ______ ____
ROOT
ATOM      1  C   UNL     1      -2.070  -5.105   1.246  0.00  0.00    +0.215 C 
ATOM      2  C   UNL     1      -1.460  -6.495   1.253  0.00  0.00    +0.037 C 
ATOM      3  C   UNL     1      -2.527  -7.317   1.240  0.00  0.00    +0.094 C 
ATOM      4  N   UNL     1      -3.680  -6.597   1.226  0.00  0.00    -0.153 NA
ATOM      5  N   UNL     1      -3.518  -5.371   1.230  0.00  0.00    -0.174 NA
ENDROOT
BRANCH   3   6
ATOM      6  C   UNL     1      -2.455  -8.799   1.240  0.00  0.00    +0.037 A 
ATOM      7  C   UNL     1      -3.625  -9.556   1.220  0.00  0.00    +0.013 A 
ATOM      8  C   UNL     1      -3.552 -10.934   1.219  0.00  0.00    +0.001 A 
ATOM      9  C   UNL     1      -2.321 -11.566   1.239  0.00  0.00    +0.003 A 
ATOM     10  C   UNL     1      -1.156 -10.821   1.260  0.00  0.00    +0.039 A 
ATOM     11  C   UNL     1      -1.216  -9.440   1.255  0.00  0.00    +0.133 A 
ATOM     12  F   UNL     1      -0.077  -8.713   1.269  0.00  0.00    -0.205 F 
ENDBRANCH   3   6
BRANCH   1  16
ATOM     13  C   UNL     1      -1.156  -2.103   0.002  0.00  0.00    +0.163 C 
ATOM     14  N   UNL     1      -0.033  -2.724  -0.007  0.00  0.00    -0.070 NA
ATOM     15  O   UNL     1      -0.227  -4.126  -0.013  0.00  0.00    -0.367 OA
ATOM     16  C   UNL     1      -1.648  -4.337  -0.008  0.00  0.00    +0.322 C 
ATOM     17  N   UNL     1      -2.216  -2.979   0.007  0.00  0.00    -0.290 N 
ATOM     18  H   UNL     1      -3.158  -2.747   0.017  0.00  0.00    +0.151 HD
BRANCH  13  19
ATOM     19  C   UNL     1      -1.295  -0.603   0.011  0.00  0.00    +0.234 C 
BRANCH  19  21
ATOM     20  C   UNL     1      -0.017   1.425   0.010  0.00  0.00    +0.194 C 
ATOM     21  O   UNL     1       0.002  -0.004   0.002  0.00  0.00    -0.375 OA
ENDBRANCH  19  21
ENDBRANCH  13  19
ENDBRANCH   1  16
TORSDOF 4
