REMARK  Name = ZINC26580498
REMARK  6 active torsions:
REMARK  status: ('A' for Active; 'I' for Inactive)
REMARK    1  A    between atoms: C_5  and  C_7
REMARK    2  A    between atoms: C_8  and  C_9
REMARK    3  A    between atoms: C_8  and  N_16
REMARK    4  A    between atoms: N_11  and  C_12
REMARK    5  A    between atoms: C_12  and  C_13
REMARK    6  A    between atoms: C_17  and  C_19
REMARK                            x       y       z     vdW  Elec       q    Type
REMARK                         _______ _______ _______ _____ _____    ______ ____
ROOT
ATOM      1  C   UNK A   1       2.431   3.917   0.266  0.00  0.00    +0.038 C 
ATOM      2  C   UNK A   1       3.614   3.297   0.048  0.00  0.00    +0.097 C 
ENDROOT
BRANCH   1   7
ATOM      3  C   UNK A   1       0.237   1.399   1.973  0.00  0.00    +0.001 A 
ATOM      4  C   UNK A   1      -0.980   1.646   1.361  0.00  0.00    +0.001 A 
ATOM      5  C   UNK A   1      -1.093   2.635   0.401  0.00  0.00    +0.020 A 
ATOM      6  C   UNK A   1       0.013   3.378   0.037  0.00  0.00    +0.048 A 
ATOM      7  C   UNK A   1       1.248   3.131   0.647  0.00  0.00    -0.005 A 
ATOM      8  C   UNK A   1       1.351   2.132   1.621  0.00  0.00    +0.009 A 
ATOM      9 CL   UNK A   1      -0.129   4.614  -1.174  0.00  0.00    -0.083 Cl
ENDBRANCH   1   7
BRANCH   2  10
ATOM     10  C   UNK A   1       3.666   1.833  -0.068  0.00  0.00    +0.259 C 
ATOM     11  O   UNK A   1       2.635   1.188  -0.096  0.00  0.00    -0.269 OA
ATOM     12  N   UNK A   1       4.856   1.205  -0.143  0.00  0.00    -0.300 N 
ATOM     13  H   UNK A   1       5.788   1.788  -0.117  0.00  0.00    +0.150 HD
BRANCH  12  14
ATOM     14  C   UNK A   1       4.908  -0.255  -0.258  0.00  0.00    +0.229 C 
BRANCH  14  15
ATOM     15  C   UNK A   1       6.346  -0.703  -0.324  0.00  0.00    +0.373 C 
ATOM     16  O   UNK A   1       7.235   0.114  -0.279  0.00  0.00    -0.245 OA
ATOM     17  O   UNK A   1       6.637  -2.008  -0.433  0.00  0.00    -0.245 OA
ENDBRANCH  14  15
ENDBRANCH  12  14
ENDBRANCH   2  10
BRANCH   2  18
ATOM     18  N   UNK A   1       4.786   4.050  -0.067  0.00  0.00    -0.275 N 
ATOM     19  C   UNK A   0       5.524   3.980  -1.193  0.00  0.00    +0.284 C 
ATOM     20  O   UNK A   0       5.131   3.323  -2.139  0.00  0.00    -0.266 OA
ATOM     21  H   UNK A   1       5.107   4.699   0.761  0.00  0.00    +0.155 HD
BRANCH  19  22
ATOM     22  C   UNK A   0       6.801   4.695  -1.278  0.00  0.00    +0.189 A 
ATOM     23  C   UNK A   0       7.644   4.709  -2.353  0.00  0.00    +0.054 A 
ATOM     24  C   UNK A   0       8.737   5.514  -1.999  0.00  0.00    +0.042 A 
ATOM     25  C   UNK A   0       8.518   5.951  -0.739  0.00  0.00    +0.196 A 
ATOM     26  O   UNK A   0       7.348   5.460  -0.310  0.00  0.00    -0.458 OA
ENDBRANCH  19  22
ENDBRANCH   2  18
TORSDOF 6
