REMARK  Name = ZINC67239785
REMARK  11 active torsions:
REMARK  status: ('A' for Active; 'I' for Inactive)
REMARK    1  A    between atoms: C_1  and  C_2
REMARK    2  A    between atoms: C_2  and  C_3
REMARK    3  A    between atoms: C_2  and  C_4
REMARK    4  A    between atoms: C_4  and  C_5
REMARK    5  A    between atoms: C_8  and  C_11
REMARK    6  A    between atoms: C_11  and  C_13
REMARK    7  A    between atoms: C_13  and  C_14
REMARK    8  A    between atoms: C_14  and  C_15
REMARK    9  A    between atoms: N_17  and  C_18
REMARK   10  A    between atoms: C_21  and  C_24
REMARK   11  A    between atoms: C_24  and  N_25
REMARK                            x       y       z     vdW  Elec       q    Type
REMARK                         _______ _______ _______ _____ _____    ______ ____
ROOT
ATOM      1  C   UNL     1       9.670  -0.063   0.103  0.00  0.00    +0.218 C 
ATOM      2  O   UNL     1       9.329  -1.126   0.577  0.00  0.00    -0.275 OA
ATOM      3  N   UNL     1      10.964   0.310   0.144  0.00  0.00    -0.285 N 
ATOM      4  H   UNL     1      11.248   1.128  -0.293  0.00  0.00    +0.155 HD
ENDROOT
BRANCH   3   5
ATOM      5  C   UNL     1      11.900  -0.483   0.818  0.00  0.00    +0.033 A 
ATOM      6  C   UNL     1      12.953   0.111   1.501  0.00  0.00    +0.023 A 
ATOM      7  C   UNL     1      13.874  -0.675   2.165  0.00  0.00    +0.007 A 
ATOM      8  C   UNL     1      13.749  -2.052   2.151  0.00  0.00    -0.030 A 
ATOM      9  C   UNL     1      12.702  -2.647   1.471  0.00  0.00    +0.007 A 
ATOM     10  C   UNL     1      11.773  -1.866   0.810  0.00  0.00    +0.023 A 
BRANCH   8  11
ATOM     11  C   UNL     1      14.756  -2.906   2.876  0.00  0.00    +0.141 C 
BRANCH  11  12
ATOM     12  N   UNL     1      14.309  -3.125   4.254  0.00  0.00    -0.295 N 
ATOM     13  C   UNL     1      15.056  -3.865   5.096  0.00  0.00    +0.297 C 
ATOM     14  O   UNL     1      16.102  -4.352   4.712  0.00  0.00    -0.253 OA
ATOM     15  N   UNL     1      14.644  -4.067   6.363  0.00  0.00    -0.313 N 
ATOM     16  H   UNL     1      13.474  -2.736   4.560  0.00  0.00    +0.151 HD
ATOM     17  H   UNL     1      13.810  -3.678   6.670  0.00  0.00    +0.146 HD
ATOM     18  H   UNL     1      15.182  -4.600   6.969  0.00  0.00    +0.146 HD
ENDBRANCH  11  12
ENDBRANCH   8  11
ENDBRANCH   3   5
BRANCH   1  19
ATOM     19  C   UNL     1       8.645   0.842  -0.532  0.00  0.00    +0.104 C 
BRANCH  19  20
ATOM     20  C   UNL     1       7.265   0.188  -0.447  0.00  0.00    +0.089 C 
BRANCH  20  21
ATOM     21  C   UNL     1       6.240   1.092  -1.082  0.00  0.00    +0.164 C 
ATOM     22  O   UNL     1       6.581   2.155  -1.556  0.00  0.00    -0.292 OA
BRANCH  21  26
ATOM     23  C   UNL     1       2.166  -0.081  -1.214  0.00  0.00    -0.047 A 
ATOM     24  C   UNL     1       2.550   1.133  -1.755  0.00  0.00    +0.004 A 
ATOM     25  C   UNL     1       3.873   1.522  -1.716  0.00  0.00    +0.011 A 
ATOM     26  C   UNL     1       4.827   0.685  -1.127  0.00  0.00    +0.017 A 
ATOM     27  C   UNL     1       4.430  -0.540  -0.583  0.00  0.00    +0.011 A 
ATOM     28  C   UNL     1       3.103  -0.912  -0.625  0.00  0.00    +0.004 A 
BRANCH  23  29
ATOM     29  C   UNL     1       0.719  -0.498  -1.261  0.00  0.00    +0.038 C 
BRANCH  29  31
ATOM     30  C   UNL     1      -0.017   1.535  -0.009  0.00  0.00    +0.007 C 
ATOM     31  C   UNL     1       0.002   0.005  -0.006  0.00  0.00    -0.013 C 
ATOM     32  C   UNL     1      -1.434  -0.523   0.007  0.00  0.00    +0.007 C 
ENDBRANCH  29  31
ENDBRANCH  23  29
ENDBRANCH  21  26
ENDBRANCH  20  21
ENDBRANCH  19  20
ENDBRANCH   1  19
TORSDOF 9
