REMARK  Name = ZINC56710333
REMARK  7 active torsions:
REMARK  status: ('A' for Active; 'I' for Inactive)
REMARK    1  A    between atoms: C_1  and  C_2
REMARK    2  A    between atoms: C_4  and  O_23
REMARK    3  A    between atoms: C_7  and  N_8
REMARK    4  A    between atoms: N_11  and  C_12
REMARK    5  A    between atoms: N_11  and  C_13
REMARK    6  A    between atoms: O_23  and  C_24
REMARK    7  A    between atoms: C_24  and  C_25
REMARK                            x       y       z     vdW  Elec       q    Type
REMARK                         _______ _______ _______ _____ _____    ______ ____
ROOT
ATOM      1  N   UNL     1       0.025  -0.011   2.418  0.00  0.00    -0.269 N 
ATOM      2  C   UNL     1      -0.056  -0.689   3.580  0.00  0.00    +0.307 C 
ATOM      3  O   UNL     1      -0.040  -1.905   3.577  0.00  0.00    -0.252 OA
ATOM      4  N   UNL     1      -0.156  -0.019   4.745  0.00  0.00    -0.281 N 
ATOM      5  C   UNL     1      -0.176   1.446   4.749  0.00  0.00    +0.134 C 
ATOM      6  H   UNL     1       0.077   0.958   2.424  0.00  0.00    +0.156 HD
ENDROOT
BRANCH   4   7
ATOM      7  C   UNL     1      -0.245  -0.756   6.008  0.00  0.00    +0.108 C 
ATOM      8  C   UNL     1      -1.547  -0.391   6.752  0.00  0.00    +0.032 C 
ATOM      9  C   UNL     1      -1.093   0.767   7.666  0.00  0.00    +0.037 C 
ATOM     10  C   UNL     1       0.386   0.536   7.892  0.00  0.00    -0.042 A 
ATOM     11  C   UNL     1       0.875  -0.341   6.939  0.00  0.00    -0.024 A 
ATOM     12  C   UNL     1       2.212  -0.700   6.950  0.00  0.00    +0.006 A 
ATOM     13  C   UNL     1       3.061  -0.187   7.911  0.00  0.00    +0.000 A 
ATOM     14  C   UNL     1       2.576   0.689   8.864  0.00  0.00    +0.000 A 
ATOM     15  C   UNL     1       1.237   1.052   8.855  0.00  0.00    +0.004 A 
ENDBRANCH   4   7
BRANCH   1  22
ATOM     16  C   UNL     1      -1.267   1.181   0.182  0.00  0.00    +0.046 C 
ATOM     17  C   UNL     1      -0.585  -0.159   0.085  0.00  0.00    -0.026 A 
ATOM     18  C   UNL     1      -0.571  -0.841  -1.116  0.00  0.00    +0.050 A 
ATOM     19  C   UNL     1       0.057  -2.074  -1.206  0.00  0.00    +0.122 A 
ATOM     20  C   UNL     1       0.670  -2.624  -0.089  0.00  0.00    +0.047 A 
ATOM     21  C   UNL     1       0.657  -1.943   1.112  0.00  0.00    +0.027 A 
ATOM     22  C   UNL     1       0.034  -0.705   1.201  0.00  0.00    +0.038 A 
BRANCH  19  23
ATOM     23  O   UNL     1       0.070  -2.746  -2.388  0.00  0.00    -0.483 OA
BRANCH  23  24
ATOM     24  C   UNL     1       0.735  -4.011  -2.409  0.00  0.00    +0.324 C 
BRANCH  24  25
ATOM     25  C   UNL     1       0.648  -4.601  -3.792  0.00  0.00    +0.248 C 
ATOM     26  O   UNL     1       0.073  -3.999  -4.674  0.00  0.00    -0.272 OA
ATOM     27  N   UNL     1       1.208  -5.800  -4.050  0.00  0.00    -0.327 N 
ATOM     28  H   UNL     1       1.668  -6.282  -3.345  0.00  0.00    +0.145 HD
ATOM     29  H   UNL     1       1.152  -6.180  -4.941  0.00  0.00    +0.145 HD
ENDBRANCH  24  25
ENDBRANCH  23  24
ENDBRANCH  19  23
ENDBRANCH   1  22
TORSDOF 5
