REMARK  Name = ZINC66662007
REMARK  8 active torsions:
REMARK  status: ('A' for Active; 'I' for Inactive)
REMARK    1  A    between atoms: C_1  and  N_2
REMARK    2  A    between atoms: N_2  and  C_3
REMARK    3  A    between atoms: N_2  and  C_4
REMARK    4  A    between atoms: C_7  and  C_10
REMARK    5  A    between atoms: C_10  and  N_11
REMARK    6  A    between atoms: C_12  and  N_16
REMARK    7  A    between atoms: C_17  and  C_19
REMARK    8  A    between atoms: C_20  and  C_21
REMARK                            x       y       z     vdW  Elec       q    Type
REMARK                         _______ _______ _______ _____ _____    ______ ____
ROOT
ATOM      1  N   UNL     1      -5.280  -3.158   1.417  0.00  0.00    -0.246 N 
ATOM      2  C   UNL     1      -4.938  -4.236   2.169  0.00  0.00    +0.124 A 
ATOM      3  C   UNL     1      -5.522  -4.085   3.389  0.00  0.00    +0.065 A 
ATOM      4  C   UNL     1      -6.237  -2.885   3.376  0.00  0.00    +0.136 A 
ATOM      5  N   UNL     1      -6.090  -2.327   2.202  0.00  0.00    -0.178 NA
ENDROOT
BRANCH   2   6
ATOM      6  N   UNL     1      -4.136  -5.301   1.765  0.00  0.00    -0.267 N 
ATOM      7  C   UNL     1      -3.876  -6.311   2.620  0.00  0.00    +0.242 C 
ATOM      8  O   UNL     1      -4.342  -6.292   3.744  0.00  0.00    -0.270 OA
ATOM      9  H   UNL     1      -3.764  -5.317   0.870  0.00  0.00    +0.157 HD
BRANCH   7  10
ATOM     10  C   UNL     1      -3.034  -7.429   2.197  0.00  0.00    +0.070 C 
ATOM     11  C   UNL     1      -2.774  -8.442   3.054  0.00  0.00    +0.040 C 
BRANCH  11  12
ATOM     12  C   UNL     1      -1.931  -9.561   2.630  0.00  0.00    +0.101 A 
ATOM     13  N   UNL     1      -1.328  -9.767   1.462  0.00  0.00    -0.248 NA
ATOM     14  C   UNL     1      -0.617 -10.855   1.313  0.00  0.00    +0.119 A 
ATOM     15  C   UNL     1      -0.510 -11.740   2.340  0.00  0.00    +0.067 A 
ATOM     16  S   UNL     1      -1.432 -11.011   3.545  0.00  0.00    -0.076 S 
ENDBRANCH  11  12
ENDBRANCH   7  10
ENDBRANCH   2   6
BRANCH   1  17
ATOM     17  C   UNL     1      -4.870  -2.906   0.033  0.00  0.00    +0.180 C 
BRANCH  17  21
ATOM     18  C   UNL     1      -1.198  -0.719   0.010  0.00  0.00    +0.029 A 
ATOM     19  C   UNL     1      -1.181  -2.108   0.008  0.00  0.00    +0.023 A 
ATOM     20  C   UNL     1      -2.369  -2.812   0.016  0.00  0.00    +0.007 A 
ATOM     21  C   UNL     1      -3.575  -2.135   0.025  0.00  0.00    -0.026 A 
ATOM     22  C   UNL     1      -3.596  -0.752   0.027  0.00  0.00    +0.007 A 
ATOM     23  C   UNL     1      -2.411  -0.042   0.025  0.00  0.00    +0.023 A 
BRANCH  18  25
ATOM     24  C   UNL     1      -0.018   1.461   0.010  0.00  0.00    +0.129 C 
ATOM     25  N   UNL     1       0.002  -0.004   0.002  0.00  0.00    -0.336 N 
ATOM     26  C   UNL     1       1.281  -0.719  -0.014  0.00  0.00    +0.129 C 
ENDBRANCH  18  25
ENDBRANCH  17  21
ENDBRANCH   1  17
TORSDOF 6
