REMARK  Name = ZINC03440650
REMARK  14 active torsions:
REMARK  status: ('A' for Active; 'I' for Inactive)
REMARK    1  A    between atoms: C_1  and  C_2
REMARK    2  A    between atoms: C_4  and  C_18
REMARK    3  A    between atoms: C_5  and  C_17
REMARK    4  A    between atoms: N_6  and  C_7
REMARK    5  A    between atoms: C_10  and  O_13
REMARK    6  A    between atoms: O_13  and  C_14
REMARK    7  A    between atoms: C_18  and  C_20
REMARK    8  A    between atoms: C_20  and  C_22
REMARK    9  A    between atoms: C_20  and  N_60
REMARK   10  A    between atoms: C_23  and  C_24
REMARK   11  A    between atoms: C_23  and  N_60
REMARK   12  A    between atoms: C_24  and  C_25
REMARK   13  A    between atoms: C_28  and  S_31
REMARK   14  A    between atoms: S_31  and  N_34
REMARK                            x       y       z     vdW  Elec       q    Type
REMARK                         _______ _______ _______ _____ _____    ______ ____
ROOT
ATOM      1  C   UNL     1       0.524   7.457   2.857  0.00  0.00    +0.151 C 
ATOM      2  O   UNL     1       0.368   8.068   1.820  0.00  0.00    -0.294 OA
ENDROOT
BRANCH   1   6
ATOM      3  C   UNL     1      -0.367   8.183   7.821  0.00  0.00    +0.064 C 
ATOM      4  C   UNL     1      -0.276   8.359   6.327  0.00  0.00    +0.022 A 
ATOM      5  C   UNL     1       0.221   7.456   5.465  0.00  0.00    +0.034 A 
ATOM      6  C   UNL     1       0.111   8.055   4.128  0.00  0.00    +0.037 A 
ATOM      7  C   UNL     1      -0.468   9.297   4.315  0.00  0.00    +0.031 A 
ATOM      8  N   UNL     1      -0.692   9.461   5.633  0.00  0.00    -0.317 N 
ATOM      9  C   UNL     1      -0.792  10.294   3.232  0.00  0.00    +0.064 C 
BRANCH   8  10
ATOM     10  C   UNL     1      -1.270  10.601   6.211  0.00  0.00    +0.047 A 
ATOM     11  C   UNL     1      -0.607  11.820   6.155  0.00  0.00    +0.030 A 
ATOM     12  C   UNL     1      -1.179  12.942   6.720  0.00  0.00    +0.048 A 
ATOM     13  C   UNL     1      -2.410  12.850   7.353  0.00  0.00    +0.127 A 
ATOM     14  C   UNL     1      -3.070  11.631   7.414  0.00  0.00    +0.048 A 
ATOM     15  C   UNL     1      -2.502  10.509   6.845  0.00  0.00    +0.030 A 
BRANCH  13  16
ATOM     16  O   UNL     1      -2.970  13.955   7.913  0.00  0.00    -0.434 OA
BRANCH  16  17
ATOM     17  C   UNL     1      -2.236  15.177   7.813  0.00  0.00    +0.541 C 
ATOM     18  F   UNL     1      -0.994  15.027   8.438  0.00  0.00    -0.166 F 
ATOM     19  F   UNL     1      -2.044  15.496   6.465  0.00  0.00    -0.166 F 
ENDBRANCH  16  17
ENDBRANCH  13  16
ENDBRANCH   8  10
ENDBRANCH   1   6
BRANCH   1  20
ATOM     20  C   UNL     1       1.143   6.083   2.837  0.00  0.00    -0.002 C 
ATOM     21  C   UNL     1       2.584   6.166   3.345  0.00  0.00    -0.006 C 
BRANCH  20  22
ATOM     22  N   UNL     1       1.137   5.570   1.454  0.00  0.00    +0.386 N 
ATOM     23  H   UNL     1       1.966   5.920   0.959  0.00  0.00    -0.085 HD
ATOM     24  H   UNL     1       0.290   5.897   0.975  0.00  0.00    -0.085 HD
BRANCH  22  25
ATOM     25  C   UNL     1       1.157   4.095   1.455  0.00  0.00    -0.077 C 
BRANCH  25  26
ATOM     26  C   UNL     1       1.151   3.592   0.010  0.00  0.00    +0.016 C 
BRANCH  26  27
ATOM     27  C   UNL     1       1.171   2.086   0.002  0.00  0.00    -0.049 A 
ATOM     28  C   UNL     1      -0.017   1.378   0.010  0.00  0.00    +0.005 A 
ATOM     29  C   UNL     1       0.002  -0.004   0.002  0.00  0.00    +0.029 A 
ATOM     30  C   UNL     1       1.208  -0.679  -0.013  0.00  0.00    +0.105 A 
ATOM     31  C   UNL     1       2.396   0.029  -0.021  0.00  0.00    +0.029 A 
ATOM     32  C   UNL     1       2.377   1.411  -0.015  0.00  0.00    +0.005 A 
BRANCH  30  33
ATOM     33  S   UNL     1       1.232  -2.441  -0.022  0.00  0.00    +0.056 S 
ATOM     34  O   UNL     1       2.489  -2.832   0.515  0.00  0.00    -0.153 OA
ATOM     35  O   UNL     1      -0.002  -2.866   0.539  0.00  0.00    -0.153 OA
BRANCH  33  36
ATOM     36  N   UNL     1       1.223  -2.923  -1.606  0.00  0.00    -0.204 NA
ATOM     37  H   UNL     1       1.652  -3.754  -1.862  0.00  0.00    +0.144 HD
ATOM     38  H   UNL     1       0.789  -2.374  -2.277  0.00  0.00    +0.144 HD
ENDBRANCH  33  36
ENDBRANCH  30  33
ENDBRANCH  26  27
ENDBRANCH  25  26
ENDBRANCH  22  25
ENDBRANCH  20  22
ENDBRANCH   1  20
TORSDOF 11
