REMARK  Name = ZINC58597491
REMARK  9 active torsions:
REMARK  status: ('A' for Active; 'I' for Inactive)
REMARK    1  A    between atoms: C_1  and  C_2
REMARK    2  A    between atoms: C_5  and  C_9
REMARK    3  A    between atoms: C_11  and  C_14
REMARK    4  A    between atoms: C_14  and  C_16
REMARK    5  A    between atoms: C_14  and  O_17
REMARK    6  A    between atoms: O_17  and  C_18
REMARK    7  A    between atoms: C_18  and  C_20
REMARK    8  A    between atoms: C_22  and  S_25
REMARK    9  A    between atoms: S_25  and  N_28
REMARK                            x       y       z     vdW  Elec       q    Type
REMARK                         _______ _______ _______ _____ _____    ______ ____
ROOT
ATOM      1  C   UNL     1       0.105  -7.486   1.635  0.00  0.00    +0.262 C 
ATOM      2  C   UNL     1       1.507  -8.098   1.655  0.00  0.00    +0.062 C 
ENDROOT
BRANCH   1   5
ATOM      3  C   UNL     1       0.061  -4.258  -0.024  0.00  0.00    +0.202 A 
ATOM      4  N   UNL     1       0.071  -5.050   1.063  0.00  0.00    -0.188 NA
ATOM      5  C   UNL     1       0.088  -6.301   0.703  0.00  0.00    +0.268 A 
ATOM      6  O   UNL     1       0.089  -6.358  -0.635  0.00  0.00    -0.334 OA
ATOM      7  N   UNL     1       0.065  -5.015  -1.093  0.00  0.00    -0.056 NA
BRANCH   3  12
ATOM      8  C   UNL     1      -0.018   1.503   0.010  0.00  0.00    +0.047 C 
ATOM      9  C   UNL     1       0.002  -0.004   0.002  0.00  0.00    -0.015 A 
ATOM     10  C   UNL     1       0.006  -0.687  -1.201  0.00  0.00    +0.007 A 
ATOM     11  C   UNL     1       0.025  -2.067  -1.215  0.00  0.00    +0.012 A 
ATOM     12  C   UNL     1       0.041  -2.774  -0.014  0.00  0.00    +0.025 A 
ATOM     13  C   UNL     1       0.037  -2.083   1.196  0.00  0.00    +0.050 A 
ATOM     14  C   UNL     1       0.023  -0.701   1.199  0.00  0.00    +0.127 A 
ATOM     15  F   UNL     1       0.025  -0.029   2.371  0.00  0.00    -0.205 F 
ENDBRANCH   3  12
ENDBRANCH   1   5
BRANCH   1  16
ATOM     16  O   UNL     1      -0.834  -8.462   1.181  0.00  0.00    -0.448 OA
BRANCH  16  17
ATOM     17  C   UNL     1      -1.410  -9.239   2.120  0.00  0.00    +0.340 C 
ATOM     18  O   UNL     1      -1.123  -9.092   3.292  0.00  0.00    -0.245 OA
BRANCH  17  19
ATOM     19  C   UNL     1      -2.387 -10.266   1.726  0.00  0.00    +0.068 A 
ATOM     20  C   UNL     1      -3.029 -11.113   2.703  0.00  0.00    +0.051 A 
ATOM     21  C   UNL     1      -3.904 -12.013   2.213  0.00  0.00    +0.143 A 
ATOM     22  S   UNL     1      -3.854 -11.712   0.460  0.00  0.00    -0.076 S 
ATOM     23  C   UNL     1      -2.737 -10.460   0.408  0.00  0.00    +0.062 A 
BRANCH  21  24
ATOM     24  S   UNL     1      -4.863 -13.199   3.094  0.00  0.00    +0.062 S 
ATOM     25  O   UNL     1      -5.171 -14.237   2.173  0.00  0.00    -0.153 OA
ATOM     26  O   UNL     1      -4.183 -13.444   4.317  0.00  0.00    -0.153 OA
BRANCH  24  27
ATOM     27  N   UNL     1      -6.299 -12.474   3.487  0.00  0.00    -0.203 NA
ATOM     28  H   UNL     1      -6.466 -11.555   3.224  0.00  0.00    +0.144 HD
ATOM     29  H   UNL     1      -6.973 -12.967   3.980  0.00  0.00    +0.144 HD
ENDBRANCH  24  27
ENDBRANCH  21  24
ENDBRANCH  17  19
ENDBRANCH  16  17
ENDBRANCH   1  16
TORSDOF 7
