REMARK  Name = ZINC40332674
REMARK  4 active torsions:
REMARK  status: ('A' for Active; 'I' for Inactive)
REMARK    1  A    between atoms: C_2  and  S_8
REMARK    2  A    between atoms: S_8  and  N_11
REMARK    3  A    between atoms: N_11  and  C_12
REMARK    4  A    between atoms: C_12  and  C_13
REMARK                            x       y       z     vdW  Elec       q    Type
REMARK                         _______ _______ _______ _____ _____    ______ ____
ROOT
ATOM      1  S   UNL     1       1.793   3.459   0.004  0.00  0.00    +0.063 S 
ATOM      2  O   UNL     1       2.759   3.584  -1.031  0.00  0.00    -0.153 OA
ATOM      3  O   UNL     1       0.616   4.254   0.047  0.00  0.00    -0.153 OA
ENDROOT
BRANCH   1   5
ATOM      4  C   UNL     1      -0.016   1.345   0.009  0.00  0.00    +0.135 A 
ATOM      5  C   UNL     1       1.265   1.778  -0.001  0.00  0.00    +0.164 A 
ATOM      6  C   UNL     1       2.101   0.649  -0.015  0.00  0.00    +0.164 A 
ATOM      7  N   UNL     1       1.339  -0.420  -0.013  0.00  0.00    -0.157 NA
ATOM      8  N   UNL     1       0.002  -0.004   0.002  0.00  0.00    -0.281 N 
ATOM      9  H   UNL     1      -0.775  -0.585   0.007  0.00  0.00    +0.188 HD
ATOM     10  N   UNL     1       3.500   0.662  -0.029  0.00  0.00    -0.340 N 
ATOM     11  H   UNL     1       3.978   1.506  -0.029  0.00  0.00    +0.144 HD
ATOM     12  H   UNL     1       3.993  -0.174  -0.038  0.00  0.00    +0.144 HD
ENDBRANCH   1   5
BRANCH   1  13
ATOM     13  N   UNL     1       2.592   3.718   1.431  0.00  0.00    -0.189 NA
ATOM     14  H   UNL     1       2.229   4.336   2.084  0.00  0.00    +0.148 HD
BRANCH  13  15
ATOM     15  C   UNL     1       3.846   3.014   1.706  0.00  0.00    +0.111 C 
BRANCH  15  16
ATOM     16  C   UNL     1       4.562   3.686   2.880  0.00  0.00    +0.032 C 
ATOM     17  C   UNL     1       5.929   3.009   3.141  0.00  0.00    +0.035 C 
ATOM     18  C   UNL     1       5.981   2.968   4.689  0.00  0.00    +0.160 C 
ATOM     19  O   UNL     1       4.614   2.696   5.065  0.00  0.00    -0.379 OA
ATOM     20  C   UNL     1       3.774   3.470   4.187  0.00  0.00    +0.164 C 
ENDBRANCH  15  16
ENDBRANCH  13  15
ENDBRANCH   1  13
TORSDOF 4
