REMARK  Name = ZINC13958327
REMARK  4 active torsions:
REMARK  status: ('A' for Active; 'I' for Inactive)
REMARK    1  A    between atoms: C_1  and  N_2
REMARK    2  A    between atoms: C_3  and  C_12
REMARK    3  A    between atoms: C_5  and  C_7
REMARK    4  A    between atoms: N_18  and  C_20
REMARK                            x       y       z     vdW  Elec       q    Type
REMARK                         _______ _______ _______ _____ _____    ______ ____
ROOT
ATOM      1  C   UNL     1       1.140   2.086   0.002  0.00  0.00    +0.269 C 
ATOM      2  O   UNL     1       2.201   1.495   0.080  0.00  0.00    -0.268 OA
ATOM      3  N   UNL     1      -0.018   1.397   0.011  0.00  0.00    -0.264 N 
ATOM      4  C   UNL     1       0.001  -0.004  -0.000  0.00  0.00    +0.147 A 
ATOM      5  C   UNL     1       1.148  -0.813  -0.020  0.00  0.00    +0.065 A 
ATOM      6  C   UNL     1       0.745  -2.104  -0.024  0.00  0.00    +0.111 A 
ATOM      7  N   UNL     1      -0.605  -2.116  -0.008  0.00  0.00    -0.264 N 
ATOM      8  N   UNL     1      -1.051  -0.789   0.011  0.00  0.00    -0.155 NA
ATOM      9  H   UNL     1      -0.864   1.871   0.021  0.00  0.00    +0.157 HD
ENDROOT
BRANCH   7  10
ATOM     10  C   UNL     1      -1.454  -3.310  -0.006  0.00  0.00    +0.064 C 
ATOM     11  C   UNL     1      -0.907  -4.324   1.001  0.00  0.00    +0.033 C 
ATOM     12  C   UNL     1      -1.795  -5.570   1.003  0.00  0.00    -0.008 C 
ATOM     13  C   UNL     1      -3.221  -5.180   1.396  0.00  0.00    +0.007 C 
ATOM     14  C   UNL     1      -3.768  -4.166   0.389  0.00  0.00    -0.008 C 
ATOM     15  C   UNL     1      -2.881  -2.920   0.387  0.00  0.00    +0.033 C 
ATOM     16  C   UNL     1      -3.776  -4.789  -1.009  0.00  0.00    +0.007 C 
ATOM     17  C   UNL     1      -2.350  -5.179  -1.401  0.00  0.00    -0.008 C 
ATOM     18  C   UNL     1      -1.803  -6.193  -0.395  0.00  0.00    +0.007 C 
ATOM     19  C   UNL     1      -1.463  -3.933  -1.404  0.00  0.00    +0.033 C 
ENDBRANCH   7  10
BRANCH   1  22
ATOM     20  C   UNL     1       0.772   3.745  -2.583  0.00  0.00    +0.173 C 
ATOM     21  N   UNL     1       0.960   4.294  -1.238  0.00  0.00    -0.260 N 
ATOM     22  C   UNL     1       1.122   3.553  -0.101  0.00  0.00    +0.142 A 
ATOM     23  C   UNL     1       1.260   4.461   0.936  0.00  0.00    +0.103 A 
ATOM     24  C   UNL     1       1.178   5.721   0.337  0.00  0.00    +0.184 A 
ATOM     25  N   UNL     1       0.998   5.544  -0.947  0.00  0.00    -0.165 NA
ATOM     26 CL   UNL     1       1.488   4.110   2.621  0.00  0.00    -0.079 Cl
BRANCH  24  27
ATOM     27  C   UNL     1       1.275   7.048   1.044  0.00  0.00    +0.437 C 
ATOM     28  F   UNL     1       1.028   8.082   0.133  0.00  0.00    -0.164 F 
ATOM     29  F   UNL     1       0.328   7.098   2.073  0.00  0.00    -0.164 F 
ATOM     30  F   UNL     1       2.557   7.198   1.583  0.00  0.00    -0.164 F 
ENDBRANCH  24  27
ENDBRANCH   1  22
TORSDOF 3
