REMARK  Name = ZINC25515990
REMARK  10 active torsions:
REMARK  status: ('A' for Active; 'I' for Inactive)
REMARK    1  A    between atoms: C_1  and  C_2
REMARK    2  A    between atoms: C_2  and  C_3
REMARK    3  A    between atoms: C_2  and  C_4
REMARK    4  A    between atoms: C_4  and  C_6
REMARK    5  A    between atoms: C_4  and  N_21
REMARK    6  A    between atoms: N_8  and  C_9
REMARK    7  A    between atoms: C_13  and  N_15
REMARK    8  A    between atoms: N_15  and  S_16
REMARK    9  A    between atoms: S_16  and  C_19
REMARK   10  A    between atoms: C_22  and  C_24
REMARK                            x       y       z     vdW  Elec       q    Type
REMARK                         _______ _______ _______ _____ _____    ______ ____
ROOT
ATOM      1  C   UNL     1       1.585  -0.852   1.543  0.00  0.00    +0.162 C 
ENDROOT
BRANCH   1   2
ATOM      2  C   UNL     1       1.032  -2.160   2.047  0.00  0.00    +0.238 C 
ATOM      3  O   UNL     1      -0.110  -2.221   2.449  0.00  0.00    -0.273 OA
ATOM      4  N   UNL     1       1.808  -3.262   2.051  0.00  0.00    -0.284 N 
ATOM      5  H   UNL     1       2.864  -3.193   1.751  0.00  0.00    +0.155 HD
BRANCH   4   6
ATOM      6  C   UNL     1       1.269  -4.496   2.437  0.00  0.00    +0.035 A 
ATOM      7  C   UNL     1       0.316  -4.553   3.446  0.00  0.00    +0.026 A 
ATOM      8  C   UNL     1      -0.221  -5.769   3.824  0.00  0.00    +0.042 A 
ATOM      9  C   UNL     1       0.198  -6.934   3.208  0.00  0.00    +0.146 A 
ATOM     10  C   UNL     1       1.157  -6.883   2.202  0.00  0.00    +0.085 A 
ATOM     11  C   UNL     1       1.692  -5.663   1.817  0.00  0.00    +0.050 A 
ATOM     12  F   UNL     1      -0.324  -8.122   3.585  0.00  0.00    -0.204 F 
BRANCH  10  13
ATOM     13  N   UNL     1       1.580  -8.061   1.578  0.00  0.00    -0.218 N 
ATOM     14  H   UNL     1       0.866  -8.880   1.406  0.00  0.00    +0.173 HD
BRANCH  13  15
ATOM     15  S   UNL     1       3.157  -8.224   1.099  0.00  0.00    +0.040 S 
ATOM     16  O   UNL     1       3.243  -9.542   0.576  0.00  0.00    -0.155 OA
ATOM     17  O   UNL     1       3.402  -7.097   0.269  0.00  0.00    -0.155 OA
ATOM     18  C   UNL     1       4.124  -8.095   2.628  0.00  0.00    +0.218 C 
ENDBRANCH  13  15
ENDBRANCH  10  13
ENDBRANCH   4   6
ENDBRANCH   1   2
BRANCH   1  19
ATOM     19  N   UNL     1       0.746   0.250   2.021  0.00  0.00    -0.303 N 
ATOM     20  C   UNL     1       1.265   1.487   2.148  0.00  0.00    +0.220 C 
ATOM     21  O   UNL     1       2.428   1.688   1.866  0.00  0.00    -0.275 OA
ATOM     22  H   UNL     1      -0.308   0.067   2.277  0.00  0.00    +0.149 HD
BRANCH  20  23
ATOM     23  C   UNL     1       0.400   2.621   2.634  0.00  0.00    +0.048 C 
ATOM     24  C   UNL     1      -0.128   2.296   4.033  0.00  0.00    +0.019 C 
ATOM     25  C   UNL     1      -1.006   3.448   4.527  0.00  0.00    -0.009 C 
ATOM     26  C   UNL     1      -0.178   4.734   4.579  0.00  0.00    +0.007 C 
ATOM     27  C   UNL     1       0.350   5.059   3.180  0.00  0.00    -0.009 C 
ATOM     28  C   UNL     1       1.228   3.907   2.687  0.00  0.00    +0.019 C 
ATOM     29  C   UNL     1      -0.828   5.249   2.222  0.00  0.00    +0.007 C 
ATOM     30  C   UNL     1      -1.655   3.963   2.170  0.00  0.00    -0.009 C 
ATOM     31  C   UNL     1      -2.183   3.638   3.568  0.00  0.00    +0.007 C 
ATOM     32  C   UNL     1      -0.777   2.811   1.676  0.00  0.00    +0.019 C 
ENDBRANCH  20  23
ENDBRANCH   1  19
BRANCH   1  34
ATOM     33  C   UNL     1       2.531  -1.960  -0.486  0.00  0.00    +0.009 C 
ATOM     34  C   UNL     1       1.595  -0.858   0.013  0.00  0.00    +0.012 C 
ATOM     35  C   UNL     1       0.179  -1.119  -0.505  0.00  0.00    +0.009 C 
ENDBRANCH   1  34
TORSDOF 7
