REMARK  Name = ZINC65547810
REMARK  5 active torsions:
REMARK  status: ('A' for Active; 'I' for Inactive)
REMARK    1  A    between atoms: C_1  and  C_2
REMARK    2  A    between atoms: C_7  and  C_8
REMARK    3  A    between atoms: C_7  and  C_9
REMARK    4  A    between atoms: C_11  and  N_13
REMARK    5  A    between atoms: C_14  and  C_16
REMARK                            x       y       z     vdW  Elec       q    Type
REMARK                         _______ _______ _______ _____ _____    ______ ____
ROOT
ATOM      1  N   UNL     1      -2.268  -0.017   1.012  0.00  0.00    -0.312 N 
ATOM      2  C   UNL     1      -3.606  -0.100   0.874  0.00  0.00    +0.216 C 
ATOM      3  O   UNL     1      -4.083  -0.745  -0.035  0.00  0.00    -0.276 OA
ATOM      4  H   UNL     1      -1.886   0.499   1.739  0.00  0.00    +0.149 HD
ENDROOT
BRANCH   2   5
ATOM      5  C   UNL     1      -4.509   0.608   1.851  0.00  0.00    +0.075 C 
ATOM      6  C   UNL     1      -4.225   2.111   1.810  0.00  0.00    +0.015 C 
ATOM      7  C   UNL     1      -5.135   2.828   2.812  0.00  0.00    +0.036 C 
ATOM      8  C   UNL     1      -6.594   2.559   2.460  0.00  0.00    +0.112 C 
ATOM      9  C   UNL     1      -6.886   1.063   2.472  0.00  0.00    +0.036 C 
ATOM     10  C   UNL     1      -5.969   0.353   1.472  0.00  0.00    +0.015 C 
ATOM     11  C   UNL     1      -6.930   3.152   1.111  0.00  0.00    +0.244 C 
ATOM     12  O   UNL     1      -6.436   2.868   0.041  0.00  0.00    -0.273 OA
ATOM     13  N   UNL     1      -7.895   4.064   1.349  0.00  0.00    -0.238 N 
ATOM     14  C   UNL     1      -8.208   4.124   2.649  0.00  0.00    +0.307 C 
ATOM     15  O   UNL     1      -9.050   4.871   3.109  0.00  0.00    -0.252 OA
ATOM     16  N   UNL     1      -7.485   3.264   3.392  0.00  0.00    -0.285 N 
ATOM     17  H   UNL     1      -8.311   4.610   0.663  0.00  0.00    +0.159 HD
ATOM     18  H   UNL     1      -7.541   3.135   4.351  0.00  0.00    +0.151 HD
ENDBRANCH   2   5
BRANCH   1  28
ATOM     19  C   UNL     1      -0.019   1.526   0.010  0.00  0.00    +0.013 C 
ATOM     20  C   UNL     1       0.002  -0.004   0.002  0.00  0.00    -0.008 C 
ATOM     21  C   UNL     1       0.744  -0.669  -1.197  0.00  0.00    +0.009 C 
ATOM     22  C   UNL     1       1.062  -2.103  -0.714  0.00  0.00    +0.005 C 
ATOM     23  C   UNL     1       0.481  -2.169   0.732  0.00  0.00    -0.003 C 
ATOM     24  C   UNL     1       0.727  -0.695   1.211  0.00  0.00    -0.025 C 
ATOM     25  C   UNL     1       0.031  -0.400   2.541  0.00  0.00    +0.012 C 
ATOM     26  C   UNL     1       2.216  -0.348   1.260  0.00  0.00    +0.012 C 
ATOM     27  C   UNL     1      -1.065  -2.175   0.532  0.00  0.00    +0.027 C 
ATOM     28  C   UNL     1      -1.389  -0.705   0.062  0.00  0.00    +0.080 C 
ENDBRANCH   1  28
TORSDOF 2
