REMARK  Name = ZINC21953109
REMARK  3 active torsions:
REMARK  status: ('A' for Active; 'I' for Inactive)
REMARK    1  A    between atoms: C_1  and  C_2
REMARK    2  A    between atoms: C_15  and  C_17
REMARK    3  A    between atoms: C_17  and  O_18
REMARK                            x       y       z     vdW  Elec       q    Type
REMARK                         _______ _______ _______ _____ _____    ______ ____
ROOT
ATOM      1  C   UNL     1      -1.736   0.565   4.275  0.00  0.00    +0.029 C 
ATOM      2  C   UNL     1      -0.915   1.710   3.679  0.00  0.00    +0.087 C 
ATOM      3  C   UNL     1       0.123   2.176   4.702  0.00  0.00    +0.118 C 
ATOM      4  C   UNL     1       1.181   3.006   4.025  0.00  0.00    +0.219 C 
ATOM      5  O   UNL     1       1.179   4.212   4.162  0.00  0.00    -0.275 OA
ATOM      6  N   UNL     1       2.133   2.419   3.266  0.00  0.00    -0.284 N 
ATOM      7  C   UNL     1       2.100   1.040   3.024  0.00  0.00    +0.055 A 
ATOM      8  C   UNL     1       3.231   0.260   3.198  0.00  0.00    +0.025 A 
ATOM      9  C   UNL     1       3.171  -1.109   2.922  0.00  0.00    +0.002 A 
ATOM     10  C   UNL     1       1.993  -1.679   2.475  0.00  0.00    +0.002 A 
ATOM     11  C   UNL     1       0.860  -0.904   2.311  0.00  0.00    +0.025 A 
ATOM     12  C   UNL     1       0.905   0.451   2.595  0.00  0.00    +0.058 A 
ATOM     13  N   UNL     1      -0.242   1.246   2.466  0.00  0.00    -0.265 N 
ATOM     14  C   UNL     1      -0.718   1.572   1.248  0.00  0.00    +0.246 C 
ATOM     15  O   UNL     1      -1.715   2.256   1.150  0.00  0.00    -0.273 OA
ATOM     16  H   UNL     1       2.942   3.025   2.832  0.00  0.00    +0.155 HD
ENDROOT
BRANCH  14  17
ATOM     17  C   UNL     1      -0.013   1.086   0.008  0.00  0.00    +0.252 C 
BRANCH  17  18
ATOM     18  O   UNL     1      -0.704   1.559  -1.150  0.00  0.00    -0.386 OA
ATOM     19  H   UNL     1      -0.334   1.304  -2.154  0.00  0.00    +0.210 HD
ENDBRANCH  17  18
ENDBRANCH  14  17
TORSDOF 2
