REMARK  Name = ZINC01247471
REMARK  7 active torsions:
REMARK  status: ('A' for Active; 'I' for Inactive)
REMARK    1  A    between atoms: C_1  and  C_2
REMARK    2  A    between atoms: C_5  and  C_8
REMARK    3  A    between atoms: N_14  and  N_15
REMARK    4  A    between atoms: C_16  and  C_17
REMARK    5  A    between atoms: C_20  and  O_25
REMARK    6  A    between atoms: C_21  and  O_23
REMARK    7  A    between atoms: O_23  and  C_24
REMARK                            x       y       z     vdW  Elec       q    Type
REMARK                         _______ _______ _______ _____ _____    ______ ____
ROOT
ATOM      1  C   UNL     1      -3.240   4.489   1.162  0.00  0.00    +0.184 A 
ATOM      2  N   UNL     1      -4.327   5.100   0.781  0.00  0.00    -0.152 NA
ATOM      3  N   UNL     1      -4.349   5.116  -0.620  0.00  0.00    -0.253 N 
ATOM      4  H   UNL     1      -5.040   5.505  -1.179  0.00  0.00    +0.191 HD
ATOM      5  C   UNL     1      -3.231   4.496  -1.050  0.00  0.00    +0.197 A 
ATOM      6  S   UNL     1      -2.774   4.254  -2.683  0.00  0.00    -0.010 S 
ATOM      7  N   UNL     1      -2.539   4.099   0.036  0.00  0.00    -0.188 N 
ENDROOT
BRANCH   1  12
ATOM      8  C   UNL     1      -1.633   3.568   6.611  0.00  0.00    +0.044 C 
ATOM      9  C   UNL     1      -2.054   3.810   5.184  0.00  0.00    -0.050 A 
ATOM     10  C   UNL     1      -3.051   4.727   4.906  0.00  0.00    +0.004 A 
ATOM     11  C   UNL     1      -3.441   4.952   3.602  0.00  0.00    +0.012 A 
ATOM     12  C   UNL     1      -2.827   4.253   2.562  0.00  0.00    +0.021 A 
ATOM     13  C   UNL     1      -1.826   3.325   2.850  0.00  0.00    +0.012 A 
ATOM     14  C   UNL     1      -1.441   3.112   4.158  0.00  0.00    +0.004 A 
ENDBRANCH   1  12
BRANCH   7  15
ATOM     15  N   UNL     1      -1.318   3.413   0.027  0.00  0.00    -0.171 NA
ATOM     16  C   UNL     1      -1.302   2.115   0.020  0.00  0.00    +0.141 C 
BRANCH  16  17
ATOM     17  C   UNL     1      -0.017   1.393   0.010  0.00  0.00    -0.002 A 
ATOM     18  C   UNL     1       1.186   2.105   0.002  0.00  0.00    +0.013 A 
ATOM     19  C   UNL     1       2.387   1.428  -0.013  0.00  0.00    +0.050 A 
ATOM     20  C   UNL     1       2.405   0.041  -0.020  0.00  0.00    +0.158 A 
ATOM     21  C   UNL     1       1.210  -0.675  -0.013  0.00  0.00    +0.162 A 
ATOM     22  C   UNL     1       0.002  -0.004   0.002  0.00  0.00    +0.059 A 
BRANCH  21  23
ATOM     23  O   UNL     1       1.232  -2.035  -0.021  0.00  0.00    -0.491 OA
ATOM     24  C   UNL     1      -0.030  -2.705  -0.012  0.00  0.00    +0.277 C 
ENDBRANCH  21  23
BRANCH  20  25
ATOM     25  O   UNL     1       3.592  -0.622  -0.035  0.00  0.00    -0.503 OA
ATOM     26  H   UNL     1       3.928  -0.808  -0.922  0.00  0.00    +0.292 HD
ENDBRANCH  20  25
ENDBRANCH  16  17
ENDBRANCH   7  15
TORSDOF 5
