REMARK  Name = ZINC20157777
REMARK  7 active torsions:
REMARK  status: ('A' for Active; 'I' for Inactive)
REMARK    1  A    between atoms: C_1  and  C_2
REMARK    2  A    between atoms: C_2  and  N_3
REMARK    3  A    between atoms: N_3  and  N_4
REMARK    4  A    between atoms: C_5  and  C_7
REMARK    5  A    between atoms: C_7  and  C_9
REMARK    6  A    between atoms: C_7  and  N_21
REMARK    7  A    between atoms: C_22  and  C_24
REMARK                            x       y       z     vdW  Elec       q    Type
REMARK                         _______ _______ _______ _____ _____    ______ ____
ROOT
ATOM      1  C   UNL     1      -2.561   5.378   0.055  0.00  0.00    +0.212 C 
ENDROOT
BRANCH   1   2
ATOM      2  C   UNL     1      -2.518   3.871   0.046  0.00  0.00    +0.099 A 
ATOM      3  C   UNL     1      -1.231   3.176   0.030  0.00  0.00    +0.013 A 
ATOM      4  C   UNL     1      -0.019   3.870   0.022  0.00  0.00    +0.010 A 
ATOM      5  C   UNL     1       1.158   3.176   0.008  0.00  0.00    +0.001 A 
ATOM      6  C   UNL     1       1.167   1.787   0.001  0.00  0.00    +0.001 A 
ATOM      7  C   UNL     1      -0.013   1.076   0.008  0.00  0.00    +0.014 A 
ATOM      8  C   UNL     1      -1.226   1.763   0.017  0.00  0.00    +0.050 A 
ATOM      9  C   UNL     1      -2.517   1.064   0.031  0.00  0.00    +0.272 A 
ATOM     10  O   UNL     1      -2.563  -0.153   0.025  0.00  0.00    -0.266 OA
ATOM     11  N   UNL     1      -3.651   1.795   0.046  0.00  0.00    -0.242 N 
ATOM     12  H   UNL     1      -4.629   1.292   0.053  0.00  0.00    +0.192 HD
ATOM     13  N   UNL     1      -3.625   3.190   0.053  0.00  0.00    -0.173 NA
ENDBRANCH   1   2
BRANCH   1  15
ATOM     14  N   UNL     1      -1.384   5.601  -2.109  0.00  0.00    -0.235 N 
ATOM     15  C   UNL     1      -2.465   5.891  -1.358  0.00  0.00    +0.255 C 
ATOM     16  O   UNL     1      -3.361   6.566  -1.821  0.00  0.00    -0.272 OA
ATOM     17  H   UNL     1      -0.572   4.989  -1.690  0.00  0.00    +0.173 HD
BRANCH  14  18
ATOM     18  N   UNL     1      -1.294   6.078  -3.423  0.00  0.00    -0.268 N 
ATOM     19  H   UNL     1      -2.107   6.690  -3.842  0.00  0.00    +0.170 HD
BRANCH  18  21
ATOM     20  C   UNL     1       0.845   4.964  -3.561  0.00  0.00    +0.062 C 
ATOM     21  C   UNL     1      -0.267   5.803  -4.136  0.00  0.00    +0.029 C 
ATOM     22  C   UNL     1      -0.171   6.316  -5.549  0.00  0.00    +0.058 C 
ATOM     23  C   UNL     1      -0.051   7.856  -5.555  0.00  0.00    +0.085 C 
ATOM     24  C   UNL     1      -1.064   8.258  -6.651  0.00  0.00    +0.237 C 
ATOM     25  O   UNL     1      -2.041   7.176  -6.657  0.00  0.00    -0.461 OA
ATOM     26  C   UNL     1      -0.222   5.167  -6.532  0.00  0.00    +0.337 C 
ATOM     27  O   UNL     1       0.600   4.285  -6.612  0.00  0.00    -0.245 OA
ENDBRANCH  18  21
ENDBRANCH  14  18
ENDBRANCH   1  15
BRANCH   1  28
ATOM     28  N   UNL     1      -3.821   5.827   0.653  0.00  0.00    -0.295 N 
ATOM     29  C   UNL     1      -3.927   5.945   1.992  0.00  0.00    +0.245 C 
ATOM     30  O   UNL     1      -2.978   5.678   2.703  0.00  0.00    -0.270 OA
ATOM     31  H   UNL     1      -4.680   6.068   0.010  0.00  0.00    +0.150 HD
BRANCH  29  32
ATOM     32  C   UNL     1      -5.198   6.398   2.595  0.00  0.00    +0.037 A 
ATOM     33  C   UNL     1      -6.288   6.710   1.782  0.00  0.00    +0.013 A 
ATOM     34  C   UNL     1      -7.473   7.127   2.352  0.00  0.00    +0.001 A 
ATOM     35  C   UNL     1      -7.579   7.247   3.726  0.00  0.00    +0.000 A 
ATOM     36  C   UNL     1      -6.500   6.945   4.538  0.00  0.00    +0.001 A 
ATOM     37  C   UNL     1      -5.312   6.521   3.981  0.00  0.00    +0.013 A 
ENDBRANCH  29  32
ENDBRANCH   1  28
TORSDOF 6
