REMARK  Name = ZINC22561869
REMARK  4 active torsions:
REMARK  status: ('A' for Active; 'I' for Inactive)
REMARK    1  A    between atoms: C_1  and  C_2
REMARK    2  A    between atoms: C_5  and  N_9
REMARK    3  A    between atoms: C_10  and  C_12
REMARK    4  A    between atoms: C_12  and  N_13
REMARK                            x       y       z     vdW  Elec       q    Type
REMARK                         _______ _______ _______ _____ _____    ______ ____
ROOT
ATOM      1  C   UNL     1       1.728   3.285   0.003  0.00  0.00    +0.214 C 
ENDROOT
BRANCH   1   2
ATOM      2  N   UNL     1       1.277   1.891  -0.000  0.00  0.00    -0.215 N 
ATOM      3  C   UNL     1      -0.017   1.513   0.002  0.00  0.00    +0.248 C 
ATOM      4  O   UNL     1      -0.991   2.235   0.003  0.00  0.00    -0.273 OA
ATOM      5  C   UNL     1      -0.000  -0.001  -0.003  0.00  0.00    +0.122 C 
ATOM      6  C   UNL     1      -0.660  -0.537   1.266  0.00  0.00    +0.047 C 
ATOM      7  C   UNL     1      -2.173  -0.793   1.018  0.00  0.00    +0.072 C 
ATOM      8  S   UNL     1      -2.093  -1.485  -0.692  0.00  0.00    -0.158 S 
ATOM      9  C   UNL     1      -0.651  -0.515  -1.301  0.00  0.00    +0.104 C 
ATOM     10  N   UNL     1       1.433  -0.335  -0.009  0.00  0.00    -0.284 N 
ATOM     11  C   UNL     1       2.099   0.835  -0.006  0.00  0.00    +0.310 C 
ATOM     12  O   UNL     1       3.312   0.922  -0.009  0.00  0.00    -0.252 OA
ATOM     13  H   UNL     1       1.754  -1.387  -0.013  0.00  0.00    +0.151 HD
ENDBRANCH   1   2
BRANCH   1  15
ATOM     14  N   UNL     1       2.295   5.018   1.675  0.00  0.00    -0.284 N 
ATOM     15  C   UNL     1       1.887   3.758   1.425  0.00  0.00    +0.235 C 
ATOM     16  O   UNL     1       1.647   3.005   2.345  0.00  0.00    -0.274 OA
ATOM     17  H   UNL     1       2.586   5.676   0.843  0.00  0.00    +0.155 HD
BRANCH  14  22
ATOM     18  C   UNL     1       2.519   6.922   7.015  0.00  0.00    +0.045 C 
ATOM     19  C   UNL     1       2.459   6.416   5.596  0.00  0.00    -0.032 A 
ATOM     20  C   UNL     1       2.761   5.095   5.321  0.00  0.00    +0.006 A 
ATOM     21  C   UNL     1       2.708   4.628   4.023  0.00  0.00    +0.023 A 
ATOM     22  C   UNL     1       2.350   5.488   2.991  0.00  0.00    +0.035 A 
ATOM     23  C   UNL     1       2.053   6.815   3.269  0.00  0.00    +0.043 A 
ATOM     24  C   UNL     1       2.103   7.275   4.572  0.00  0.00    +0.046 A 
ATOM     25 CL   UNL     1       1.725   8.933   4.921  0.00  0.00    -0.083 Cl
ENDBRANCH  14  22
ENDBRANCH   1  15
TORSDOF 3
