REMARK  Name = ZINC66689501
REMARK  4 active torsions:
REMARK  status: ('A' for Active; 'I' for Inactive)
REMARK    1  A    between atoms: C_5  and  C_7
REMARK    2  A    between atoms: C_14  and  C_16
REMARK    3  A    between atoms: C_20  and  N_23
REMARK    4  A    between atoms: C_21  and  N_22
REMARK                            x       y       z     vdW  Elec       q    Type
REMARK                         _______ _______ _______ _____ _____    ______ ____
ROOT
ATOM      1  C   UNL     1       0.850  -2.108  -0.433  0.00  0.00    +0.168 C 
ATOM      2  C   UNL     1       1.237  -2.682  -1.800  0.00  0.00    +0.144 C 
ATOM      3  N   UNL     1       1.086  -4.145  -1.749  0.00  0.00    -0.292 N 
ATOM      4  C   UNL     1      -0.184  -4.691  -1.246  0.00  0.00    +0.136 C 
ATOM      5  C   UNL     1      -0.502  -4.019   0.095  0.00  0.00    +0.179 C 
ATOM      6  O   UNL     1      -0.440  -2.600  -0.063  0.00  0.00    -0.369 OA
ATOM      7  C   UNL     1       2.080  -4.960  -2.152  0.00  0.00    +0.249 C 
ATOM      8  O   UNL     1       3.094  -4.491  -2.633  0.00  0.00    -0.270 OA
ENDROOT
BRANCH   1  13
ATOM      9  C   UNL     1      -0.419   1.426  -0.828  0.00  0.00    +0.001 A 
ATOM     10  C   UNL     1       0.741   2.158  -0.656  0.00  0.00    +0.003 A 
ATOM     11  C   UNL     1       1.937   1.511  -0.412  0.00  0.00    +0.039 A 
ATOM     12  C   UNL     1       1.974   0.129  -0.339  0.00  0.00    +0.129 A 
ATOM     13  C   UNL     1       0.812  -0.603  -0.511  0.00  0.00    +0.018 A 
ATOM     14  C   UNL     1      -0.384   0.046  -0.756  0.00  0.00    +0.009 A 
ATOM     15  F   UNL     1       3.143  -0.505  -0.100  0.00  0.00    -0.205 F 
ENDBRANCH   1  13
BRANCH   7  16
ATOM     16  C   UNL     1       1.940  -6.421  -2.010  0.00  0.00    +0.062 A 
ATOM     17  C   UNL     1       0.814  -7.072  -2.523  0.00  0.00    +0.053 A 
ATOM     18  C   UNL     1       0.688  -8.438  -2.386  0.00  0.00    +0.126 A 
ATOM     19  C   UNL     1       1.675  -9.171  -1.742  0.00  0.00    +0.073 A 
ATOM     20  C   UNL     1       2.791  -8.542  -1.232  0.00  0.00    +0.150 A 
ATOM     21  C   UNL     1       2.938  -7.167  -1.366  0.00  0.00    +0.068 A 
ATOM     22  F   UNL     1      -0.401  -9.066  -2.882  0.00  0.00    -0.205 F 
BRANCH  21  23
ATOM     23  N   UNL     1       4.065  -6.532  -0.857  0.00  0.00    -0.356 N 
ATOM     24  H   UNL     1       4.025  -5.594  -0.615  0.00  0.00    +0.142 HD
ATOM     25  H   UNL     1       4.892  -7.027  -0.746  0.00  0.00    +0.142 HD
ENDBRANCH  21  23
BRANCH  20  26
ATOM     26  N   UNL     1       3.837  -9.333  -0.546  0.00  0.00    +0.058 N 
ATOM     27  O   UNL     1       3.775 -10.541  -0.539  0.00  0.00    -0.126 OA
ATOM     28  O   UNL     1       4.754  -8.772   0.008  0.00  0.00    -0.126 OA
ENDBRANCH  20  26
ENDBRANCH   7  16
TORSDOF 4
