REMARK  Name = ZINC00127173
REMARK  6 active torsions:
REMARK  status: ('A' for Active; 'I' for Inactive)
REMARK    1  A    between atoms: C_1  and  C_2
REMARK    2  A    between atoms: C_2  and  C_3
REMARK    3  A    between atoms: N_5  and  C_6
REMARK    4  A    between atoms: C_7  and  C_14
REMARK    5  A    between atoms: N_16  and  C_17
REMARK    6  A    between atoms: C_20  and  C_23
REMARK                            x       y       z     vdW  Elec       q    Type
REMARK                         _______ _______ _______ _____ _____    ______ ____
ROOT
ATOM      1  C   UNL     1      -0.095   1.534   0.202  0.00  0.00    +0.084 A 
ATOM      2  C   UNL     1      -1.183   2.374   0.032  0.00  0.00    +0.069 A 
ATOM      3  C   UNL     1      -0.917   3.803  -0.132  0.00  0.00    -0.023 A 
ATOM      4  C   UNL     1       0.383   4.148  -0.105  0.00  0.00    -0.004 A 
ATOM      5  S   UNL     1       1.252   2.618   0.136  0.00  0.00    -0.077 S 
ATOM      6  C   UNL     1       0.577   5.630  -0.281  0.00  0.00    +0.043 C 
ATOM      7  C   UNL     1      -0.812   6.241   0.009  0.00  0.00    +0.010 C 
ATOM      8  C   UNL     1      -1.750   5.068  -0.340  0.00  0.00    +0.037 C 
ENDROOT
BRANCH   1  11
ATOM      9  C   UNL     1       1.082  -0.495   0.523  0.00  0.00    +0.217 C 
ATOM     10  O   UNL     1       2.127   0.119   0.501  0.00  0.00    -0.275 OA
ATOM     11  N   UNL     1      -0.087   0.159   0.377  0.00  0.00    -0.279 N 
ATOM     12  H   UNL     1      -0.923  -0.332   0.395  0.00  0.00    +0.155 HD
BRANCH   9  14
ATOM     13  C   UNL     1       2.534  -2.478   0.853  0.00  0.00    +0.013 C 
ATOM     14  C   UNL     1       1.091  -1.990   0.714  0.00  0.00    +0.093 C 
ENDBRANCH   9  14
ENDBRANCH   1  11
BRANCH   2  15
ATOM     15  C   UNL     1      -2.552   1.850   0.018  0.00  0.00    +0.251 C 
ATOM     16  O   UNL     1      -3.182   1.766   1.056  0.00  0.00    -0.270 OA
ATOM     17  N   UNL     1      -3.114   1.461  -1.144  0.00  0.00    -0.281 N 
ATOM     18  H   UNL     1      -2.642   1.599  -1.980  0.00  0.00    +0.155 HD
BRANCH  17  19
ATOM     19  C   UNL     1      -4.376   0.860  -1.144  0.00  0.00    +0.034 A 
ATOM     20  C   UNL     1      -4.761   0.049  -0.083  0.00  0.00    +0.023 A 
ATOM     21  C   UNL     1      -6.010  -0.540  -0.084  0.00  0.00    +0.005 A 
ATOM     22  C   UNL     1      -6.874  -0.331  -1.144  0.00  0.00    -0.050 A 
ATOM     23  C   UNL     1      -6.492   0.471  -2.203  0.00  0.00    +0.005 A 
ATOM     24  C   UNL     1      -5.246   1.067  -2.206  0.00  0.00    +0.023 A 
ATOM     25  C   UNL     1      -8.234  -0.980  -1.144  0.00  0.00    +0.044 C 
ENDBRANCH  17  19
ENDBRANCH   2  15
TORSDOF 4
