REMARK  Name = ZINC04087051
REMARK  6 active torsions:
REMARK  status: ('A' for Active; 'I' for Inactive)
REMARK    1  A    between atoms: C_1  and  C_2
REMARK    2  A    between atoms: C_2  and  N_52
REMARK    3  A    between atoms: C_8  and  N_13
REMARK    4  A    between atoms: C_9  and  C_10
REMARK    5  A    between atoms: C_14  and  C_16
REMARK    6  A    between atoms: C_19  and  C_22
REMARK                            x       y       z     vdW  Elec       q    Type
REMARK                         _______ _______ _______ _____ _____    ______ ____
ROOT
ATOM      1  C   UNL     1       5.827   3.025  -0.482  0.00  0.00    -0.074 C 
ATOM      2  C   UNL     1       5.041   1.787  -0.041  0.00  0.00    +0.018 C 
ATOM      3  C   UNL     1       3.560   2.147  -0.021  0.00  0.00    -0.027 A 
ATOM      4  C   UNL     1       3.177   3.444  -0.010  0.00  0.00    -0.021 A 
ATOM      5  S   UNL     1       1.409   3.393  -0.001  0.00  0.00    -0.079 S 
ATOM      6  C   UNL     1       1.179   1.675  -0.000  0.00  0.00    +0.085 A 
ATOM      7  C   UNL     1       2.477   1.181  -0.015  0.00  0.00    +0.068 A 
ATOM      8  C   UNL     1       4.080   4.637  -0.011  0.00  0.00    -0.035 C 
ATOM      9  N   UNL     1       5.441   4.176   0.360  0.00  0.00    +0.383 N 
ATOM     10  H   UNL     1       5.438   3.884   1.344  0.00  0.00    -0.081 HD
ENDROOT
BRANCH   7  11
ATOM     11  C   UNL     1       2.744  -0.261  -0.025  0.00  0.00    +0.244 C 
ATOM     12  O   UNL     1       2.844  -0.854  -1.083  0.00  0.00    -0.270 OA
ATOM     13  N   UNL     1       2.878  -0.929   1.137  0.00  0.00    -0.325 N 
ATOM     14  H   UNL     1       2.798  -0.457   1.981  0.00  0.00    +0.145 HD
ATOM     15  H   UNL     1       3.054  -1.883   1.131  0.00  0.00    +0.145 HD
ENDBRANCH   7  11
BRANCH   6  16
ATOM     16  N   UNL     1      -0.011   0.966   0.007  0.00  0.00    -0.275 N 
ATOM     17  C   UNL     1      -1.187   1.624   0.017  0.00  0.00    +0.249 C 
ATOM     18  O   UNL     1      -1.204   2.839   0.023  0.00  0.00    -0.270 OA
ATOM     19  H   UNL     1       0.002  -0.004   0.002  0.00  0.00    +0.156 HD
BRANCH  17  20
ATOM     20  C   UNL     1      -2.456   0.868   0.018  0.00  0.00    +0.037 A 
ATOM     21  C   UNL     1      -2.438  -0.529   0.005  0.00  0.00    +0.013 A 
ATOM     22  C   UNL     1      -3.621  -1.232   0.012  0.00  0.00    +0.009 A 
ATOM     23  C   UNL     1      -4.838  -0.551   0.022  0.00  0.00    -0.018 A 
ATOM     24  C   UNL     1      -4.858   0.844   0.030  0.00  0.00    +0.009 A 
ATOM     25  C   UNL     1      -3.676   1.550   0.028  0.00  0.00    +0.013 A 
BRANCH  23  26
ATOM     26  C   UNL     1      -6.112  -1.310   0.024  0.00  0.00    -0.018 A 
ATOM     27  C   UNL     1      -7.330  -0.632   0.039  0.00  0.00    +0.008 A 
ATOM     28  C   UNL     1      -8.513  -1.343   0.035  0.00  0.00    +0.001 A 
ATOM     29  C   UNL     1      -8.491  -2.726   0.028  0.00  0.00    +0.000 A 
ATOM     30  C   UNL     1      -7.285  -3.404   0.018  0.00  0.00    +0.001 A 
ATOM     31  C   UNL     1      -6.096  -2.703   0.017  0.00  0.00    +0.008 A 
ENDBRANCH  23  26
ENDBRANCH  17  20
ENDBRANCH   6  16
BRANCH   9  33
ATOM     32  C   UNL     1       6.522   5.668  -1.287  0.00  0.00    -0.017 C 
ATOM     33  C   UNL     1       6.412   5.277   0.188  0.00  0.00    -0.082 C 
ENDBRANCH   9  33
TORSDOF 5
