REMARK  Name = ZINC13445293
REMARK  9 active torsions:
REMARK  status: ('A' for Active; 'I' for Inactive)
REMARK    1  A    between atoms: C_1  and  O_2
REMARK    2  A    between atoms: O_2  and  C_3
REMARK    3  A    between atoms: C_8  and  C_9
REMARK    4  A    between atoms: C_12  and  C_15
REMARK    5  A    between atoms: C_15  and  CA_16
REMARK    6  A    between atoms: CA_16  and  C_18
REMARK    7  A    between atoms: CA_16  and  N_20
REMARK    8  A    between atoms: C_21  and  C_23
REMARK    9  A    between atoms: C_23  and  C_28
REMARK                            x       y       z     vdW  Elec       q    Type
REMARK                         _______ _______ _______ _____ _____    ______ ____
ROOT
ATOM      1  CA  UNL     1      -5.569   0.614   6.456  0.00  0.00    +0.191 C 
ENDROOT
BRANCH   1   2
ATOM      2  N   UNL     1      -5.150   1.740   7.293  0.00  0.00    -0.301 N 
ATOM      3  C   UNL     1      -5.996   2.766   7.514  0.00  0.00    +0.224 C 
ATOM      4  O   UNL     1      -7.065   2.805   6.943  0.00  0.00    -0.275 OA
ATOM      5  H   UNL     1      -4.265   1.748   7.688  0.00  0.00    +0.150 HD
BRANCH   3   6
ATOM      6  C   UNL     1      -5.613   3.865   8.472  0.00  0.00    +0.073 C 
ATOM      7  C   UNL     1      -5.149   3.262   9.809  0.00  0.00    +0.021 C 
ATOM      8  C   UNL     1      -6.114   3.795  10.890  0.00  0.00    +0.001 C 
ATOM      9  C   UNL     1      -7.400   4.158  10.107  0.00  0.00    +0.001 C 
ATOM     10  C   UNL     1      -6.842   4.744   8.786  0.00  0.00    +0.021 C 
BRANCH   6  11
ATOM     11  C   UNL     1      -4.514   4.708   7.877  0.00  0.00    -0.016 A 
ATOM     12  C   UNL     1      -3.241   4.158   7.672  0.00  0.00    +0.011 A 
ATOM     13  C   UNL     1      -2.258   4.934   7.132  0.00  0.00    +0.070 A 
ATOM     14  C   UNL     1      -2.544   6.268   6.793  0.00  0.00    +0.249 A 
ATOM     15  O   UNL     1      -1.673   6.974   6.309  0.00  0.00    -0.268 OA
ATOM     16  N   UNL     1      -3.777   6.767   7.001  0.00  0.00    -0.329 N 
ATOM     17  H   UNL     1      -3.967   7.689   6.765  0.00  0.00    +0.168 HD
ATOM     18  C   UNL     1      -4.758   5.995   7.534  0.00  0.00    +0.090 A 
ENDBRANCH   6  11
ENDBRANCH   3   6
ENDBRANCH   1   2
BRANCH   1  19
ATOM     19  C   UNL     1      -6.327  -0.382   7.295  0.00  0.00    +0.376 C 
ATOM     20  O   UNL     1      -6.500  -0.172   8.473  0.00  0.00    -0.244 OA
ATOM     21  OXT UNL     1      -6.810  -1.502   6.736  0.00  0.00    -0.244 OA
ENDBRANCH   1  19
BRANCH   1  22
ATOM     22  C   UNL     1      -4.335  -0.061   5.855  0.00  0.00    +0.069 C 
BRANCH  22  26
ATOM     23  C   UNL     1      -2.376   2.656   3.198  0.00  0.00    -0.014 A 
ATOM     24  C   UNL     1      -3.370   1.804   2.719  0.00  0.00    +0.009 A 
ATOM     25  C   UNL     1      -3.995   0.925   3.580  0.00  0.00    +0.004 A 
ATOM     26  C   UNL     1      -3.644   0.896   4.918  0.00  0.00    -0.045 A 
ATOM     27  C   UNL     1      -2.662   1.743   5.400  0.00  0.00    +0.004 A 
ATOM     28  C   UNL     1      -2.026   2.622   4.546  0.00  0.00    +0.009 A 
BRANCH  23  34
ATOM     29  C   UNL     1      -1.164   3.139   1.068  0.00  0.00    +0.128 A 
ATOM     30  C   UNL     1      -0.536   4.028   0.210  0.00  0.00    +0.046 A 
ATOM     31  C   UNL     1      -0.432   5.363   0.552  0.00  0.00    +0.004 A 
ATOM     32  C   UNL     1      -0.954   5.820   1.749  0.00  0.00    +0.001 A 
ATOM     33  C   UNL     1      -1.582   4.946   2.612  0.00  0.00    +0.012 A 
ATOM     34  C   UNL     1      -1.697   3.599   2.276  0.00  0.00    +0.024 A 
BRANCH  29  36
ATOM     35  C   UNL     1      -0.704   1.430  -0.519  0.00  0.00    +0.277 C 
ATOM     36  O   UNL     1      -1.266   1.826   0.734  0.00  0.00    -0.495 OA
ENDBRANCH  29  36
ENDBRANCH  23  34
ENDBRANCH  22  26
ENDBRANCH   1  22
TORSDOF 8
