REMARK  Name = ZINC12531489
REMARK  10 active torsions:
REMARK  status: ('A' for Active; 'I' for Inactive)
REMARK    1  A    between atoms: C_1  and  C_2
REMARK    2  A    between atoms: C_7  and  N_77
REMARK    3  A    between atoms: C_10  and  N_77
REMARK    4  A    between atoms: C_13  and  C_33
REMARK    5  A    between atoms: C_13  and  C_34
REMARK    6  A    between atoms: C_16  and  C_23
REMARK    7  A    between atoms: C_19  and  C_21
REMARK    8  A    between atoms: C_19  and  O_22
REMARK    9  A    between atoms: C_23  and  C_24
REMARK   10  A    between atoms: C_24  and  C_25
REMARK                            x       y       z     vdW  Elec       q    Type
REMARK                         _______ _______ _______ _____ _____    ______ ____
ROOT
ATOM      1  C   UNL     1       2.627   4.116   0.286  0.00  0.00    -0.064 C 
ATOM      2  C   UNL     1       3.591   4.532  -0.844  0.00  0.00    -0.009 C 
ATOM      3  C   UNL     1       3.345   6.050  -1.051  0.00  0.00    -0.033 C 
ATOM      4  C   UNL     1       2.792   6.567   0.280  0.00  0.00    +0.002 C 
ATOM      5  C   UNL     1       2.494   5.378   1.165  0.00  0.00    -0.038 C 
ATOM      6  C   UNL     1       3.357   5.236   2.397  0.00  0.00    +0.008 C 
ATOM      7  C   UNL     1       3.598   6.569   3.091  0.00  0.00    +0.035 C 
ATOM      8  C   UNL     1       4.278   7.542   2.134  0.00  0.00    +0.064 C 
ATOM      9  C   UNL     1       3.465   7.750   0.877  0.00  0.00    +0.039 C 
ATOM     10  C   UNL     1       5.680   7.043   1.788  0.00  0.00    +0.041 C 
ATOM     11  C   UNL     1       4.658   6.708  -1.481  0.00  0.00    +0.011 C 
ATOM     12  C   UNL     1       2.301   6.249  -2.166  0.00  0.00    +0.011 C 
ENDROOT
BRANCH   1  13
ATOM     13  N   UNL     1       1.311   3.713  -0.246  0.00  0.00    +0.383 N 
ATOM     14  H   UNL     1       0.580   3.967   0.429  0.00  0.00    -0.085 HD
ATOM     15  H   UNL     1       1.141   4.200  -1.134  0.00  0.00    -0.085 HD
BRANCH  13  22
ATOM     16  C   UNL     1       0.799  -1.034  -4.194  0.00  0.00    +0.109 C 
ATOM     17  C   UNL     1       0.021  -0.792  -2.926  0.00  0.00    +0.212 C 
ATOM     18  O   UNL     1      -1.093  -1.256  -2.800  0.00  0.00    -0.276 OA
ATOM     19  N   UNL     1       0.562  -0.061  -1.932  0.00  0.00    -0.302 N 
ATOM     20  C   UNL     1      -0.223   0.275  -0.736  0.00  0.00    +0.106 C 
ATOM     21  C   UNL     1      -0.181   1.792  -0.529  0.00  0.00    +0.003 C 
ATOM     22  C   UNL     1       1.276   2.256  -0.475  0.00  0.00    -0.069 C 
ATOM     23  C   UNL     1       1.966   1.931  -1.802  0.00  0.00    +0.003 C 
ATOM     24  C   UNL     1       1.950   0.415  -2.023  0.00  0.00    +0.106 C 
ENDBRANCH  13  22
ENDBRANCH   1  13
BRANCH   8  25
ATOM     25  O   UNL     1       4.412   8.811   2.795  0.00  0.00    -0.389 OA
ATOM     26  H   UNL     1       4.922   8.775   3.616  0.00  0.00    +0.210 HD
ENDBRANCH   8  25
BRANCH   5  27
ATOM     27  C   UNL     1       1.034   5.481   1.610  0.00  0.00    +0.015 C 
BRANCH  27  28
ATOM     28  C   UNL     1       0.678   4.269   2.474  0.00  0.00    +0.096 C 
BRANCH  28  29
ATOM     29  C   UNL     1      -0.794   4.299   2.799  0.00  0.00    +0.216 C 
ATOM     30  O   UNL     1      -1.489   5.200   2.380  0.00  0.00    -0.276 OA
ATOM     31  N   UNL     1      -1.337   3.324   3.554  0.00  0.00    -0.297 N 
ATOM     32  C   UNL     1      -0.514   2.217   4.069  0.00  0.00    +0.136 C 
ATOM     33  C   UNL     1      -0.771   2.091   5.579  0.00  0.00    +0.179 C 
ATOM     34  O   UNL     1      -2.179   1.995   5.808  0.00  0.00    -0.377 OA
ATOM     35  C   UNL     1      -2.919   3.148   5.399  0.00  0.00    +0.179 C 
ATOM     36  C   UNL     1      -2.771   3.331   3.885  0.00  0.00    +0.136 C 
ENDBRANCH  28  29
ENDBRANCH  27  28
ENDBRANCH   5  27
TORSDOF 6
