REMARK  Name = ZINC40684112
REMARK  11 active torsions:
REMARK  status: ('A' for Active; 'I' for Inactive)
REMARK    1  A    between atoms: C_1  and  C_2
REMARK    2  A    between atoms: C_5  and  O_36
REMARK    3  A    between atoms: C_6  and  N_8
REMARK    4  A    between atoms: C_10  and  N_35
REMARK    5  A    between atoms: C_11  and  N_15
REMARK    6  A    between atoms: N_15  and  C_16
REMARK    7  A    between atoms: C_19  and  C_23
REMARK    8  A    between atoms: C_21  and  C_22
REMARK    9  A    between atoms: C_23  and  C_25
REMARK   10  A    between atoms: C_23  and  C_27
REMARK   11  A    between atoms: O_36  and  C_37
REMARK                            x       y       z     vdW  Elec       q    Type
REMARK                         _______ _______ _______ _____ _____    ______ ____
ROOT
ATOM      1  N   UNL     1       3.336   0.118   2.322  0.00  0.00    -0.295 N 
ATOM      2  C   UNL     1       2.802   0.387   3.577  0.00  0.00    +0.149 A 
ATOM      3  C   UNL     1       2.802  -0.592   4.572  0.00  0.00    +0.106 A 
ATOM      4  C   UNL     1       2.253  -0.269   5.815  0.00  0.00    +0.149 A 
ATOM      5  N   UNL     1       1.754   0.951   6.001  0.00  0.00    -0.219 NA
ATOM      6  C   UNL     1       1.774   1.846   5.035  0.00  0.00    +0.225 A 
ATOM      7  N   UNL     1       2.287   1.584   3.850  0.00  0.00    -0.219 NA
ATOM      8  H   UNL     1       3.794  -0.722   2.160  0.00  0.00    +0.154 HD
ENDROOT
BRANCH   1  14
ATOM      9  C   UNL     1       0.932   3.909   0.318  0.00  0.00    +0.044 C 
ATOM     10  C   UNL     1       2.058   2.908   0.295  0.00  0.00    -0.048 A 
ATOM     11  C   UNL     1       2.970   2.920  -0.745  0.00  0.00    +0.007 A 
ATOM     12  C   UNL     1       4.006   2.004  -0.771  0.00  0.00    +0.048 A 
ATOM     13  C   UNL     1       4.132   1.071   0.245  0.00  0.00    +0.141 A 
ATOM     14  C   UNL     1       3.214   1.059   1.292  0.00  0.00    +0.075 A 
ATOM     15  C   UNL     1       2.180   1.984   1.315  0.00  0.00    +0.030 A 
BRANCH  13  16
ATOM     16  O   UNL     1       5.150   0.170   0.220  0.00  0.00    -0.493 OA
ATOM     17  C   UNL     1       6.053   0.242  -0.885  0.00  0.00    +0.277 C 
ENDBRANCH  13  16
ENDBRANCH   1  14
BRANCH   3  18
ATOM     18  N   UNL     1       3.339  -1.866   4.331  0.00  0.00    -0.353 N 
ATOM     19  H   UNL     1       3.717  -2.077   3.463  0.00  0.00    +0.143 HD
ATOM     20  H   UNL     1       3.333  -2.536   5.032  0.00  0.00    +0.143 HD
ENDBRANCH   3  18
BRANCH   4  21
ATOM     21  N   UNL     1       2.228  -1.207   6.841  0.00  0.00    -0.298 N 
ATOM     22  H   UNL     1       2.510  -2.119   6.671  0.00  0.00    +0.154 HD
BRANCH  21  23
ATOM     23  C   UNL     1       1.795  -0.835   8.117  0.00  0.00    +0.037 A 
ATOM     24  C   UNL     1       1.897   0.488   8.528  0.00  0.00    +0.043 A 
ATOM     25  C   UNL     1       1.469   0.852   9.790  0.00  0.00    +0.047 A 
ATOM     26  C   UNL     1       0.938  -0.100  10.644  0.00  0.00    -0.008 A 
ATOM     27  C   UNL     1       0.836  -1.417  10.236  0.00  0.00    +0.011 A 
ATOM     28  C   UNL     1       1.257  -1.786   8.974  0.00  0.00    -0.029 A 
ATOM     29  C   UNL     1       1.138  -3.221   8.529  0.00  0.00    +0.045 C 
ATOM     30 CL   UNL     1       1.597   2.505  10.307  0.00  0.00    -0.083 Cl
BRANCH  26  31
ATOM     31  C   UNL     1       0.472   0.300  12.020  0.00  0.00    +0.153 C 
BRANCH  31  32
ATOM     32  C   UNL     1       1.309  -0.401  13.058  0.00  0.00    -0.026 A 
ATOM     33  C   UNL     1       1.046  -1.718  13.384  0.00  0.00    +0.006 A 
ATOM     34  C   UNL     1       1.814  -2.362  14.336  0.00  0.00    +0.020 A 
ATOM     35  C   UNL     1       2.846  -1.688  14.963  0.00  0.00    +0.041 A 
ATOM     36  C   UNL     1       3.110  -0.369  14.636  0.00  0.00    +0.020 A 
ATOM     37  C   UNL     1       2.345   0.271  13.680  0.00  0.00    +0.006 A 
ATOM     38 CL   UNL     1       3.811  -2.495  16.159  0.00  0.00    -0.084 Cl
ENDBRANCH  31  32
BRANCH  31  39
ATOM     39  C   UNL     1      -0.940  -0.081  12.189  0.00  0.00    +0.075 C 
ATOM     40  N   UNL     1      -2.030  -0.375  12.320  0.00  0.00    -0.196 NA
ENDBRANCH  31  39
ENDBRANCH  26  31
ENDBRANCH  21  23
ENDBRANCH   4  21
TORSDOF 8
