REMARK  Name = ZINC03670273
REMARK  7 active torsions:
REMARK  status: ('A' for Active; 'I' for Inactive)
REMARK    1  A    between atoms: C_1  and  C_2
REMARK    2  A    between atoms: C_2  and  C_3
REMARK    3  A    between atoms: C_3  and  C_4
REMARK    4  A    between atoms: C_4  and  N_5
REMARK    5  A    between atoms: C_6  and  C_8
REMARK    6  A    between atoms: C_8  and  O_27
REMARK    7  A    between atoms: N_18  and  C_19
REMARK                            x       y       z     vdW  Elec       q    Type
REMARK                         _______ _______ _______ _____ _____    ______ ____
ROOT
ATOM      1  C   UNL     1      -2.441   4.046  -0.592  0.00  0.00    +0.247 C 
ATOM      2  C   UNL     1      -1.149   3.262  -0.561  0.00  0.00    +0.033 A 
ATOM      3  C   UNL     1      -1.054   2.017  -1.139  0.00  0.00    +0.010 A 
ATOM      4  C   UNL     1       0.144   1.325  -1.087  0.00  0.00    +0.001 A 
ATOM      5  C   UNL     1       1.243   1.890  -0.465  0.00  0.00    +0.002 A 
ATOM      6  C   UNL     1       1.152   3.141   0.112  0.00  0.00    +0.024 A 
ATOM      7  C   UNL     1      -0.050   3.837   0.067  0.00  0.00    +0.043 A 
ATOM      8  N   UNL     1      -0.162   5.102   0.643  0.00  0.00    -0.269 N 
ATOM      9  C   UNL     1      -1.298   5.812   0.627  0.00  0.00    +0.314 C 
ATOM     10  O   UNL     1      -1.304   6.907   1.156  0.00  0.00    -0.252 OA
ATOM     11  N   UNL     1      -2.431   5.370   0.053  0.00  0.00    -0.214 N 
ATOM     12  H   UNL     1       0.617   5.485   1.077  0.00  0.00    +0.156 HD
ENDROOT
BRANCH  11  13
ATOM     13  C   UNL     1      -3.587   6.160   0.067  0.00  0.00    +0.043 A 
ATOM     14  C   UNL     1      -4.542   5.977   1.059  0.00  0.00    +0.025 A 
ATOM     15  C   UNL     1      -5.682   6.757   1.072  0.00  0.00    +0.023 A 
ATOM     16  C   UNL     1      -5.874   7.719   0.097  0.00  0.00    +0.059 A 
ATOM     17  C   UNL     1      -4.924   7.904  -0.894  0.00  0.00    +0.061 A 
ATOM     18  C   UNL     1      -3.779   7.130  -0.907  0.00  0.00    +0.045 A 
ATOM     19 CL   UNL     1      -5.168   9.113  -2.116  0.00  0.00    -0.082 Cl
ATOM     20 CL   UNL     1      -7.308   8.697   0.115  0.00  0.00    -0.082 Cl
ENDBRANCH  11  13
BRANCH   1  22
ATOM     21  N   UNL     1      -2.014   4.886  -2.879  0.00  0.00    -0.311 N 
ATOM     22  C   UNL     1      -2.836   4.233  -2.034  0.00  0.00    +0.269 C 
ATOM     23  O   UNL     1      -3.895   3.797  -2.433  0.00  0.00    -0.270 OA
ATOM     24  H   UNL     1      -1.167   5.234  -2.559  0.00  0.00    +0.149 HD
BRANCH  21  25
ATOM     25  C   UNL     1      -2.399   5.068  -4.281  0.00  0.00    +0.104 C 
BRANCH  25  26
ATOM     26  C   UNL     1      -1.297   5.834  -5.016  0.00  0.00    +0.018 C 
BRANCH  26  28
ATOM     27  C   UNL     1      -0.598   6.790  -7.216  0.00  0.00    +0.004 C 
ATOM     28  C   UNL     1      -1.699   6.024  -6.480  0.00  0.00    -0.002 C 
ENDBRANCH  26  28
ENDBRANCH  25  26
ENDBRANCH  21  25
ENDBRANCH   1  22
BRANCH   1  29
ATOM     29  O   UNL     1      -3.451   3.256   0.039  0.00  0.00    -0.360 OA
ATOM     30  H   UNL     1      -3.608   2.404  -0.390  0.00  0.00    +0.213 HD
ENDBRANCH   1  29
TORSDOF 6
