REMARK  Name = ZINC03171234
REMARK  6 active torsions:
REMARK  status: ('A' for Active; 'I' for Inactive)
REMARK    1  A    between atoms: C_5  and  C_7
REMARK    2  A    between atoms: N_9  and  C_10
REMARK    3  A    between atoms: C_10  and  N_12
REMARK    4  A    between atoms: N_12  and  N_13
REMARK    5  A    between atoms: C_14  and  C_16
REMARK    6  A    between atoms: C_20  and  N_22
REMARK                            x       y       z     vdW  Elec       q    Type
REMARK                         _______ _______ _______ _____ _____    ______ ____
ROOT
ATOM      1  N   UNL     1      -1.033  -4.898  -0.015  0.00  0.00    -0.245 N 
ATOM      2  H   UNL     1      -1.015  -5.868  -0.020  0.00  0.00    +0.172 HD
ENDROOT
BRANCH   1   3
ATOM      3  N   UNL     1      -2.259  -4.221   0.002  0.00  0.00    -0.231 N 
ATOM      4  C   UNL     1      -3.414  -4.917   0.009  0.00  0.00    +0.260 C 
ATOM      5  O   UNL     1      -3.391  -6.132   0.002  0.00  0.00    -0.269 OA
ATOM      6  H   UNL     1      -2.277  -3.251   0.007  0.00  0.00    +0.173 HD
BRANCH   4   7
ATOM      7  C   UNL     1      -4.707  -4.202   0.027  0.00  0.00    +0.040 A 
ATOM      8  C   UNL     1      -4.737  -2.806   0.029  0.00  0.00    +0.013 A 
ATOM      9  C   UNL     1      -5.948  -2.145   0.045  0.00  0.00    +0.003 A 
ATOM     10  C   UNL     1      -7.131  -2.862   0.059  0.00  0.00    +0.033 A 
ATOM     11  C   UNL     1      -7.109  -4.245   0.057  0.00  0.00    +0.127 A 
ATOM     12  C   UNL     1      -5.905  -4.919   0.035  0.00  0.00    +0.045 A 
BRANCH  11  13
ATOM     13  N   UNL     1      -8.379  -5.005   0.071  0.00  0.00    +0.056 N 
ATOM     14  O   UNL     1      -9.435  -4.416   0.085  0.00  0.00    -0.126 OA
ATOM     15  O   UNL     1      -8.361  -6.214   0.069  0.00  0.00    -0.126 OA
ENDBRANCH  11  13
ENDBRANCH   4   7
ENDBRANCH   1   3
BRANCH   1  16
ATOM     16  C   UNL     1       0.121  -4.203  -0.022  0.00  0.00    +0.153 C 
ATOM     17  S   UNL     1       1.619  -5.031  -0.042  0.00  0.00    -0.017 S 
BRANCH  16  20
ATOM     18  C   UNL     1       1.250  -2.160  -0.022  0.00  0.00    +0.251 C 
ATOM     19  O   UNL     1       2.314  -2.747  -0.036  0.00  0.00    -0.270 OA
ATOM     20  N   UNL     1       0.096  -2.855  -0.014  0.00  0.00    -0.263 N 
ATOM     21  H   UNL     1      -0.753  -2.386  -0.003  0.00  0.00    +0.157 HD
BRANCH  18  26
ATOM     22  C   UNL     1      -0.017   1.375   0.010  0.00  0.00    +0.001 A 
ATOM     23  C   UNL     1       1.170   2.087   0.002  0.00  0.00    +0.001 A 
ATOM     24  C   UNL     1       2.383   1.423  -0.013  0.00  0.00    +0.021 A 
ATOM     25  C   UNL     1       2.417   0.042  -0.021  0.00  0.00    +0.053 A 
ATOM     26  C   UNL     1       1.222  -0.683  -0.013  0.00  0.00    +0.055 A 
ATOM     27  C   UNL     1       0.002  -0.004   0.002  0.00  0.00    +0.014 A 
ATOM     28 CL   UNL     1       3.940  -0.791  -0.042  0.00  0.00    -0.083 Cl
ENDBRANCH  18  26
ENDBRANCH  16  20
ENDBRANCH   1  16
TORSDOF 6
