REMARK  Name = ZINC13450451
REMARK  4 active torsions:
REMARK  status: ('A' for Active; 'I' for Inactive)
REMARK    1  A    between atoms: C_1  and  C_2
REMARK    2  A    between atoms: C_9  and  C_11
REMARK    3  A    between atoms: C_15  and  C_26
REMARK    4  A    between atoms: C_18  and  C_22
REMARK                            x       y       z     vdW  Elec       q    Type
REMARK                         _______ _______ _______ _____ _____    ______ ____
ROOT
ATOM      1  C   UNL     1       2.215  -0.124   3.100  0.00  0.00    +0.110 C 
ATOM      2  C   UNL     1       2.713  -1.382   3.188  0.00  0.00    +0.072 C 
ATOM      3  C   UNL     1       3.563  -1.429   4.377  0.00  0.00    +0.114 C 
ATOM      4  N   UNL     1       4.245  -2.420   4.878  0.00  0.00    -0.362 N 
ATOM      5  C   UNL     1       4.998  -2.211   6.120  0.00  0.00    +0.149 C 
ATOM      6  C   UNL     1       5.498  -0.769   6.210  0.00  0.00    +0.065 C 
ATOM      7  C   UNL     1       4.308   0.200   6.130  0.00  0.00    +0.202 C 
ATOM      8  N   UNL     1       3.538  -0.156   4.933  0.00  0.00    -0.226 N 
ATOM      9  N   UNL     1       2.700   0.633   4.155  0.00  0.00    -0.258 N 
ATOM     10  H   UNL     1       2.486   1.564   4.324  0.00  0.00    +0.170 HD
ATOM     11  H   UNL     1       4.255  -3.283   4.436  0.00  0.00    +0.162 HD
ENDROOT
BRANCH   1  19
ATOM     12  C   UNL     1       0.033   1.370  -0.102  0.00  0.00    +0.028 C 
ATOM     13  C   UNL     1      -0.375  -0.046   0.309  0.00  0.00    +0.073 C 
ATOM     14  C   UNL     1      -0.159  -1.004  -0.867  0.00  0.00    +0.022 C 
ATOM     15  C   UNL     1      -0.436  -2.438  -0.408  0.00  0.00    +0.003 C 
ATOM     16  C   UNL     1       0.540  -2.816   0.709  0.00  0.00    +0.019 C 
ATOM     17  C   UNL     1       0.332  -1.878   1.902  0.00  0.00    +0.108 C 
ATOM     18  N   UNL     1       0.451  -0.487   1.441  0.00  0.00    -0.294 N 
ATOM     19  C   UNL     1       1.304   0.365   2.042  0.00  0.00    +0.262 C 
ATOM     20  O   UNL     1       1.325   1.535   1.715  0.00  0.00    -0.269 OA
ENDBRANCH   1  19
BRANCH   5  21
ATOM     21  C   UNL     1       4.103  -2.499   7.298  0.00  0.00    +0.127 A 
ATOM     22  C   UNL     1       4.467  -3.134   8.426  0.00  0.00    +0.047 A 
ATOM     23  C   UNL     1       3.323  -3.186   9.255  0.00  0.00    +0.041 A 
ATOM     24  C   UNL     1       2.328  -2.579   8.584  0.00  0.00    +0.195 A 
ATOM     25  O   UNL     1       2.807  -2.160   7.402  0.00  0.00    -0.466 OA
ENDBRANCH   5  21
BRANCH   7  26
ATOM     26  C   UNL     1       4.814   1.639   6.018  0.00  0.00    +0.410 C 
ATOM     27  F   UNL     1       5.593   1.771   4.863  0.00  0.00    -0.169 F 
ATOM     28  F   UNL     1       3.723   2.512   5.946  0.00  0.00    -0.169 F 
ATOM     29  F   UNL     1       5.588   1.951   7.141  0.00  0.00    -0.169 F 
ENDBRANCH   7  26
TORSDOF 3
