REMARK  Name = ZINC44762952
REMARK  4 active torsions:
REMARK  status: ('A' for Active; 'I' for Inactive)
REMARK    1  A    between atoms: C_5  and  C_8
REMARK    2  A    between atoms: C_5  and  C_10
REMARK    3  A    between atoms: C_8  and  N_9
REMARK    4  A    between atoms: N_12  and  C_13
REMARK                            x       y       z     vdW  Elec       q    Type
REMARK                         _______ _______ _______ _____ _____    ______ ____
ROOT
ATOM      1  C   UNL     1      -0.144   1.341   0.069  0.00  0.00    +0.000 C 
ATOM      2  C   UNL     1       1.241   2.013  -0.023  0.00  0.00    +0.000 C 
ATOM      3  C   UNL     1       1.848   2.046   1.354  0.00  0.00    +0.001 C 
ATOM      4  C   UNL     1       2.768   0.840   1.623  0.00  0.00    +0.014 C 
ATOM      5  C   UNL     1       2.187  -0.484   1.090  0.00  0.00    +0.031 C 
ATOM      6  C   UNL     1       0.712  -0.614   1.355  0.00  0.00    +0.014 C 
ATOM      7  C   UNL     1      -0.055  -0.111   0.115  0.00  0.00    +0.001 C 
ENDROOT
BRANCH   5   8
ATOM      8  C   UNL     1       2.424  -0.557  -0.397  0.00  0.00    +0.218 C 
ATOM      9  O   UNL     1       3.130   0.266  -0.939  0.00  0.00    -0.275 OA
ATOM     10  N   UNL     1       1.851  -1.537  -1.123  0.00  0.00    -0.312 N 
ATOM     11  H   UNL     1       1.351  -2.240  -0.679  0.00  0.00    +0.149 HD
BRANCH  10  12
ATOM     12  C   UNL     1       1.984  -1.541  -2.582  0.00  0.00    +0.076 C 
ATOM     13  C   UNL     1       3.309  -2.192  -2.964  0.00  0.00    +0.045 C 
ATOM     14  C   UNL     1       3.592  -1.968  -4.452  0.00  0.00    +0.167 C 
ATOM     15  S   UNL     1       2.298  -2.790  -5.427  0.00  0.00    -0.031 S 
ATOM     16  O   UNL     1       2.401  -2.351  -6.775  0.00  0.00    -0.174 OA
ATOM     17  O   UNL     1       2.337  -4.182  -5.147  0.00  0.00    -0.174 OA
ATOM     18  C   UNL     1       0.782  -2.094  -4.707  0.00  0.00    +0.167 C 
ATOM     19  C   UNL     1       0.812  -2.305  -3.191  0.00  0.00    +0.045 C 
ENDBRANCH  10  12
ENDBRANCH   5   8
BRANCH   5  20
ATOM     20  C   UNL     1       2.915  -1.650   1.762  0.00  0.00    -0.070 C 
BRANCH  20  21
ATOM     21  N   UNL     1       4.340  -1.608   1.406  0.00  0.00    +0.379 N 
ATOM     22  H   UNL     1       4.436  -1.617   0.402  0.00  0.00    -0.090 HD
ATOM     23  H   UNL     1       4.754  -0.766   1.776  0.00  0.00    -0.090 HD
ATOM     24  H   UNL     1       4.807  -2.413   1.796  0.00  0.00    -0.090 HD
ENDBRANCH  20  21
ENDBRANCH   5  20
TORSDOF 4
