REMARK  Name = ZINC37666624
REMARK  6 active torsions:
REMARK  status: ('A' for Active; 'I' for Inactive)
REMARK    1  A    between atoms: C_1  and  N_2
REMARK    2  A    between atoms: N_2  and  C_3
REMARK    3  A    between atoms: N_2  and  C_7
REMARK    4  A    between atoms: C_3  and  C_4
REMARK    5  A    between atoms: C_4  and  C_5
REMARK    6  A    between atoms: C_9  and  N_14
REMARK                            x       y       z     vdW  Elec       q    Type
REMARK                         _______ _______ _______ _____ _____    ______ ____
ROOT
ATOM      1  C   UNL     1       0.000  -0.696  -1.211  0.00  0.00    +0.034 A 
ATOM      2  C   UNL     1      -0.015   0.004  -2.410  0.00  0.00    +0.046 A 
ATOM      3  C   UNL     1      -0.017  -0.686  -3.614  0.00  0.00    +0.029 A 
ATOM      4  C   UNL     1      -0.003  -2.075  -3.617  0.00  0.00    +0.061 A 
ATOM      5  C   UNL     1       0.012  -2.771  -2.421  0.00  0.00    +0.127 A 
ATOM      6  C   UNL     1       0.019  -2.085  -1.220  0.00  0.00    +0.061 A 
ATOM      7  F   UNL     1       0.025  -4.122  -2.427  0.00  0.00    -0.205 F 
ENDROOT
BRANCH   3   8
ATOM      8  N   UNL     1      -0.032   0.016  -4.821  0.00  0.00    -0.358 N 
ATOM      9  H   UNL     1      -0.042   0.986  -4.819  0.00  0.00    +0.142 HD
ATOM     10  H   UNL     1      -0.033  -0.467  -5.663  0.00  0.00    +0.142 HD
ENDBRANCH   3   8
BRANCH   1  12
ATOM     11  C   UNL     1      -0.018   1.461   0.010  0.00  0.00    +0.129 C 
ATOM     12  N   UNL     1       0.002  -0.004   0.002  0.00  0.00    -0.332 N 
BRANCH  12  13
ATOM     13  C   UNL     1       0.024  -0.743   1.267  0.00  0.00    +0.119 C 
BRANCH  13  14
ATOM     14  C   UNL     1      -1.411  -1.020   1.720  0.00  0.00    +0.137 C 
BRANCH  14  15
ATOM     15  C   UNL     1      -1.388  -1.763   2.991  0.00  0.00    +0.064 C 
ATOM     16  N   UNL     1      -1.371  -2.336   3.972  0.00  0.00    -0.197 NA
ENDBRANCH  14  15
ENDBRANCH  13  14
ENDBRANCH  12  13
ENDBRANCH   1  12
TORSDOF 5
