REMARK  Name = ZINC38710714
REMARK  9 active torsions:
REMARK  status: ('A' for Active; 'I' for Inactive)
REMARK    1  A    between atoms: C_1  and  C_2
REMARK    2  A    between atoms: C_2  and  C_3
REMARK    3  A    between atoms: C_2  and  C_4
REMARK    4  A    between atoms: C_4  and  N_5
REMARK    5  A    between atoms: C_9  and  N_19
REMARK    6  A    between atoms: C_14  and  C_17
REMARK    7  A    between atoms: C_14  and  C_18
REMARK    8  A    between atoms: N_19  and  S_20
REMARK    9  A    between atoms: S_20  and  C_23
REMARK                            x       y       z     vdW  Elec       q    Type
REMARK                         _______ _______ _______ _____ _____    ______ ____
ROOT
ATOM      1  N   UNL     1      -2.570   0.203  -1.145  0.00  0.00    -0.267 N 
ATOM      2  C   UNL     1      -3.071   1.461  -1.513  0.00  0.00    +0.078 A 
ATOM      3  C   UNL     1      -2.477   2.621  -1.042  0.00  0.00    +0.029 A 
ATOM      4  C   UNL     1      -2.983   3.854  -1.409  0.00  0.00    +0.029 A 
ATOM      5  C   UNL     1      -4.086   3.931  -2.250  0.00  0.00    +0.078 A 
ATOM      6  C   UNL     1      -4.683   2.771  -2.725  0.00  0.00    +0.074 A 
ATOM      7  C   UNL     1      -4.176   1.536  -2.360  0.00  0.00    +0.144 A 
ATOM      8  O   UNL     1      -4.744   0.393  -2.829  0.00  0.00    -0.489 OA
ATOM      9  C   UNL     1      -4.050  -0.302  -3.862  0.00  0.00    +0.244 C 
ATOM     10  C   UNL     1      -2.557  -0.369  -3.551  0.00  0.00    +0.076 C 
ATOM     11  C   UNL     1      -2.340  -0.723  -2.103  0.00  0.00    +0.229 C 
ATOM     12  O   UNL     1      -1.964  -1.836  -1.797  0.00  0.00    -0.275 OA
ATOM     13  C   UNL     1      -1.902  -1.432  -4.436  0.00  0.00    +0.024 C 
ATOM     14  C   UNL     1      -1.917   0.991  -3.838  0.00  0.00    +0.024 C 
ENDROOT
BRANCH   1  15
ATOM     15  C   UNL     1      -2.294  -0.102   0.261  0.00  0.00    +0.116 C 
BRANCH  15  17
ATOM     16  C   UNL     1      -4.061  -1.868   0.283  0.00  0.00    +0.009 C 
ATOM     17  C   UNL     1      -3.580  -0.574   0.942  0.00  0.00    +0.001 C 
ATOM     18  C   UNL     1      -3.307  -0.828   2.426  0.00  0.00    +0.009 C 
ENDBRANCH  15  17
ENDBRANCH   1  15
BRANCH   5  19
ATOM     19  N   UNL     1      -4.597   5.180  -2.618  0.00  0.00    -0.098 NA
BRANCH  19  20
ATOM     20  S   UNL     1      -3.887   6.565  -2.051  0.00  0.00    +0.097 S 
ATOM     21  O   UNL     1      -4.100   6.585  -0.647  0.00  0.00    -0.148 OA
ATOM     22  O   UNL     1      -2.589   6.620  -2.626  0.00  0.00    -0.148 OA
BRANCH  20  23
ATOM     23  C   UNL     1      -4.790   7.924  -2.717  0.00  0.00    +0.180 A 
ATOM     24  C   UNL     1      -4.422   8.471  -3.934  0.00  0.00    +0.153 A 
ATOM     25  C   UNL     1      -5.133   9.539  -4.456  0.00  0.00    +0.040 A 
ATOM     26  C   UNL     1      -6.209  10.058  -3.762  0.00  0.00    +0.006 A 
ATOM     27  C   UNL     1      -6.578   9.513  -2.547  0.00  0.00    +0.040 A 
ATOM     28  C   UNL     1      -5.872   8.441  -2.026  0.00  0.00    +0.153 A 
ATOM     29  F   UNL     1      -6.237   7.904  -0.841  0.00  0.00    -0.203 F 
ATOM     30  F   UNL     1      -3.369   7.964  -4.612  0.00  0.00    -0.203 F 
ENDBRANCH  20  23
ENDBRANCH  19  20
ENDBRANCH   5  19
TORSDOF 5
