REMARK  Name = ZINC39677447
REMARK  4 active torsions:
REMARK  status: ('A' for Active; 'I' for Inactive)
REMARK    1  A    between atoms: C_6  and  C_7
REMARK    2  A    between atoms: C_7  and  N_8
REMARK    3  A    between atoms: C_9  and  C_11
REMARK    4  A    between atoms: C_22  and  C_24
REMARK                            x       y       z     vdW  Elec       q    Type
REMARK                         _______ _______ _______ _____ _____    ______ ____
ROOT
ATOM      1  C   UNL     1      -3.309  -1.941  -3.029  0.00  0.00    +0.100 C 
ATOM      2  C   UNL     1      -2.220  -2.713  -3.806  0.00  0.00    +0.121 C 
ATOM      3  N   UNL     1      -2.619  -4.136  -3.695  0.00  0.00    -0.300 N 
ATOM      4  C   UNL     1      -4.096  -4.116  -3.831  0.00  0.00    +0.115 C 
ATOM      5  C   UNL     1      -4.540  -2.863  -3.051  0.00  0.00    -0.004 C 
ATOM      6  C   UNL     1      -5.700  -2.179  -3.768  0.00  0.00    -0.010 C 
ATOM      7  C   UNL     1      -6.929  -3.091  -3.726  0.00  0.00    -0.082 C 
ATOM      8  N   UNL     1      -7.286  -3.371  -2.329  0.00  0.00    +0.379 N 
ATOM      9  C   UNL     1      -6.201  -4.112  -1.674  0.00  0.00    -0.082 C 
ATOM     10  C   UNL     1      -4.942  -3.242  -1.629  0.00  0.00    -0.010 C 
ATOM     11  C   UNL     1      -1.821  -5.207  -3.512  0.00  0.00    +0.219 C 
ATOM     12  O   UNL     1      -2.303  -6.317  -3.442  0.00  0.00    -0.275 OA
ATOM     13  H   UNL     1      -7.440  -2.501  -1.842  0.00  0.00    -0.086 HD
ATOM     14  H   UNL     1      -8.131  -3.922  -2.304  0.00  0.00    -0.086 HD
ENDROOT
BRANCH   1  16
ATOM     15  N   UNL     1      -3.325  -0.617  -0.940  0.00  0.00    -0.311 N 
ATOM     16  C   UNL     1      -2.866  -1.692  -1.611  0.00  0.00    +0.218 C 
ATOM     17  O   UNL     1      -2.095  -2.458  -1.073  0.00  0.00    -0.275 OA
ATOM     18  H   UNL     1      -3.942  -0.004  -1.370  0.00  0.00    +0.149 HD
BRANCH  15  19
ATOM     19  C   UNL     1      -2.894  -0.375   0.439  0.00  0.00    +0.139 C 
BRANCH  19  25
ATOM     20  C   UNL     1      -4.770   0.809   1.596  0.00  0.00    +0.009 A 
ATOM     21  C   UNL     1      -5.373   1.959   2.071  0.00  0.00    +0.050 A 
ATOM     22  C   UNL     1      -4.751   3.188   1.907  0.00  0.00    +0.162 A 
ATOM     23  C   UNL     1      -3.520   3.260   1.266  0.00  0.00    +0.162 A 
ATOM     24  C   UNL     1      -2.921   2.103   0.791  0.00  0.00    +0.054 A 
ATOM     25  C   UNL     1      -3.547   0.881   0.957  0.00  0.00    -0.027 A 
ATOM     26  O   UNL     1      -2.889   4.454   1.102  0.00  0.00    -0.485 OA
ATOM     27  C   UNL     1      -3.689   5.631   1.258  0.00  0.00    +0.270 C 
ATOM     28  C   UNL     1      -4.535   5.473   2.528  0.00  0.00    +0.270 C 
ATOM     29  O   UNL     1      -5.359   4.312   2.376  0.00  0.00    -0.485 OA
ENDBRANCH  19  25
ENDBRANCH  15  19
ENDBRANCH   1  16
BRANCH  11  30
ATOM     30  C   UNL     1      -0.330  -5.023  -3.396  0.00  0.00    +0.075 C 
ATOM     31  C   UNL     1       0.385  -4.909  -4.753  0.00  0.00    +0.013 C 
ATOM     32  C   UNL     1       1.502  -5.776  -4.148  0.00  0.00    +0.001 C 
ATOM     33  C   UNL     1       0.439  -6.339  -3.190  0.00  0.00    +0.013 C 
ENDBRANCH  11  30
TORSDOF 4
