REMARK  Name = ZINC48817036
REMARK  3 active torsions:
REMARK  status: ('A' for Active; 'I' for Inactive)
REMARK    1  A    between atoms: C_9  and  C_12
REMARK    2  A    between atoms: N_14  and  C_15
REMARK    3  A    between atoms: C_15  and  C_16
REMARK                            x       y       z     vdW  Elec       q    Type
REMARK                         _______ _______ _______ _____ _____    ______ ____
ROOT
ATOM      1  C   UNL     1       4.898  -2.639  -0.071  0.00  0.00    +0.257 C 
ATOM      2  O   UNL     1       5.727  -1.999  -0.682  0.00  0.00    -0.272 OA
ATOM      3  N   UNL     1       5.143  -3.925   0.251  0.00  0.00    -0.308 N 
ATOM      4  H   UNL     1       4.479  -4.437   0.740  0.00  0.00    +0.149 HD
ENDROOT
BRANCH   1  13
ATOM      5  C   UNL     1      -0.017   1.378   0.010  0.00  0.00    +0.004 A 
ATOM      6  C   UNL     1       1.170   2.088   0.002  0.00  0.00    +0.004 A 
ATOM      7  C   UNL     1       2.378   1.418  -0.014  0.00  0.00    +0.049 A 
ATOM      8  C   UNL     1       2.404   0.031  -0.023  0.00  0.00    +0.163 A 
ATOM      9  C   UNL     1       1.212  -0.683  -0.013  0.00  0.00    +0.162 A 
ATOM     10  C   UNL     1       0.002  -0.004   0.002  0.00  0.00    +0.049 A 
ATOM     11  O   UNL     1       1.214  -2.044  -0.013  0.00  0.00    -0.484 OA
ATOM     12  C   UNL     1       2.434  -2.685  -0.404  0.00  0.00    +0.283 C 
ATOM     13  C   UNL     1       3.594  -1.997   0.328  0.00  0.00    +0.296 C 
ATOM     14  O   UNL     1       3.602  -0.615  -0.043  0.00  0.00    -0.473 OA
ENDBRANCH   1  13
BRANCH   3  15
ATOM     15  C   UNL     1       6.410  -4.549  -0.137  0.00  0.00    +0.139 C 
BRANCH  15  16
ATOM     16  C   UNL     1       6.433  -5.979   0.340  0.00  0.00    -0.030 A 
ATOM     17  C   UNL     1       6.928  -6.281   1.595  0.00  0.00    +0.006 A 
ATOM     18  C   UNL     1       6.948  -7.592   2.032  0.00  0.00    +0.015 A 
ATOM     19  C   UNL     1       6.473  -8.601   1.214  0.00  0.00    +0.018 A 
ATOM     20  C   UNL     1       5.978  -8.298  -0.042  0.00  0.00    +0.015 A 
ATOM     21  C   UNL     1       5.953  -6.986  -0.476  0.00  0.00    +0.006 A 
ATOM     22 BR   UNL     1       6.501 -10.395   1.812  0.00  0.00    -0.050 Br
ENDBRANCH  15  16
ENDBRANCH   3  15
TORSDOF 3
