REMARK  Name = ZINC45141712
REMARK  5 active torsions:
REMARK  status: ('A' for Active; 'I' for Inactive)
REMARK    1  A    between atoms: C_1  and  C_2
REMARK    2  A    between atoms: C_2  and  C_16
REMARK    3  A    between atoms: C_4  and  N_6
REMARK    4  A    between atoms: N_6  and  C_7
REMARK    5  A    between atoms: C_7  and  C_13
REMARK                            x       y       z     vdW  Elec       q    Type
REMARK                         _______ _______ _______ _____ _____    ______ ____
ROOT
ATOM      1  C   UNL     1       2.023  -0.707   3.169  0.00  0.00    +0.036 C 
ATOM      2  C   UNL     1       3.125  -1.480   2.442  0.00  0.00    -0.001 C 
ATOM      3  C   UNL     1       4.100  -0.493   1.798  0.00  0.00    -0.001 C 
ATOM      4  C   UNL     1       4.725   0.387   2.882  0.00  0.00    -0.000 C 
ATOM      5  C   UNL     1       3.623   1.160   3.609  0.00  0.00    -0.001 C 
ATOM      6  C   UNL     1       2.648   0.173   4.253  0.00  0.00    -0.001 C 
ENDROOT
BRANCH   1   7
ATOM      7  N   UNL     1       1.301   0.138   2.208  0.00  0.00    +0.392 N 
ATOM      8  H   UNL     1       1.945   0.789   1.783  0.00  0.00    -0.084 HD
ATOM      9  H   UNL     1       0.575   0.647   2.688  0.00  0.00    -0.084 HD
BRANCH   7  13
ATOM     10  C   UNL     1      -0.019   1.526   0.010  0.00  0.00    +0.009 C 
ATOM     11  C   UNL     1       0.002  -0.004   0.002  0.00  0.00    -0.049 C 
ATOM     12  C   UNL     1      -0.825  -0.728   1.066  0.00  0.00    -0.011 C 
ATOM     13  C   UNL     1       0.701  -0.708   1.167  0.00  0.00    -0.064 C 
ATOM     14  C   UNL     1       0.102  -0.655  -1.379  0.00  0.00    +0.009 C 
ENDBRANCH   7  13
ENDBRANCH   1   7
BRANCH   1  15
ATOM     15  C   UNL     1       1.062  -1.680   3.803  0.00  0.00    +0.345 C 
ATOM     16  O   UNL     1      -0.115  -1.670   3.485  0.00  0.00    -0.248 OA
ATOM     17  O   UNL     1       1.462  -2.476   4.636  0.00  0.00    -0.248 OA
ENDBRANCH   1  15
TORSDOF 3
