REMARK  Name = ZINC45622940
REMARK  7 active torsions:
REMARK  status: ('A' for Active; 'I' for Inactive)
REMARK    1  A    between atoms: C_1  and  C_2
REMARK    2  A    between atoms: C_2  and  C_3
REMARK    3  A    between atoms: C_2  and  C_4
REMARK    4  A    between atoms: C_2  and  N_6
REMARK    5  A    between atoms: C_4  and  O_5
REMARK    6  A    between atoms: C_7  and  C_9
REMARK    7  A    between atoms: C_11  and  N_16
REMARK                            x       y       z     vdW  Elec       q    Type
REMARK                         _______ _______ _______ _____ _____    ______ ____
ROOT
ATOM      1  N   UNL     1       0.688  -0.476  -1.203  0.00  0.00    -0.304 N 
ATOM      2  C   UNL     1       1.972  -0.132  -1.427  0.00  0.00    +0.246 C 
ATOM      3  O   UNL     1       2.560   0.570  -0.629  0.00  0.00    -0.270 OA
ATOM      4  H   UNL     1       0.218  -1.037  -1.840  0.00  0.00    +0.150 HD
ENDROOT
BRANCH   2   5
ATOM      5  C   UNL     1       2.663  -0.609  -2.643  0.00  0.00    +0.053 A 
ATOM      6  C   UNL     1       1.988  -1.411  -3.565  0.00  0.00    +0.047 A 
ATOM      7  C   UNL     1       2.639  -1.852  -4.698  0.00  0.00    +0.127 A 
ATOM      8  C   UNL     1       3.959  -1.502  -4.923  0.00  0.00    +0.034 A 
ATOM      9  C   UNL     1       4.635  -0.708  -4.014  0.00  0.00    +0.018 A 
ATOM     10  C   UNL     1       3.993  -0.254  -2.878  0.00  0.00    +0.030 A 
ATOM     11 BR   UNL     1       4.916   0.838  -1.640  0.00  0.00    -0.050 Br
BRANCH   7  12
ATOM     12  N   UNL     1       1.925  -2.703  -5.676  0.00  0.00    +0.056 N 
ATOM     13  O   UNL     1       0.772  -3.011  -5.481  0.00  0.00    -0.126 OA
ATOM     14  O   UNL     1       2.494  -3.091  -6.669  0.00  0.00    -0.126 OA
ENDBRANCH   7  12
ENDBRANCH   2   5
BRANCH   1  16
ATOM     15  C   UNL     1      -0.019   1.526   0.010  0.00  0.00    +0.033 C 
ATOM     16  C   UNL     1       0.002  -0.004   0.002  0.00  0.00    +0.052 C 
ATOM     17  C   UNL     1       0.742  -0.511   1.242  0.00  0.00    +0.033 C 
BRANCH  16  18
ATOM     18  C   UNL     1      -1.433  -0.534   0.013  0.00  0.00    +0.181 C 
BRANCH  18  19
ATOM     19  O   UNL     1      -2.102  -0.073   1.189  0.00  0.00    -0.393 OA
ATOM     20  H   UNL     1      -3.019  -0.371   1.262  0.00  0.00    +0.209 HD
ENDBRANCH  18  19
ENDBRANCH  16  18
ENDBRANCH   1  16
TORSDOF 5
