REMARK  Name = ZINC63633094
REMARK  7 active torsions:
REMARK  status: ('A' for Active; 'I' for Inactive)
REMARK    1  A    between atoms: C_1  and  N_2
REMARK    2  A    between atoms: N_9  and  C_12
REMARK    3  A    between atoms: N_13  and  C_28
REMARK    4  A    between atoms: N_16  and  C_17
REMARK    5  A    between atoms: C_17  and  C_18
REMARK    6  A    between atoms: C_18  and  C_19
REMARK    7  A    between atoms: C_28  and  C_29
REMARK                            x       y       z     vdW  Elec       q    Type
REMARK                         _______ _______ _______ _____ _____    ______ ____
ROOT
ATOM      1  C   UNL     1      -0.018   1.461   0.010  0.00  0.00    +0.136 C 
ATOM      2  N   UNL     1       0.002  -0.004   0.002  0.00  0.00    -0.264 N 
ATOM      3  C   UNL     1      -1.203  -0.788   0.003  0.00  0.00    +0.227 C 
ATOM      4  C   UNL     1      -1.012  -1.909   1.074  0.00  0.00    +0.205 C 
ATOM      5  C   UNL     1       0.112  -2.747   0.562  0.00  0.00    +0.247 C 
ATOM      6  O   UNL     1       0.081  -3.959   0.578  0.00  0.00    -0.273 OA
ATOM      7  N   UNL     1       1.177  -2.047   0.075  0.00  0.00    -0.227 N 
ATOM      8  C   UNL     1       1.166  -0.717  -0.013  0.00  0.00    +0.312 C 
ATOM      9  O   UNL     1       2.224  -0.124  -0.088  0.00  0.00    -0.252 OA
ATOM     10  C   UNL     1       2.361  -2.775  -0.389  0.00  0.00    +0.143 C 
ATOM     11  N   UNL     1      -2.379  -2.423   1.052  0.00  0.00    -0.284 N 
ATOM     12  C   UNL     1      -3.149  -1.260   0.971  0.00  0.00    +0.181 C 
ATOM     13  N   UNL     1      -2.491  -0.274   0.405  0.00  0.00    -0.231 NA
ATOM     14  N   UNL     1      -4.438  -1.157   1.440  0.00  0.00    -0.317 N 
ATOM     15  H   UNL     1      -4.864  -1.922   1.857  0.00  0.00    +0.149 HD
ENDROOT
BRANCH  14  16
ATOM     16  C   UNL     1      -5.166   0.107   1.310  0.00  0.00    +0.108 C 
BRANCH  16  17
ATOM     17  C   UNL     1      -6.566  -0.048   1.907  0.00  0.00    +0.052 C 
BRANCH  17  18
ATOM     18  C   UNL     1      -7.316   1.253   1.772  0.00  0.00    -0.040 C 
ATOM     19  C   UNL     1      -8.174   1.599   0.785  0.00  0.00    -0.001 A 
ATOM     20  C   UNL     1      -8.646   0.896  -0.413  0.00  0.00    +0.010 A 
ATOM     21  C   UNL     1      -9.526   1.515  -1.233  0.00  0.00    +0.001 A 
ATOM     22  C   UNL     1      -9.995   2.809  -0.968  0.00  0.00    +0.002 A 
ATOM     23  C   UNL     1      -9.607   3.518   0.113  0.00  0.00    +0.026 A 
ATOM     24  C   UNL     1      -8.685   2.964   1.043  0.00  0.00    +0.043 A 
ATOM     25  N   UNL     1      -8.164   3.443   2.147  0.00  0.00    -0.380 N 
ATOM     26  C   UNL     1      -7.266   2.433   2.717  0.00  0.00    +0.144 C 
ATOM     27  H   UNL     1      -8.345   4.318   2.525  0.00  0.00    +0.160 HD
ENDBRANCH  17  18
ENDBRANCH  16  17
ENDBRANCH  14  16
BRANCH  11  28
ATOM     28  C   UNL     1      -2.832  -3.816   1.103  0.00  0.00    +0.143 C 
BRANCH  28  29
ATOM     29  C   UNL     1      -3.035  -4.226   2.539  0.00  0.00    -0.030 A 
ATOM     30  C   UNL     1      -1.988  -4.777   3.254  0.00  0.00    +0.006 A 
ATOM     31  C   UNL     1      -2.174  -5.154   4.571  0.00  0.00    +0.020 A 
ATOM     32  C   UNL     1      -3.407  -4.979   5.173  0.00  0.00    +0.041 A 
ATOM     33  C   UNL     1      -4.454  -4.428   4.456  0.00  0.00    +0.020 A 
ATOM     34  C   UNL     1      -4.266  -4.046   3.141  0.00  0.00    +0.006 A 
ATOM     35 CL   UNL     1      -3.641  -5.453   6.827  0.00  0.00    -0.084 Cl
ENDBRANCH  28  29
ENDBRANCH  11  28
TORSDOF 5
