REMARK  Name = ZINC05323744
REMARK  4 active torsions:
REMARK  status: ('A' for Active; 'I' for Inactive)
REMARK    1  A    between atoms: C_4  and  O_29
REMARK    2  A    between atoms: C_5  and  C_7
REMARK    3  A    between atoms: CA_13  and  C_15
REMARK    4  A    between atoms: N_19  and  C_22
REMARK                            x       y       z     vdW  Elec       q    Type
REMARK                         _______ _______ _______ _____ _____    ______ ____
ROOT
ATOM      1  C   UNL     1       4.128   6.425   1.247  0.00  0.00    -0.024 C 
ATOM      2  C   UNL     1       3.849   5.676  -0.073  0.00  0.00    +0.077 C 
ATOM      3  C   UNL     1       4.642   4.348   0.048  0.00  0.00    +0.083 C 
ATOM      4  CA  UNL     1       5.339   4.426   1.423  0.00  0.00    +0.057 C 
ATOM      5  C   UNL     1       3.557   3.295   0.089  0.00  0.00    +0.229 C 
ATOM      6  O   UNL     1       3.742   2.101   0.184  0.00  0.00    -0.275 OA
ATOM      7  N   UNL     1       2.361   3.888  -0.001  0.00  0.00    -0.210 N 
ATOM      8  C   UNL     1       2.407   5.222  -0.092  0.00  0.00    +0.229 C 
ATOM      9  O   UNL     1       1.444   5.953  -0.178  0.00  0.00    -0.275 OA
ATOM     10  N   UNL     1       5.405   5.860   1.698  0.00  0.00    +0.394 N 
ATOM     11  H1  UNL     1       5.531   6.023   2.704  0.00  0.00    -0.084 HD
ATOM     12  H2  UNL     1       6.185   6.285   1.182  0.00  0.00    -0.084 HD
ENDROOT
BRANCH   7  13
ATOM     13  C   UNL     1       1.156   3.170   0.008  0.00  0.00    +0.047 A 
ATOM     14  C   UNL     1       0.835   2.339  -1.058  0.00  0.00    +0.024 A 
ATOM     15  C   UNL     1      -0.352   1.633  -1.048  0.00  0.00    +0.005 A 
ATOM     16  C   UNL     1      -1.223   1.756   0.018  0.00  0.00    +0.038 A 
ATOM     17  C   UNL     1      -0.904   2.580   1.084  0.00  0.00    +0.125 A 
ATOM     18  C   UNL     1       0.283   3.289   1.080  0.00  0.00    +0.062 A 
ATOM     19  F   UNL     1      -1.756   2.695   2.127  0.00  0.00    -0.205 F 
ENDBRANCH   7  13
BRANCH   1  24
ATOM     20  C   UNL     1       5.620   9.828   0.575  0.00  0.00    +0.000 A 
ATOM     21  C   UNL     1       4.490  10.624   0.530  0.00  0.00    +0.004 A 
ATOM     22  C   UNL     1       3.241  10.065   0.717  0.00  0.00    +0.045 A 
ATOM     23  C   UNL     1       3.121   8.702   0.949  0.00  0.00    +0.118 A 
ATOM     24  C   UNL     1       4.255   7.906   0.994  0.00  0.00    -0.019 A 
ATOM     25  C   UNL     1       5.503   8.471   0.812  0.00  0.00    +0.005 A 
BRANCH  23  26
ATOM     26  O   UNL     1       1.893   8.149   1.134  0.00  0.00    -0.507 OA
ATOM     27  H   UNL     1       1.604   8.132   2.056  0.00  0.00    +0.292 HD
ENDBRANCH  23  26
ENDBRANCH   1  24
BRANCH   4  28
ATOM     28  C   UNL     1       4.510   3.731   2.472  0.00  0.00    +0.343 C 
ATOM     29  O   UNL     1       3.811   4.378   3.216  0.00  0.00    -0.248 OA
ATOM     30  OXT UNL     1       4.547   2.394   2.579  0.00  0.00    -0.248 OA
ENDBRANCH   4  28
TORSDOF 4
