REMARK  Name = ZINC04515245
REMARK  6 active torsions:
REMARK  status: ('A' for Active; 'I' for Inactive)
REMARK    1  A    between atoms: C_1  and  C_2
REMARK    2  A    between atoms: C_2  and  C_3
REMARK    3  A    between atoms: C_3  and  N_4
REMARK    4  A    between atoms: C_8  and  C_10
REMARK    5  A    between atoms: C_10  and  N_11
REMARK    6  A    between atoms: C_19  and  C_21
REMARK                            x       y       z     vdW  Elec       q    Type
REMARK                         _______ _______ _______ _____ _____    ______ ____
ROOT
ATOM      1  N   UNL     1      -3.233   0.381   3.161  0.00  0.00    -0.215 N 
ATOM      2  C   UNL     1      -2.885   1.517   2.521  0.00  0.00    +0.247 C 
ATOM      3  O   UNL     1      -3.102   2.655   2.875  0.00  0.00    -0.273 OA
ATOM      4  C   UNL     1      -2.167   1.069   1.268  0.00  0.00    +0.115 C 
ATOM      5  C   UNL     1      -2.911   1.550   0.027  0.00  0.00    +0.035 C 
ATOM      6  C   UNL     1      -2.186   1.056  -1.227  0.00  0.00    +0.003 C 
ATOM      7  C   UNL     1      -0.753   1.593  -1.231  0.00  0.00    +0.000 C 
ATOM      8  C   UNL     1      -0.013   1.086   0.008  0.00  0.00    +0.006 C 
ATOM      9  C   UNL     1      -0.730   1.580   1.267  0.00  0.00    +0.018 C 
ATOM     10  C   UNL     1      -0.002   1.056   2.507  0.00  0.00    +0.010 C 
ATOM     11  N   UNL     1      -2.191  -0.397   1.347  0.00  0.00    -0.285 N 
ATOM     12  C   UNL     1      -2.836  -0.706   2.489  0.00  0.00    +0.310 C 
ATOM     13  O   UNL     1      -3.035  -1.844   2.866  0.00  0.00    -0.252 OA
ATOM     14  H   UNL     1      -1.817  -1.020   0.705  0.00  0.00    +0.151 HD
ENDROOT
BRANCH   1  15
ATOM     15  C   UNL     1      -3.956   0.343   4.435  0.00  0.00    +0.214 C 
BRANCH  15  20
ATOM     16  N   UNL     1      -2.965   0.287   9.138  0.00  0.00    -0.299 N 
ATOM     17  C   UNL     1      -2.525   0.318   7.865  0.00  0.00    +0.306 C 
ATOM     18  O   UNL     1      -1.333   0.350   7.634  0.00  0.00    -0.252 OA
ATOM     19  N   UNL     1      -3.409   0.315   6.847  0.00  0.00    -0.239 N 
ATOM     20  C   UNL     1      -2.969   0.347   5.573  0.00  0.00    +0.238 C 
ATOM     21  O   UNL     1      -1.779   0.378   5.343  0.00  0.00    -0.274 OA
ATOM     22  H   UNL     1      -3.917   0.262   9.322  0.00  0.00    +0.150 HD
ATOM     23  H   UNL     1      -4.361   0.290   7.030  0.00  0.00    +0.159 HD
BRANCH  16  24
ATOM     24  C   UNL     1      -2.005   0.290  10.245  0.00  0.00    +0.105 C 
BRANCH  24  26
ATOM     25  C   UNL     1      -1.758   0.254  12.731  0.00  0.00    +0.005 C 
ATOM     26  C   UNL     1      -2.760   0.251  11.575  0.00  0.00    +0.015 C 
ENDBRANCH  24  26
ENDBRANCH  16  24
ENDBRANCH  15  20
ENDBRANCH   1  15
TORSDOF 4
