REMARK  Name = ZINC36553258
REMARK  13 active torsions:
REMARK  status: ('A' for Active; 'I' for Inactive)
REMARK    1  A    between atoms: C_1  and  C_2
REMARK    2  A    between atoms: C_2  and  C_4
REMARK    3  A    between atoms: N_6  and  C_7
REMARK    4  A    between atoms: N_6  and  C_14
REMARK    5  A    between atoms: C_14  and  C_16
REMARK    6  A    between atoms: C_14  and  C_25
REMARK    7  A    between atoms: C_17  and  O_24
REMARK    8  A    between atoms: C_19  and  O_23
REMARK    9  A    between atoms: C_21  and  O_22
REMARK   10  A    between atoms: N_27  and  C_28
REMARK   11  A    between atoms: C_28  and  C_29
REMARK   12  A    between atoms: C_28  and  C_30
REMARK   13  A    between atoms: C_28  and  C_31
REMARK                            x       y       z     vdW  Elec       q    Type
REMARK                         _______ _______ _______ _____ _____    ______ ____
ROOT
ATOM      1  C   UNL     1      -1.240  -1.582  -2.495  0.00  0.00    +0.204 C 
ENDROOT
BRANCH   1   2
ATOM      2  C   UNL     1      -2.324  -0.542  -2.618  0.00  0.00    +0.065 A 
ATOM      3  C   UNL     1      -3.251  -0.383  -1.599  0.00  0.00    +0.129 A 
ATOM      4  C   UNL     1      -4.248   0.574  -1.711  0.00  0.00    +0.091 A 
ATOM      5  C   UNL     1      -4.318   1.373  -2.843  0.00  0.00    +0.124 A 
ATOM      6  C   UNL     1      -3.391   1.214  -3.862  0.00  0.00    +0.091 A 
ATOM      7  C   UNL     1      -2.391   0.260  -3.747  0.00  0.00    +0.129 A 
BRANCH   7   8
ATOM      8  O   UNL     1      -1.479   0.108  -4.744  0.00  0.00    -0.506 OA
ATOM      9  H   UNL     1      -1.773  -0.471  -5.460  0.00  0.00    +0.292 HD
ENDBRANCH   7   8
BRANCH   5  10
ATOM     10  O   UNL     1      -5.296   2.310  -2.954  0.00  0.00    -0.507 OA
ATOM     11  H   UNL     1      -5.052   3.176  -2.599  0.00  0.00    +0.292 HD
ENDBRANCH   5  10
BRANCH   3  12
ATOM     12  O   UNL     1      -3.182  -1.165  -0.489  0.00  0.00    -0.506 OA
ATOM     13  H   UNL     1      -3.549  -0.754   0.305  0.00  0.00    +0.292 HD
ENDBRANCH   3  12
ENDBRANCH   1   2
BRANCH   1  14
ATOM     14  C   UNL     1       0.073  -0.906  -2.198  0.00  0.00    +0.239 C 
ATOM     15  O   UNL     1       0.868  -1.429  -1.445  0.00  0.00    -0.273 OA
ATOM     16  N   UNL     1       0.366   0.279  -2.770  0.00  0.00    -0.309 N 
ATOM     17  H   UNL     1      -0.269   0.697  -3.372  0.00  0.00    +0.149 HD
BRANCH  16  18
ATOM     18  C   UNL     1       1.643   0.936  -2.481  0.00  0.00    +0.026 C 
ATOM     19  C   UNL     1       2.794   0.024  -2.911  0.00  0.00    +0.031 C 
ATOM     20  C   UNL     1       1.723   2.256  -3.250  0.00  0.00    +0.031 C 
ATOM     21  C   UNL     1       1.746   1.213  -0.980  0.00  0.00    +0.031 C 
ENDBRANCH  16  18
ENDBRANCH   1  14
BRANCH   1  24
ATOM     22  C   UNL     1      -1.872  -3.791  -1.683  0.00  0.00    +0.247 C 
ATOM     23  O   UNL     1      -2.472  -4.070  -2.703  0.00  0.00    -0.270 OA
ATOM     24  N   UNL     1      -1.571  -2.506  -1.408  0.00  0.00    -0.251 N 
BRANCH  24  25
ATOM     25  C   UNL     1      -1.575  -2.055  -0.084  0.00  0.00    +0.039 A 
ATOM     26  C   UNL     1      -0.670  -1.083   0.322  0.00  0.00    +0.023 A 
ATOM     27  C   UNL     1      -0.675  -0.639   1.630  0.00  0.00    +0.003 A 
ATOM     28  C   UNL     1      -1.580  -1.162   2.536  0.00  0.00    +0.020 A 
ATOM     29  C   UNL     1      -2.483  -2.131   2.135  0.00  0.00    +0.043 A 
ATOM     30  C   UNL     1      -2.486  -2.575   0.826  0.00  0.00    +0.043 A 
ATOM     31 CL   UNL     1      -3.617  -2.785   3.275  0.00  0.00    -0.083 Cl
ENDBRANCH  24  25
BRANCH  22  33
ATOM     32  C   UNL     1      -1.335  -6.274  -1.239  0.00  0.00    +0.048 C 
ATOM     33  C   UNL     1      -1.475  -4.855  -0.749  0.00  0.00    +0.005 C 
ATOM     34  C   UNL     1      -1.240  -4.566   0.528  0.00  0.00    +0.017 C 
ENDBRANCH  22  33
ENDBRANCH   1  24
TORSDOF 9
