REMARK  Name = ZINC41043683
REMARK  7 active torsions:
REMARK  status: ('A' for Active; 'I' for Inactive)
REMARK    1  A    between atoms: C_1  and  C_2
REMARK    2  A    between atoms: C_2  and  C_3
REMARK    3  A    between atoms: C_4  and  N_13
REMARK    4  A    between atoms: N_7  and  C_11
REMARK    5  A    between atoms: N_8  and  C_9
REMARK    6  A    between atoms: C_9  and  C_10
REMARK    7  A    between atoms: C_11  and  C_12
REMARK                            x       y       z     vdW  Elec       q    Type
REMARK                         _______ _______ _______ _____ _____    ______ ____
ROOT
ATOM      1  C   UNL     1      -1.412  -0.526   0.013  0.00  0.00    +0.062 A 
ATOM      2  C   UNL     1      -2.126  -0.888  -1.074  0.00  0.00    +0.112 A 
ATOM      3  C   UNL     1      -3.439  -1.331  -0.604  0.00  0.00    +0.288 A 
ATOM      4  O   UNL     1      -4.359  -1.733  -1.294  0.00  0.00    -0.264 OA
ATOM      5  N   UNL     1      -3.437  -1.210   0.740  0.00  0.00    -0.248 N 
ATOM      6  N   UNL     1      -2.186  -0.718   1.129  0.00  0.00    -0.284 N 
ENDROOT
BRANCH   2   7
ATOM      7  N   UNL     1      -1.689  -0.846  -2.415  0.00  0.00    -0.352 N 
ATOM      8  H   UNL     1      -0.794  -0.533  -2.624  0.00  0.00    +0.143 HD
ATOM      9  H   UNL     1      -2.282  -1.129  -3.128  0.00  0.00    +0.143 HD
ENDBRANCH   2   7
BRANCH   1  11
ATOM     10  C   UNL     1      -0.019   1.526   0.010  0.00  0.00    +0.010 C 
ATOM     11  C   UNL     1       0.002  -0.004   0.002  0.00  0.00    +0.053 C 
ENDBRANCH   1  11
BRANCH   6  12
ATOM     12  C   UNL     1      -1.771  -0.448   2.508  0.00  0.00    +0.138 C 
ATOM     13  C   UNL     1      -2.125   0.995   2.874  0.00  0.00    +0.029 C 
ENDBRANCH   6  12
BRANCH   5  14
ATOM     14  C   UNL     1      -4.549  -1.540   1.635  0.00  0.00    +0.142 C 
ATOM     15  C   UNL     1      -5.502  -0.347   1.727  0.00  0.00    +0.029 C 
ENDBRANCH   5  14
TORSDOF 4
