REMARK  Name = ZINC09975258
REMARK  9 active torsions:
REMARK  status: ('A' for Active; 'I' for Inactive)
REMARK    1  A    between atoms: C_1  and  C_2
REMARK    2  A    between atoms: C_2  and  C_28
REMARK    3  A    between atoms: N_3  and  N_4
REMARK    4  A    between atoms: N_13  and  C1*_14
REMARK    5  A    between atoms: C2*_16  and  O2*_26
REMARK    6  A    between atoms: C3*_18  and  O3*_25
REMARK    7  A    between atoms: C4*_20  and  C5*_23
REMARK    8  A    between atoms: C5*_23  and  O5*_24
REMARK    9  A    between atoms: C_28  and  C_29
REMARK                            x       y       z     vdW  Elec       q    Type
REMARK                         _______ _______ _______ _____ _____    ______ ____
ROOT
ATOM      1  N   UNL     1       1.916  -0.162  -2.236  0.00  0.00    -0.206 N 
ATOM      2  C   UNL     1       1.786   1.183  -2.516  0.00  0.00    +0.220 A 
ATOM      3  N   UNL     1       2.158   1.761  -3.632  0.00  0.00    -0.208 NA
ATOM      4  C   UNL     1       1.888   3.088  -3.564  0.00  0.00    +0.149 A 
ATOM      5  C   UNL     1       2.067   4.176  -4.434  0.00  0.00    +0.147 A 
ATOM      6  N   UNL     1       1.674   5.380  -4.033  0.00  0.00    -0.219 NA
ATOM      7  C   UNL     1       1.126   5.560  -2.845  0.00  0.00    +0.225 A 
ATOM      8  N   UNL     1       0.939   4.571  -1.997  0.00  0.00    -0.216 NA
ATOM      9  C   UNL     1       1.300   3.331  -2.312  0.00  0.00    +0.169 A 
ATOM     10  N   UNL     1       1.244   2.115  -1.672  0.00  0.00    -0.266 N 
ATOM     11  N   UNL     1       2.641   3.997  -5.683  0.00  0.00    -0.341 N 
ATOM     12  H   UNL     1       1.553  -0.524  -1.412  0.00  0.00    +0.177 HD
ATOM     13  H   UNL     1       3.564   3.627  -5.576  0.00  0.00    +0.144 HD
ATOM     14  H   UNL     1       2.760   4.756  -6.275  0.00  0.00    +0.144 HD
ENDROOT
BRANCH  10  15
ATOM     15  C1* UNL     1       0.709   1.863  -0.332  0.00  0.00    +0.255 C 
ATOM     16  C2* UNL     1      -0.167   3.049   0.129  0.00  0.00    +0.195 C 
ATOM     17  C3* UNL     1      -1.603   2.624  -0.252  0.00  0.00    +0.178 C 
ATOM     18  C4* UNL     1      -1.425   1.232  -0.897  0.00  0.00    +0.177 C 
ATOM     19  O4* UNL     1      -0.185   0.729  -0.352  0.00  0.00    -0.346 OA
BRANCH  17  20
ATOM     20  O3* UNL     1      -2.425   2.537   0.914  0.00  0.00    -0.386 OA
ATOM     21  H3* UNL     1      -3.338   2.274   0.733  0.00  0.00    +0.210 HD
ENDBRANCH  17  20
BRANCH  16  22
ATOM     22  O2* UNL     1      -0.057   3.234   1.541  0.00  0.00    -0.385 OA
ATOM     23  H2* UNL     1      -0.633   3.927   1.893  0.00  0.00    +0.210 HD
ENDBRANCH  16  22
BRANCH  18  24
ATOM     24  C5* UNL     1      -2.587   0.314  -0.513  0.00  0.00    +0.190 C 
BRANCH  24  25
ATOM     25  O5* UNL     1      -2.464  -0.927  -1.211  0.00  0.00    -0.392 OA
ATOM     26  H5* UNL     1      -3.169  -1.560  -1.016  0.00  0.00    +0.210 HD
ENDBRANCH  24  25
ENDBRANCH  18  24
ENDBRANCH  10  15
BRANCH   1  29
ATOM     27  C   UNL     1       2.128  -2.817  -1.605  0.00  0.00    +0.063 C 
ATOM     28  C   UNL     1       2.659  -2.260  -2.901  0.00  0.00    +0.038 C 
ATOM     29  N   UNL     1       2.572  -1.006  -3.142  0.00  0.00    -0.189 NA
BRANCH  28  30
ATOM     30  C   UNL     1       3.292  -3.180  -3.913  0.00  0.00    +0.087 C 
BRANCH  30  31
ATOM     31  C   UNL     1       4.554  -3.769  -3.337  0.00  0.00    -0.042 A 
ATOM     32  C   UNL     1       5.763  -3.124  -3.517  0.00  0.00    +0.004 A 
ATOM     33  C   UNL     1       6.920  -3.661  -2.985  0.00  0.00    +0.000 A 
ATOM     34  C   UNL     1       6.869  -4.849  -2.279  0.00  0.00    +0.000 A 
ATOM     35  C   UNL     1       5.660  -5.497  -2.103  0.00  0.00    +0.000 A 
ATOM     36  C   UNL     1       4.503  -4.957  -2.632  0.00  0.00    +0.004 A 
ENDBRANCH  30  31
ENDBRANCH  28  30
ENDBRANCH   1  29
TORSDOF 8
