REMARK  Name = ZINC04497230
REMARK  10 active torsions:
REMARK  status: ('A' for Active; 'I' for Inactive)
REMARK    1  A    between atoms: C_1  and  C_2
REMARK    2  A    between atoms: C_2  and  O_3
REMARK    3  A    between atoms: O_3  and  C_4
REMARK    4  A    between atoms: C_7  and  N_10
REMARK    5  A    between atoms: C_12  and  N_17
REMARK    6  A    between atoms: C_18  and  C_20
REMARK    7  A    between atoms: C_20  and  C_21
REMARK    8  A    between atoms: C_21  and  C_22
REMARK    9  A    between atoms: C_21  and  C_23
REMARK   10  A    between atoms: C_21  and  C_24
REMARK                            x       y       z     vdW  Elec       q    Type
REMARK                         _______ _______ _______ _____ _____    ______ ____
ROOT
ATOM      1  N   UNL     1       1.217  -0.448  -0.365  0.00  0.00    -0.270 N 
ATOM      2  C   UNL     1       2.133   0.667  -0.633  0.00  0.00    +0.136 C 
ATOM      3  C   UNL     1       1.473   1.907   0.010  0.00  0.00    +0.099 C 
ATOM      4  C   UNL     1      -0.021   1.508   0.001  0.00  0.00    +0.120 C 
ATOM      5  C   UNL     1      -0.002  -0.004  -0.013  0.00  0.00    +0.222 C 
ATOM      6  O   UNL     1      -0.949  -0.713   0.255  0.00  0.00    -0.275 OA
ENDROOT
BRANCH   1  10
ATOM      7  C   UNL     1       2.261  -4.474  -0.658  0.00  0.00    +0.121 A 
ATOM      8  C   UNL     1       3.162  -3.494  -1.048  0.00  0.00    +0.047 A 
ATOM      9  C   UNL     1       2.816  -2.161  -0.952  0.00  0.00    +0.027 A 
ATOM     10  C   UNL     1       1.567  -1.801  -0.464  0.00  0.00    +0.037 A 
ATOM     11  C   UNL     1       0.668  -2.782  -0.069  0.00  0.00    +0.027 A 
ATOM     12  C   UNL     1       1.012  -4.115  -0.171  0.00  0.00    +0.047 A 
BRANCH   7  13
ATOM     13  O   UNL     1       2.602  -5.787  -0.753  0.00  0.00    -0.492 OA
BRANCH  13  15
ATOM     14  C   UNL     1       2.185  -8.155  -0.512  0.00  0.00    +0.048 C 
ATOM     15  C   UNL     1       1.625  -6.743  -0.333  0.00  0.00    +0.225 C 
ENDBRANCH  13  15
ENDBRANCH   7  13
ENDBRANCH   1  10
BRANCH   3  16
ATOM     16  N   UNL     1       1.701   3.103  -0.804  0.00  0.00    -0.310 N 
ATOM     17  C   UNL     1       1.552   4.327  -0.259  0.00  0.00    +0.214 C 
ATOM     18  O   UNL     1       1.228   4.438   0.904  0.00  0.00    -0.276 OA
ATOM     19  H   UNL     1       1.960   3.015  -1.734  0.00  0.00    +0.149 HD
BRANCH  17  20
ATOM     20  C   UNL     1       1.787   5.558  -1.096  0.00  0.00    +0.102 C 
BRANCH  20  21
ATOM     21  C   UNL     1       1.552   6.807  -0.244  0.00  0.00    -0.029 C 
ATOM     22  C   UNL     1       2.518   6.804   0.943  0.00  0.00    +0.011 C 
ATOM     23  C   UNL     1       1.791   8.057  -1.093  0.00  0.00    +0.011 C 
ATOM     24  C   UNL     1       0.111   6.808   0.272  0.00  0.00    +0.011 C 
ENDBRANCH  20  21
ENDBRANCH  17  20
ENDBRANCH   3  16
TORSDOF 6
