REMARK  Name = ZINC40334747
REMARK  7 active torsions:
REMARK  status: ('A' for Active; 'I' for Inactive)
REMARK    1  A    between atoms: C_1  and  C_2
REMARK    2  A    between atoms: C_2  and  C_3
REMARK    3  A    between atoms: N_6  and  S_9
REMARK    4  A    between atoms: S_9  and  C_12
REMARK    5  A    between atoms: C_14  and  C_20
REMARK    6  A    between atoms: C_15  and  C_19
REMARK    7  A    between atoms: C_16  and  N_18
REMARK                            x       y       z     vdW  Elec       q    Type
REMARK                         _______ _______ _______ _____ _____    ______ ____
ROOT
ATOM      1  S   UNL     1      -4.331  -3.141   2.066  0.00  0.00    +0.061 S 
ATOM      2  O   UNL     1      -3.713  -4.408   1.888  0.00  0.00    -0.153 OA
ATOM      3  O   UNL     1      -4.405  -2.501   3.332  0.00  0.00    -0.153 OA
ENDROOT
BRANCH   1   4
ATOM      4  C   UNL     1      -5.987  -3.303   1.486  0.00  0.00    +0.107 A 
ATOM      5  C   UNL     1      -6.968  -2.445   1.950  0.00  0.00    +0.032 A 
ATOM      6  C   UNL     1      -8.269  -2.569   1.498  0.00  0.00    -0.044 A 
ATOM      7  C   UNL     1      -8.593  -3.550   0.581  0.00  0.00    -0.027 A 
ATOM      8  C   UNL     1      -7.610  -4.413   0.113  0.00  0.00    +0.030 A 
ATOM      9  C   UNL     1      -6.303  -4.282   0.565  0.00  0.00    +0.051 A 
ATOM     10  C   UNL     1     -10.011  -3.685   0.089  0.00  0.00    +0.046 C 
ATOM     11  C   UNL     1      -9.335  -1.633   2.006  0.00  0.00    +0.044 C 
BRANCH   8  12
ATOM     12  N   UNL     1      -7.934  -5.406  -0.814  0.00  0.00    -0.358 N 
ATOM     13  H   UNL     1      -8.846  -5.494  -1.132  0.00  0.00    +0.142 HD
ATOM     14  H   UNL     1      -7.247  -6.008  -1.140  0.00  0.00    +0.142 HD
ENDBRANCH   8  12
ENDBRANCH   1   4
BRANCH   1  18
ATOM     15  C   UNL     1      -1.433  -0.534   0.013  0.00  0.00    -0.009 C 
ATOM     16  C   UNL     1      -2.111  -0.144   1.329  0.00  0.00    +0.020 C 
ATOM     17  C   UNL     1      -3.558  -0.645   1.321  0.00  0.00    +0.110 C 
ATOM     18  N   UNL     1      -3.557  -2.089   1.048  0.00  0.00    -0.177 NA
ATOM     19  C   UNL     1      -2.855  -2.582  -0.145  0.00  0.00    +0.110 C 
ATOM     20  C   UNL     1      -1.415  -2.058  -0.121  0.00  0.00    +0.020 C 
BRANCH  15  22
ATOM     21  C   UNL     1      -0.019   1.526   0.010  0.00  0.00    +0.004 C 
ATOM     22  C   UNL     1       0.002  -0.004   0.002  0.00  0.00    +0.000 C 
ENDBRANCH  15  22
ENDBRANCH   1  18
TORSDOF 4
