REMARK  Name = ZINC00466088
REMARK  5 active torsions:
REMARK  status: ('A' for Active; 'I' for Inactive)
REMARK    1  A    between atoms: C_1  and  C_2
REMARK    2  A    between atoms: C_11  and  C_12
REMARK    3  A    between atoms: C_11  and  O_22
REMARK    4  A    between atoms: C_12  and  C_13
REMARK    5  A    between atoms: C_13  and  C_15
REMARK                            x       y       z     vdW  Elec       q    Type
REMARK                         _______ _______ _______ _____ _____    ______ ____
ROOT
ATOM      1  C   UNL     1      -0.018   1.503   0.010  0.00  0.00    +0.045 C 
ATOM      2  C   UNL     1       0.002  -0.004   0.002  0.00  0.00    -0.029 A 
ATOM      3  C   UNL     1       0.006  -0.686  -1.198  0.00  0.00    +0.006 A 
ATOM      4  C   UNL     1       0.025  -2.068  -1.217  0.00  0.00    +0.021 A 
ATOM      5  C   UNL     1       0.041  -2.773  -0.024  0.00  0.00    +0.049 A 
ATOM      6  C   UNL     1       0.037  -2.094   1.175  0.00  0.00    +0.033 A 
ATOM      7  C   UNL     1       0.023  -0.706   1.206  0.00  0.00    +0.044 A 
ATOM      8  N   UNL     1       0.029  -0.252   2.526  0.00  0.00    -0.282 N 
ATOM      9  C   UNL     1       0.051  -1.263   3.410  0.00  0.00    +0.254 C 
ATOM     10  O   UNL     1       0.061  -1.163   4.619  0.00  0.00    -0.272 OA
ATOM     11  C   UNL     1       0.050  -2.552   2.615  0.00  0.00    +0.177 C 
ATOM     12 CL   UNL     1       0.064  -4.509  -0.040  0.00  0.00    -0.083 Cl
ATOM     13  H   UNL     1       0.018   0.685   2.776  0.00  0.00    +0.155 HD
ENDROOT
BRANCH  11  14
ATOM     14  O   UNL     1       1.237  -3.298   2.892  0.00  0.00    -0.374 OA
ATOM     15  H   UNL     1       1.297  -3.617   3.803  0.00  0.00    +0.211 HD
ENDBRANCH  11  14
BRANCH  11  16
ATOM     16  C   UNL     1      -1.194  -3.386   2.924  0.00  0.00    +0.129 C 
BRANCH  16  17
ATOM     17  C   UNL     1      -1.220  -3.726   4.392  0.00  0.00    +0.167 C 
ATOM     18  O   UNL     1      -0.330  -3.339   5.120  0.00  0.00    -0.292 OA
BRANCH  17  19
ATOM     19  C   UNL     1      -2.323  -4.527   4.942  0.00  0.00    +0.018 A 
ATOM     20  C   UNL     1      -3.348  -4.980   4.105  0.00  0.00    +0.014 A 
ATOM     21  C   UNL     1      -4.379  -5.730   4.627  0.00  0.00    +0.039 A 
ATOM     22  C   UNL     1      -4.402  -6.035   5.980  0.00  0.00    +0.123 A 
ATOM     23  C   UNL     1      -3.389  -5.590   6.815  0.00  0.00    +0.039 A 
ATOM     24  C   UNL     1      -2.349  -4.844   6.305  0.00  0.00    +0.014 A 
ATOM     25  F   UNL     1      -5.417  -6.771   6.486  0.00  0.00    -0.205 F 
ENDBRANCH  17  19
ENDBRANCH  16  17
ENDBRANCH  11  16
TORSDOF 4
