REMARK  Name = ZINC62398401
REMARK  6 active torsions:
REMARK  status: ('A' for Active; 'I' for Inactive)
REMARK    1  A    between atoms: C_1  and  C_2
REMARK    2  A    between atoms: C_3  and  C_20
REMARK    3  A    between atoms: C_4  and  C_13
REMARK    4  A    between atoms: C_7  and  S_9
REMARK    5  A    between atoms: S_9  and  C_10
REMARK    6  A    between atoms: C_10  and  C_11
REMARK                            x       y       z     vdW  Elec       q    Type
REMARK                         _______ _______ _______ _____ _____    ______ ____
ROOT
ATOM      1  C   UNL     1      -0.018   1.503   0.010  0.00  0.00    +0.061 C 
ATOM      2  C   UNL     1       0.002  -0.004   0.002  0.00  0.00    +0.019 C 
ATOM      3  C   UNL     1      -1.155  -0.698   0.004  0.00  0.00    +0.084 C 
ATOM      4  C   UNL     1      -1.155  -2.200   0.007  0.00  0.00    +0.150 C 
ATOM      5  N   UNL     1       0.149  -2.728  -0.374  0.00  0.00    -0.357 N 
ATOM      6  C   UNL     1       1.225  -2.006  -0.367  0.00  0.00    +0.133 C 
ATOM      7  N   UNL     1       1.194  -0.676  -0.013  0.00  0.00    -0.299 N 
ATOM      8  H   UNL     1       2.015  -0.218   0.229  0.00  0.00    +0.154 HD
ATOM      9  H   UNL     1       0.215  -3.658  -0.642  0.00  0.00    +0.162 HD
ENDROOT
BRANCH   4  10
ATOM     10  C   UNL     1      -1.502  -2.692   1.388  0.00  0.00    -0.020 A 
ATOM     11  C   UNL     1      -0.535  -2.715   2.376  0.00  0.00    +0.007 A 
ATOM     12  C   UNL     1      -0.853  -3.165   3.644  0.00  0.00    +0.020 A 
ATOM     13  C   UNL     1      -2.138  -3.594   3.924  0.00  0.00    +0.041 A 
ATOM     14  C   UNL     1      -3.105  -3.571   2.934  0.00  0.00    +0.020 A 
ATOM     15  C   UNL     1      -2.788  -3.114   1.669  0.00  0.00    +0.007 A 
ATOM     16 CL   UNL     1      -2.538  -4.160   5.515  0.00  0.00    -0.084 Cl
ENDBRANCH   4  10
BRANCH   3  17
ATOM     17  C   UNL     1      -2.381  -0.004   0.003  0.00  0.00    +0.386 C 
ATOM     18  O   UNL     1      -2.392   1.222   0.002  0.00  0.00    -0.241 OA
ATOM     19  O   UNL     1      -3.438  -0.625   0.005  0.00  0.00    -0.241 OA
ENDBRANCH   3  17
BRANCH   6  20
ATOM     20  S   UNL     1       2.759  -2.740  -0.828  0.00  0.00    -0.077 S 
BRANCH  20  21
ATOM     21  C   UNL     1       3.957  -1.386  -0.675  0.00  0.00    +0.195 C 
BRANCH  21  22
ATOM     22  C   UNL     1       5.298  -1.873  -1.037  0.00  0.00    +0.074 C 
ATOM     23  N   UNL     1       6.333  -2.250  -1.316  0.00  0.00    -0.196 NA
ENDBRANCH  21  22
ENDBRANCH  20  21
ENDBRANCH   6  20
TORSDOF 5
