REMARK  Name = ZINC37037610
REMARK  4 active torsions:
REMARK  status: ('A' for Active; 'I' for Inactive)
REMARK    1  A    between atoms: C_3  and  C_6
REMARK    2  A    between atoms: C_6  and  S_7
REMARK    3  A    between atoms: S_7  and  C_8
REMARK    4  A    between atoms: C_14  and  N_16
REMARK                            x       y       z     vdW  Elec       q    Type
REMARK                         _______ _______ _______ _____ _____    ______ ____
ROOT
ATOM      1  C   UNL     1       5.972   0.562   1.489  0.00  0.00    +0.171 A 
ATOM      2  N   UNL     1       6.760   0.533   2.600  0.00  0.00    -0.302 N 
ATOM      3  H   UNL     1       6.355   0.534   3.481  0.00  0.00    +0.171 HD
ATOM      4  C   UNL     1       8.104   0.502   2.477  0.00  0.00    +0.254 A 
ATOM      5  O   UNL     1       8.817   0.475   3.467  0.00  0.00    -0.268 OA
ATOM      6  C   UNL     1       8.664   0.501   1.196  0.00  0.00    +0.113 A 
ATOM      7  C   UNL     1       7.818   0.532   0.097  0.00  0.00    +0.124 A 
ATOM      8  N   UNL     1       6.493   0.556   0.279  0.00  0.00    -0.209 NA
ENDROOT
BRANCH   7   9
ATOM      9  N   UNL     1       8.341   0.532  -1.181  0.00  0.00    -0.343 N 
ATOM     10  H   UNL     1       9.302   0.510  -1.312  0.00  0.00    +0.144 HD
ATOM     11  H   UNL     1       7.747   0.553  -1.948  0.00  0.00    +0.144 HD
ENDBRANCH   7   9
BRANCH   1  12
ATOM     12  S   UNL     1       4.220   0.602   1.675  0.00  0.00    -0.080 S 
BRANCH  12  13
ATOM     13  C   UNL     1       3.599   0.625  -0.029  0.00  0.00    +0.151 C 
BRANCH  13  16
ATOM     14  C   UNL     1      -0.016   1.341   0.009  0.00  0.00    +0.041 A 
ATOM     15  C   UNL     1       1.331   1.769  -0.001  0.00  0.00    +0.045 A 
ATOM     16  C   UNL     1       2.092   0.660  -0.014  0.00  0.00    +0.115 A 
ATOM     17  O   UNL     1       1.282  -0.411  -0.012  0.00  0.00    -0.467 OA
ATOM     18  C   UNL     1       0.002  -0.004   0.002  0.00  0.00    +0.195 A 
ENDBRANCH  13  16
ENDBRANCH  12  13
ENDBRANCH   1  12
TORSDOF 4
