REMARK  Name = ZINC63952573
REMARK  6 active torsions:
REMARK  status: ('A' for Active; 'I' for Inactive)
REMARK    1  A    between atoms: C_1  and  O_2
REMARK    2  A    between atoms: O_2  and  C_3
REMARK    3  A    between atoms: C_7  and  C_12
REMARK    4  A    between atoms: C_12  and  C_13
REMARK    5  A    between atoms: C_13  and  N_14
REMARK    6  A    between atoms: C_19  and  C_22
REMARK                            x       y       z     vdW  Elec       q    Type
REMARK                         _______ _______ _______ _____ _____    ______ ____
ROOT
ATOM      1  N   UNL     1      -8.173  -1.959  -1.377  0.00  0.00    -0.313 N 
ATOM      2  C   UNL     1      -8.870  -1.883  -2.554  0.00  0.00    +0.213 A 
ATOM      3  N   UNL     1      -8.239  -2.091  -3.693  0.00  0.00    -0.174 NA
ATOM      4  C   UNL     1      -8.894  -2.023  -4.857  0.00  0.00    +0.301 A 
ATOM      5  O   UNL     1      -8.304  -2.217  -5.908  0.00  0.00    -0.263 OA
ATOM      6  C   UNL     1     -10.333  -1.713  -4.859  0.00  0.00    +0.157 A 
ATOM      7  N   UNL     1     -10.937  -1.510  -3.709  0.00  0.00    -0.166 NA
ATOM      8  N   UNL     1     -10.197  -1.600  -2.522  0.00  0.00    -0.248 N 
ATOM      9  H   UNL     1      -8.628  -1.812  -0.533  0.00  0.00    +0.149 HD
ATOM     10  H   UNL     1     -10.637  -1.456  -1.670  0.00  0.00    +0.192 HD
ENDROOT
BRANCH   6  11
ATOM     11  C   UNL     1     -11.087  -1.630  -6.132  0.00  0.00    +0.008 A 
ATOM     12  C   UNL     1     -10.678  -2.378  -7.236  0.00  0.00    +0.013 A 
ATOM     13  C   UNL     1     -11.383  -2.297  -8.419  0.00  0.00    +0.039 A 
ATOM     14  C   UNL     1     -12.495  -1.476  -8.512  0.00  0.00    +0.123 A 
ATOM     15  C   UNL     1     -12.904  -0.731  -7.418  0.00  0.00    +0.039 A 
ATOM     16  C   UNL     1     -12.210  -0.809  -6.228  0.00  0.00    +0.013 A 
ATOM     17  F   UNL     1     -13.181  -1.399  -9.673  0.00  0.00    -0.205 F 
ENDBRANCH   6  11
BRANCH   1  18
ATOM     18  C   UNL     1      -6.740  -2.263  -1.394  0.00  0.00    +0.109 C 
BRANCH  18  19
ATOM     19  C   UNL     1      -6.207  -2.289   0.040  0.00  0.00    +0.052 C 
BRANCH  19  24
ATOM     20  C   UNL     1      -1.272  -0.338   0.073  0.00  0.00    +0.122 A 
ATOM     21  C   UNL     1      -2.482   0.381   0.100  0.00  0.00    +0.046 A 
ATOM     22  C   UNL     1      -3.678  -0.246   0.088  0.00  0.00    +0.013 A 
ATOM     23  C   UNL     1      -3.715  -1.714   0.045  0.00  0.00    -0.001 A 
ATOM     24  C   UNL     1      -4.734  -2.601   0.024  0.00  0.00    -0.040 C 
ATOM     25  C   UNL     1      -4.096  -3.972  -0.021  0.00  0.00    +0.144 C 
ATOM     26  N   UNL     1      -2.647  -3.743  -0.021  0.00  0.00    -0.380 N 
ATOM     27  C   UNL     1      -2.429  -2.448   0.016  0.00  0.00    +0.046 A 
ATOM     28  C   UNL     1      -1.229  -1.694   0.028  0.00  0.00    +0.071 A 
ATOM     29  H   UNL     1      -1.964  -4.431  -0.045  0.00  0.00    +0.160 HD
BRANCH  20  31
ATOM     30  C   UNL     1      -0.192   1.776   0.136  0.00  0.00    +0.277 C 
ATOM     31  O   UNL     1      -0.104   0.350   0.088  0.00  0.00    -0.495 OA
ENDBRANCH  20  31
ENDBRANCH  19  24
ENDBRANCH  18  19
ENDBRANCH   1  18
TORSDOF 5
