REMARK  Name = ZINC39516296
REMARK  8 active torsions:
REMARK  status: ('A' for Active; 'I' for Inactive)
REMARK    1  A    between atoms: C_1  and  C_2
REMARK    2  A    between atoms: C_4  and  C_8
REMARK    3  A    between atoms: N_10  and  C_11
REMARK    4  A    between atoms: C_14  and  C_30
REMARK    5  A    between atoms: C_14  and  C_31
REMARK    6  A    between atoms: N_21  and  C_22
REMARK    7  A    between atoms: C_25  and  O_28
REMARK    8  A    between atoms: O_28  and  C_29
REMARK                            x       y       z     vdW  Elec       q    Type
REMARK                         _______ _______ _______ _____ _____    ______ ____
ROOT
ATOM      1  C   UNL     1      -0.988   0.642  -4.343  0.00  0.00    +0.103 C 
ATOM      2  C   UNL     1      -2.480   0.999  -4.453  0.00  0.00    +0.033 C 
ATOM      3  C   UNL     1      -2.809   1.440  -5.878  0.00  0.00    -0.031 C 
ATOM      4  C   UNL     1      -2.058   2.724  -6.247  0.00  0.00    +0.035 C 
ATOM      5  C   UNL     1      -0.558   2.420  -6.265  0.00  0.00    +0.124 C 
ATOM      6  C   UNL     1      -0.218   1.808  -4.913  0.00  0.00    -0.013 C 
ATOM      7  C   UNL     1       0.781   2.481  -4.412  0.00  0.00    +0.091 C 
ATOM      8  N   UNL     1       1.141   3.542  -5.228  0.00  0.00    -0.271 N 
ATOM      9  N   UNL     1       0.249   3.642  -6.330  0.00  0.00    -0.246 N 
ATOM     10  C   UNL     1      -4.314   1.690  -5.991  0.00  0.00    +0.011 C 
ATOM     11  C   UNL     1      -2.412   0.329  -6.852  0.00  0.00    +0.011 C 
ATOM     12  H   UNL     1       1.895   4.132  -5.071  0.00  0.00    +0.169 HD
ENDROOT
BRANCH   9  13
ATOM     13  C   UNL     1       0.155   4.671  -7.274  0.00  0.00    +0.048 A 
ATOM     14  C   UNL     1       0.886   5.839  -7.103  0.00  0.00    +0.028 A 
ATOM     15  C   UNL     1       0.793   6.854  -8.035  0.00  0.00    +0.047 A 
ATOM     16  C   UNL     1      -0.031   6.707  -9.141  0.00  0.00    +0.120 A 
ATOM     17  C   UNL     1      -0.761   5.541  -9.312  0.00  0.00    +0.047 A 
ATOM     18  C   UNL     1      -0.665   4.522  -8.385  0.00  0.00    +0.028 A 
BRANCH  16  19
ATOM     19  O   UNL     1      -0.122   7.707 -10.058  0.00  0.00    -0.495 OA
ATOM     20  C   UNL     1      -0.989   7.488 -11.173  0.00  0.00    +0.277 C 
ENDBRANCH  16  19
ENDBRANCH   9  13
BRANCH   1  23
ATOM     21  C   UNL     1       0.445  -0.321  -2.623  0.00  0.00    +0.244 C 
ATOM     22  O   UNL     1       1.106  -0.836  -3.504  0.00  0.00    -0.270 OA
ATOM     23  N   UNL     1      -0.624   0.438  -2.939  0.00  0.00    -0.305 N 
ATOM     24  H   UNL     1      -1.151   0.850  -2.237  0.00  0.00    +0.150 HD
BRANCH  21  27
ATOM     25  C   UNL     1       0.157   1.555   0.025  0.00  0.00    +0.040 C 
ATOM     26  C   UNL     1       0.122   0.026   0.023  0.00  0.00    +0.161 C 
ATOM     27  C   UNL     1       0.810  -0.525  -1.214  0.00  0.00    +0.060 C 
ATOM     28  C   UNL     1       1.838  -1.247  -0.715  0.00  0.00    +0.145 C 
ATOM     29  N   UNL     1       1.841  -1.192   0.636  0.00  0.00    -0.161 NA
ATOM     30  N   UNL     1       0.931  -0.515   1.128  0.00  0.00    -0.180 NA
ENDBRANCH  21  27
ENDBRANCH   1  23
TORSDOF 4
