REMARK  Name = ZINC04315717
REMARK  5 active torsions:
REMARK  status: ('A' for Active; 'I' for Inactive)
REMARK    1  A    between atoms: C_5  and  C_7
REMARK    2  A    between atoms: C_10  and  S_13
REMARK    3  A    between atoms: N_11  and  N_12
REMARK    4  A    between atoms: S_13  and  C_14
REMARK    5  A    between atoms: C_14  and  C_15
REMARK                            x       y       z     vdW  Elec       q    Type
REMARK                         _______ _______ _______ _____ _____    ______ ____
ROOT
ATOM      1  C   UNL     1       0.004  -0.006   0.005  0.00  0.00    +0.183 A 
ATOM      2  N   UNL     1      -0.011   1.299   0.139  0.00  0.00    -0.127 NA
ATOM      3  N   UNL     1       1.187   1.760   0.082  0.00  0.00    -0.121 NA
ATOM      4  C   UNL     1       2.041   0.776  -0.092  0.00  0.00    +0.209 A 
ATOM      5  N   UNL     1       1.319  -0.382  -0.146  0.00  0.00    -0.224 N 
ENDROOT
BRANCH   1  10
ATOM      6  C   UNL     1      -2.256  -2.901   0.791  0.00  0.00    +0.001 A 
ATOM      7  C   UNL     1      -3.372  -2.586   0.035  0.00  0.00    +0.001 A 
ATOM      8  C   UNL     1      -3.393  -1.434  -0.731  0.00  0.00    +0.021 A 
ATOM      9  C   UNL     1      -2.301  -0.589  -0.742  0.00  0.00    +0.052 A 
ATOM     10  C   UNL     1      -1.171  -0.904   0.015  0.00  0.00    +0.039 A 
ATOM     11  C   UNL     1      -1.157  -2.068   0.786  0.00  0.00    +0.013 A 
ATOM     12 CL   UNL     1      -2.331   0.860  -1.699  0.00  0.00    -0.083 Cl
ENDBRANCH   1  10
BRANCH   5  13
ATOM     13  N   UNL     1       1.801  -1.648  -0.316  0.00  0.00    -0.295 N 
ATOM     14  H   UNL     1       1.928  -1.859  -1.295  0.00  0.00    +0.163 HD
ATOM     15  H   UNL     1       2.660  -1.780   0.196  0.00  0.00    +0.163 HD
ENDBRANCH   5  13
BRANCH   4  16
ATOM     16  S   UNL     1       3.792   0.923  -0.229  0.00  0.00    -0.080 S 
BRANCH  16  17
ATOM     17  C   UNL     1       3.970   2.717  -0.062  0.00  0.00    +0.112 C 
BRANCH  17  18
ATOM     18  C   UNL     1       5.428   3.087  -0.151  0.00  0.00    -0.036 A 
ATOM     19  C   UNL     1       5.994   3.377  -1.379  0.00  0.00    +0.004 A 
ATOM     20  C   UNL     1       7.331   3.717  -1.461  0.00  0.00    +0.001 A 
ATOM     21  C   UNL     1       8.104   3.767  -0.316  0.00  0.00    +0.015 A 
ATOM     22  C   UNL     1       7.538   3.477   0.912  0.00  0.00    +0.018 A 
ATOM     23  C   UNL     1       6.199   3.142   0.995  0.00  0.00    +0.019 A 
ATOM     24 BR   UNL     1       8.594   3.545   2.480  0.00  0.00    -0.050 Br
ENDBRANCH  17  18
ENDBRANCH  16  17
ENDBRANCH   4  16
TORSDOF 5
