REMARK  Name = ZINC09631103
REMARK  14 active torsions:
REMARK  status: ('A' for Active; 'I' for Inactive)
REMARK    1  A    between atoms: C_1  and  C_2
REMARK    2  A    between atoms: C_5  and  N_9
REMARK    3  A    between atoms: C_6  and  C_8
REMARK    4  A    between atoms: N_9  and  S_10
REMARK    5  A    between atoms: S_10  and  C_13
REMARK    6  A    between atoms: C_16  and  N_22
REMARK    7  A    between atoms: C_17  and  N_19
REMARK    8  A    between atoms: N_22  and  N_23
REMARK    9  A    between atoms: C_24  and  C_25
REMARK   10  A    between atoms: C_28  and  N_31
REMARK   11  A    between atoms: N_31  and  C_32
REMARK   12  A    between atoms: N_31  and  C_33
REMARK   13  A    between atoms: C_33  and  C_34
REMARK   14  A    between atoms: C_34  and  O_35
REMARK                            x       y       z     vdW  Elec       q    Type
REMARK                         _______ _______ _______ _____ _____    ______ ____
ROOT
ATOM      1  C   UNL     1      -7.777   2.659   0.079  0.00  0.00    +0.111 A 
ATOM      2  C   UNL     1      -6.556   3.302   0.159  0.00  0.00    +0.031 A 
ATOM      3  C   UNL     1      -5.407   2.578   0.411  0.00  0.00    +0.029 A 
ATOM      4  C   UNL     1      -5.480   1.201   0.584  0.00  0.00    +0.079 A 
ATOM      5  C   UNL     1      -6.709   0.557   0.497  0.00  0.00    +0.150 A 
ATOM      6  C   UNL     1      -7.854   1.289   0.251  0.00  0.00    +0.063 A 
ENDROOT
BRANCH   1   7
ATOM      7  S   UNL     1      -9.240   3.587  -0.241  0.00  0.00    +0.072 S 
ATOM      8  O   UNL     1     -10.325   2.827   0.274  0.00  0.00    -0.150 OA
ATOM      9  O   UNL     1      -8.976   4.919   0.179  0.00  0.00    -0.150 OA
BRANCH   7  10
ATOM     10  N   UNL     1      -9.437   3.639  -1.885  0.00  0.00    -0.216 N 
ATOM     11  H   UNL     1      -9.451   4.493  -2.345  0.00  0.00    +0.174 HD
BRANCH  10  16
ATOM     12  C   UNL     1     -10.028  -1.173  -4.825  0.00  0.00    +0.044 C 
ATOM     13  C   UNL     1      -9.870   0.105  -4.043  0.00  0.00    -0.050 A 
ATOM     14  C   UNL     1     -10.417   0.212  -2.777  0.00  0.00    +0.005 A 
ATOM     15  C   UNL     1     -10.275   1.383  -2.059  0.00  0.00    +0.025 A 
ATOM     16  C   UNL     1      -9.582   2.454  -2.609  0.00  0.00    +0.051 A 
ATOM     17  C   UNL     1      -9.039   2.345  -3.882  0.00  0.00    -0.028 A 
ATOM     18  C   UNL     1      -9.180   1.170  -4.594  0.00  0.00    +0.008 A 
ATOM     19  C   UNL     1      -8.291   3.506  -4.486  0.00  0.00    +0.046 C 
ENDBRANCH  10  16
ENDBRANCH   7  10
ENDBRANCH   1   7
BRANCH   5  20
ATOM     20  N   UNL     1      -6.791  -0.914   0.675  0.00  0.00    +0.058 N 
ATOM     21  O   UNL     1      -5.913  -1.631   0.231  0.00  0.00    -0.126 OA
ATOM     22  O   UNL     1      -7.737  -1.404   1.265  0.00  0.00    -0.126 OA
ENDBRANCH   5  20
BRANCH   4  23
ATOM     23  N   UNL     1      -4.322   0.466   0.837  0.00  0.00    -0.236 N 
ATOM     24  H   UNL     1      -4.382  -0.483   1.032  0.00  0.00    +0.174 HD
BRANCH  23  25
ATOM     25  N   UNL     1      -3.072   1.097   0.812  0.00  0.00    -0.190 NA
ATOM     26  C   UNL     1      -1.994   0.413   1.048  0.00  0.00    +0.138 C 
BRANCH  26  27
ATOM     27  C   UNL     1      -0.678   1.077   1.021  0.00  0.00    -0.005 A 
ATOM     28  C   UNL     1       0.483   0.343   1.275  0.00  0.00    +0.011 A 
ATOM     29  C   UNL     1       1.711   0.966   1.243  0.00  0.00    +0.024 A 
ATOM     30  C   UNL     1       1.796   2.326   0.964  0.00  0.00    +0.030 A 
ATOM     31  C   UNL     1       0.642   3.061   0.716  0.00  0.00    +0.024 A 
ATOM     32  C   UNL     1      -0.590   2.445   0.747  0.00  0.00    +0.011 A 
BRANCH  30  33
ATOM     33  N   UNL     1       3.042   2.954   0.933  0.00  0.00    -0.331 N 
ATOM     34  C   UNL     1       4.259   2.180   1.193  0.00  0.00    +0.129 C 
BRANCH  33  35
ATOM     35  C   UNL     1       3.133   4.386   0.639  0.00  0.00    +0.132 C 
BRANCH  35  36
ATOM     36  C   UNL     1       3.051   5.180   1.944  0.00  0.00    +0.174 C 
BRANCH  36  37
ATOM     37  O   UNL     1       4.193   4.887   2.752  0.00  0.00    -0.393 OA
ATOM     38  H   UNL     1       4.207   5.357   3.598  0.00  0.00    +0.209 HD
ENDBRANCH  36  37
ENDBRANCH  35  36
ENDBRANCH  33  35
ENDBRANCH  30  33
ENDBRANCH  26  27
ENDBRANCH  23  25
ENDBRANCH   4  23
TORSDOF 11
