REMARK  Name = ZINC06546650
REMARK  13 active torsions:
REMARK  status: ('A' for Active; 'I' for Inactive)
REMARK    1  A    between atoms: C_1  and  C_2
REMARK    2  A    between atoms: C_2  and  O_3
REMARK    3  A    between atoms: O_3  and  C_4
REMARK    4  A    between atoms: C_4  and  C_6
REMARK    5  A    between atoms: C_6  and  N_7
REMARK    6  A    between atoms: C_8  and  C_10
REMARK    7  A    between atoms: C_10  and  C_12
REMARK    8  A    between atoms: C_10  and  N_19
REMARK    9  A    between atoms: N_19  and  C_20
REMARK   10  A    between atoms: C_20  and  C_21
REMARK   11  A    between atoms: C_26  and  C_28
REMARK   12  A    between atoms: C_29  and  N_36
REMARK   13  A    between atoms: C_30  and  C_33
REMARK                            x       y       z     vdW  Elec       q    Type
REMARK                         _______ _______ _______ _____ _____    ______ ____
ROOT
ATOM      1  N   UNL     1      -2.797   1.109   0.180  0.00  0.00    -0.277 N 
ATOM      2  C   UNL     1      -4.117   1.377   0.243  0.00  0.00    +0.258 C 
ATOM      3  O   UNL     1      -4.502   2.531   0.278  0.00  0.00    -0.269 OA
ENDROOT
BRANCH   2   4
ATOM      4  C   UNL     1      -5.087   0.281   0.269  0.00  0.00    +0.115 A 
ATOM      5  C   UNL     1      -6.473   0.329   0.426  0.00  0.00    +0.076 A 
ATOM      6  C   UNL     1      -7.058  -0.937   0.397  0.00  0.00    +0.155 A 
ATOM      7  N   UNL     1      -6.295  -1.995   0.233  0.00  0.00    -0.203 NA
ATOM      8  S   UNL     1      -4.815  -1.471   0.099  0.00  0.00    +0.019 S 
BRANCH   6   9
ATOM      9  C   UNL     1      -8.517  -1.087   0.548  0.00  0.00    +0.262 C 
ATOM     10  O   UNL     1      -9.217  -0.104   0.700  0.00  0.00    -0.269 OA
ATOM     11  N   UNL     1      -9.075  -2.313   0.518  0.00  0.00    -0.324 N 
ATOM     12  H   UNL     1      -8.517  -3.097   0.397  0.00  0.00    +0.145 HD
ATOM     13  H   UNL     1     -10.035  -2.412   0.618  0.00  0.00    +0.145 HD
ENDBRANCH   6   9
BRANCH   5  14
ATOM     14  N   UNL     1      -7.189   1.506   0.595  0.00  0.00    -0.355 N 
ATOM     15  H   UNL     1      -6.726   2.358   0.608  0.00  0.00    +0.142 HD
ATOM     16  H   UNL     1      -8.153   1.476   0.700  0.00  0.00    +0.142 HD
ENDBRANCH   5  14
ENDBRANCH   2   4
BRANCH   1  17
ATOM     17  C   UNL     1      -1.837   2.198  -0.011  0.00  0.00    +0.193 C 
BRANCH  17  18
ATOM     18  C   UNL     1      -1.959   2.736  -1.413  0.00  0.00    -0.018 A 
ATOM     19  C   UNL     1      -2.098   1.865  -2.478  0.00  0.00    +0.009 A 
ATOM     20  C   UNL     1      -2.216   2.357  -3.763  0.00  0.00    +0.038 A 
ATOM     21  C   UNL     1      -2.183   3.724  -3.987  0.00  0.00    +0.123 A 
ATOM     22  C   UNL     1      -2.039   4.595  -2.920  0.00  0.00    +0.038 A 
ATOM     23  C   UNL     1      -1.927   4.100  -1.635  0.00  0.00    +0.009 A 
ATOM     24  F   UNL     1      -2.292   4.206  -5.244  0.00  0.00    -0.205 F 
ENDBRANCH  17  18
BRANCH  17  26
ATOM     25  N   UNL     1       0.605   2.276  -0.401  0.00  0.00    -0.303 N 
ATOM     26  C   UNL     1      -0.439   1.679   0.208  0.00  0.00    +0.239 C 
ATOM     27  O   UNL     1      -0.254   0.720   0.927  0.00  0.00    -0.273 OA
ATOM     28  H   UNL     1       0.457   3.043  -0.976  0.00  0.00    +0.149 HD
BRANCH  25  29
ATOM     29  C   UNL     1       1.963   1.768  -0.193  0.00  0.00    +0.225 C 
BRANCH  29  30
ATOM     30  C   UNL     1       2.938   2.606  -0.979  0.00  0.00    +0.324 C 
ATOM     31  O   UNL     1       2.540   3.532  -1.644  0.00  0.00    -0.249 OA
BRANCH  30  32
ATOM     32  O   UNL     1       4.250   2.322  -0.940  0.00  0.00    -0.464 OA
BRANCH  32  34
ATOM     33  C   UNL     1       6.577   2.698  -1.553  0.00  0.00    +0.048 C 
ATOM     34  C   UNL     1       5.131   3.171  -1.721  0.00  0.00    +0.229 C 
ENDBRANCH  32  34
ENDBRANCH  30  32
ENDBRANCH  29  30
ENDBRANCH  25  29
ENDBRANCH  17  26
ENDBRANCH   1  17
BRANCH   1  35
ATOM     35  C   UNL     1      -2.324  -0.272   0.302  0.00  0.00    +0.151 C 
BRANCH  35  36
ATOM     36  C   UNL     1      -2.333  -0.680   1.753  0.00  0.00    +0.007 A 
ATOM     37  C   UNL     1      -3.366  -1.129   2.507  0.00  0.00    +0.013 A 
ATOM     38  C   UNL     1      -3.139  -1.447   3.833  0.00  0.00    +0.008 A 
ATOM     39  C   UNL     1      -1.891  -1.302   4.340  0.00  0.00    +0.045 A 
ATOM     40  S   UNL     1      -0.985  -0.704   2.923  0.00  0.00    -0.100 S 
ENDBRANCH  35  36
ENDBRANCH   1  35
TORSDOF 12
