REMARK  Name = ZINC41117458
REMARK  6 active torsions:
REMARK  status: ('A' for Active; 'I' for Inactive)
REMARK    1  A    between atoms: C_3  and  C_9
REMARK    2  A    between atoms: C_4  and  O_8
REMARK    3  A    between atoms: C_5  and  O_7
REMARK    4  A    between atoms: C_9  and  N_10
REMARK    5  A    between atoms: N_10  and  C_11
REMARK    6  A    between atoms: C_14  and  C_18
REMARK                            x       y       z     vdW  Elec       q    Type
REMARK                         _______ _______ _______ _____ _____    ______ ____
ROOT
ATOM      1  N   UNL     1       4.198   2.251  -1.388  0.00  0.00    -0.340 N 
ATOM      2  H   UNL     1       3.717   1.820  -2.111  0.00  0.00    +0.146 HD
ENDROOT
BRANCH   1   3
ATOM      3  C   UNL     1       5.389   2.921  -1.647  0.00  0.00    +0.029 A 
ATOM      4  C   UNL     1       6.082   3.534  -0.606  0.00  0.00    +0.024 A 
ATOM      5  C   UNL     1       7.252   4.193  -0.853  0.00  0.00    +0.016 A 
ATOM      6  C   UNL     1       7.761   4.254  -2.154  0.00  0.00    +0.055 A 
ATOM      7  C   UNL     1       7.068   3.638  -3.202  0.00  0.00    +0.055 A 
ATOM      8  C   UNL     1       5.889   2.970  -2.945  0.00  0.00    +0.043 A 
ATOM      9 CL   UNL     1       7.693   3.708  -4.820  0.00  0.00    -0.083 Cl
BRANCH   6  10
ATOM     10  C   UNL     1       9.024   4.965  -2.421  0.00  0.00    +0.243 C 
ATOM     11  O   UNL     1       9.465   5.017  -3.553  0.00  0.00    -0.270 OA
ATOM     12  N   UNL     1       9.690   5.558  -1.411  0.00  0.00    -0.325 N 
ATOM     13  H   UNL     1       9.338   5.517  -0.508  0.00  0.00    +0.145 HD
ATOM     14  H   UNL     1      10.521   6.027  -1.587  0.00  0.00    +0.145 HD
ENDBRANCH   6  10
ENDBRANCH   1   3
BRANCH   1  15
ATOM     15  C   UNL     1       3.670   2.198  -0.023  0.00  0.00    +0.140 C 
BRANCH  15  18
ATOM     16  C   UNL     1      -0.017   1.378   0.010  0.00  0.00    +0.004 A 
ATOM     17  C   UNL     1       1.169   2.089   0.002  0.00  0.00    +0.009 A 
ATOM     18  C   UNL     1       2.379   1.420  -0.013  0.00  0.00    +0.015 A 
ATOM     19  C   UNL     1       2.405   0.035  -0.021  0.00  0.00    +0.163 A 
ATOM     20  C   UNL     1       1.211  -0.680  -0.013  0.00  0.00    +0.159 A 
ATOM     21  C   UNL     1       0.002  -0.004   0.002  0.00  0.00    +0.049 A 
BRANCH  20  22
ATOM     22  O   UNL     1       1.232  -2.040  -0.021  0.00  0.00    -0.503 OA
ATOM     23  H   UNL     1       1.246  -2.438   0.860  0.00  0.00    +0.292 HD
ENDBRANCH  20  22
BRANCH  19  24
ATOM     24  O   UNL     1       3.594  -0.625  -0.037  0.00  0.00    -0.503 OA
ATOM     25  H   UNL     1       3.947  -0.820   0.842  0.00  0.00    +0.292 HD
ENDBRANCH  19  24
ENDBRANCH  15  18
ENDBRANCH   1  15
TORSDOF 6
