REMARK  Name = ZINC32521959
REMARK  10 active torsions:
REMARK  status: ('A' for Active; 'I' for Inactive)
REMARK    1  A    between atoms: C_1  and  C_2
REMARK    2  A    between atoms: C_2  and  C_3
REMARK    3  A    between atoms: C_3  and  C_5
REMARK    4  A    between atoms: C_3  and  S_15
REMARK    5  A    between atoms: N_7  and  C_8
REMARK    6  A    between atoms: C_13  and  C_14
REMARK    7  A    between atoms: S_15  and  C_16
REMARK    8  A    between atoms: C_22  and  C_31
REMARK    9  A    between atoms: C_24  and  C_30
REMARK   10  A    between atoms: C_27  and  C_29
REMARK                            x       y       z     vdW  Elec       q    Type
REMARK                         _______ _______ _______ _____ _____    ______ ____
ROOT
ATOM      1  C   UNL     1       3.762   3.994  -0.778  0.00  0.00    +0.197 A 
ATOM      2  N   UNL     1       4.694   4.903  -0.567  0.00  0.00    -0.122 NA
ATOM      3  N   UNL     1       4.198   5.897   0.073  0.00  0.00    -0.129 NA
ATOM      4  C   UNL     1       2.920   5.668   0.311  0.00  0.00    +0.162 A 
ATOM      5  N   UNL     1       2.662   4.364  -0.063  0.00  0.00    -0.270 N 
ATOM      6  C   UNL     1       1.454   3.779   0.271  0.00  0.00    +0.061 A 
ATOM      7  C   UNL     1       1.247   2.414   0.340  0.00  0.00    -0.026 A 
ATOM      8  C   UNL     1      -0.035   1.903   0.437  0.00  0.00    +0.008 A 
ATOM      9  C   UNL     1      -1.124   2.750   0.549  0.00  0.00    -0.050 A 
ATOM     10  C   UNL     1      -0.931   4.112   0.626  0.00  0.00    +0.013 A 
ATOM     11  C   UNL     1       0.366   4.629   0.589  0.00  0.00    +0.002 A 
ATOM     12  C   UNL     1       0.626   6.037   0.896  0.00  0.00    -0.038 A 
ATOM     13  C   UNL     1       1.892   6.505   0.801  0.00  0.00    +0.052 A 
ATOM     14  C   UNL     1      -0.479   6.956   1.347  0.00  0.00    +0.044 C 
ATOM     15  C   UNL     1      -2.521   2.187   0.582  0.00  0.00    +0.044 C 
ATOM     16  C   UNL     1       2.396   1.439   0.399  0.00  0.00    +0.046 C 
ENDROOT
BRANCH   1  17
ATOM     17  S   UNL     1       3.936   2.611  -1.856  0.00  0.00    -0.073 S 
BRANCH  17  18
ATOM     18  C   UNL     1       5.598   2.924  -2.502  0.00  0.00    +0.140 C 
BRANCH  18  19
ATOM     19  C   UNL     1       6.611   2.706  -1.408  0.00  0.00    +0.231 C 
ATOM     20  O   UNL     1       6.353   1.969  -0.480  0.00  0.00    -0.274 OA
ATOM     21  N   UNL     1       7.804   3.331  -1.460  0.00  0.00    -0.284 N 
ATOM     22  H   UNL     1       8.074   3.928  -2.343  0.00  0.00    +0.155 HD
BRANCH  21  23
ATOM     23  C   UNL     1       8.700   3.220  -0.391  0.00  0.00    +0.036 A 
ATOM     24  C   UNL     1       8.229   2.932   0.884  0.00  0.00    +0.023 A 
ATOM     25  C   UNL     1       9.116   2.818   1.936  0.00  0.00    +0.002 A 
ATOM     26  C   UNL     1      10.471   3.000   1.724  0.00  0.00    +0.000 A 
ATOM     27  C   UNL     1      10.942   3.291   0.457  0.00  0.00    +0.005 A 
ATOM     28  C   UNL     1      10.060   3.402  -0.601  0.00  0.00    -0.029 A 
ATOM     29  C   UNL     1      10.574   3.721  -1.981  0.00  0.00    +0.045 C 
ENDBRANCH  21  23
ENDBRANCH  18  19
BRANCH  18  31
ATOM     30  C   UNL     1       4.950   2.285  -4.829  0.00  0.00    +0.005 C 
ATOM     31  C   UNL     1       5.884   1.965  -3.660  0.00  0.00    +0.020 C 
ENDBRANCH  18  31
ENDBRANCH  17  18
ENDBRANCH   1  17
TORSDOF 5
