REMARK  Name = ZINC45605893
REMARK  5 active torsions:
REMARK  status: ('A' for Active; 'I' for Inactive)
REMARK    1  A    between atoms: C_4  and  C_7
REMARK    2  A    between atoms: C_9  and  C_12
REMARK    3  A    between atoms: N_14  and  N_15
REMARK    4  A    between atoms: C_16  and  C_18
REMARK    5  A    between atoms: C_21  and  C_23
REMARK                            x       y       z     vdW  Elec       q    Type
REMARK                         _______ _______ _______ _____ _____    ______ ____
ROOT
ATOM      1  C   UNL     1       5.874  -3.646  -0.083  0.00  0.00    +0.282 C 
ATOM      2  O   UNL     1       5.178  -4.642  -0.087  0.00  0.00    -0.267 OA
ATOM      3  N   UNL     1       7.217  -3.763  -0.095  0.00  0.00    -0.229 N 
ATOM      4  H   UNL     1       7.772  -2.967  -0.092  0.00  0.00    +0.173 HD
ENDROOT
BRANCH   1   7
ATOM      5  C   UNL     1       3.696  -0.685  -0.037  0.00  0.00    +0.168 A 
ATOM      6  C   UNL     1       3.860  -2.034  -0.052  0.00  0.00    +0.086 A 
ATOM      7  C   UNL     1       5.246  -2.302  -0.065  0.00  0.00    +0.170 A 
ATOM      8  N   UNL     1       5.881  -1.154  -0.059  0.00  0.00    -0.073 NA
ATOM      9  O   UNL     1       4.916  -0.118  -0.047  0.00  0.00    -0.354 OA
BRANCH   5  13
ATOM     10  C   UNL     1      -0.017   1.379   0.010  0.00  0.00    +0.000 A 
ATOM     11  C   UNL     1       1.168   2.093   0.002  0.00  0.00    +0.001 A 
ATOM     12  C   UNL     1       2.377   1.429  -0.013  0.00  0.00    +0.011 A 
ATOM     13  C   UNL     1       2.403   0.034  -0.021  0.00  0.00    +0.020 A 
ATOM     14  C   UNL     1       1.204  -0.681  -0.013  0.00  0.00    +0.011 A 
ATOM     15  C   UNL     1       0.002  -0.004   0.002  0.00  0.00    +0.001 A 
ENDBRANCH   5  13
ENDBRANCH   1   7
BRANCH   3  16
ATOM     16  N   UNL     1       7.810  -5.032  -0.112  0.00  0.00    -0.229 N 
ATOM     17  C   UNL     1       9.152  -5.148  -0.124  0.00  0.00    +0.279 C 
ATOM     18  O   UNL     1       9.849  -4.151  -0.120  0.00  0.00    -0.267 OA
ATOM     19  H   UNL     1       7.254  -5.827  -0.115  0.00  0.00    +0.173 HD
BRANCH  17  20
ATOM     20  C   UNL     1       9.776  -6.482  -0.142  0.00  0.00    +0.135 A 
ATOM     21  C   UNL     1      11.140  -6.612  -0.148  0.00  0.00    +0.080 A 
ATOM     22  S   UNL     1      11.347  -8.282  -0.168  0.00  0.00    -0.075 S 
ATOM     23  C   UNL     1       9.626  -8.751  -0.166  0.00  0.00    +0.109 A 
ATOM     24  N   UNL     1       9.025  -7.575  -0.146  0.00  0.00    -0.234 NA
BRANCH  23  25
ATOM     25  C   UNL     1       9.027 -10.104  -0.180  0.00  0.00    +0.007 A 
ATOM     26  C   UNL     1       7.641 -10.257  -0.182  0.00  0.00    +0.010 A 
ATOM     27  C   UNL     1       7.089 -11.521  -0.194  0.00  0.00    +0.001 A 
ATOM     28  C   UNL     1       7.907 -12.636  -0.204  0.00  0.00    +0.000 A 
ATOM     29  C   UNL     1       9.283 -12.492  -0.201  0.00  0.00    +0.001 A 
ATOM     30  C   UNL     1       9.848 -11.232  -0.195  0.00  0.00    +0.010 A 
ENDBRANCH  23  25
ENDBRANCH  17  20
ENDBRANCH   3  16
TORSDOF 5
