REMARK  Name = ZINC12770563
REMARK  7 active torsions:
REMARK  status: ('A' for Active; 'I' for Inactive)
REMARK    1  A    between atoms: C_1  and  O_2
REMARK    2  A    between atoms: O_2  and  C_3
REMARK    3  A    between atoms: C_8  and  O_9
REMARK    4  A    between atoms: O_9  and  C_10
REMARK    5  A    between atoms: C_11  and  C_31
REMARK    6  A    between atoms: N_13  and  S_16
REMARK    7  A    between atoms: S_16  and  C_19
REMARK                            x       y       z     vdW  Elec       q    Type
REMARK                         _______ _______ _______ _____ _____    ______ ____
ROOT
ATOM      1  C   UNL     1       0.492   3.460   1.264  0.00  0.00    +0.162 A 
ATOM      2  C   UNL     1       0.771   4.519   0.421  0.00  0.00    +0.053 A 
ATOM      3  C   UNL     1       0.139   5.745   0.591  0.00  0.00    -0.037 A 
ATOM      4  C   UNL     1      -0.773   5.905   1.611  0.00  0.00    -0.017 A 
ATOM      5  C   UNL     1      -1.050   4.847   2.467  0.00  0.00    +0.055 A 
ATOM      6  C   UNL     1      -0.423   3.626   2.300  0.00  0.00    +0.162 A 
ATOM      7  C   UNL     1      -1.511   7.201   1.837  0.00  0.00    +0.147 C 
ATOM      8  N   UNL     1      -0.908   8.262   1.023  0.00  0.00    -0.164 NA
ATOM      9  C   UNL     1      -0.576   7.936  -0.374  0.00  0.00    +0.115 C 
ATOM     10  C   UNL     1       0.502   6.854  -0.361  0.00  0.00    +0.052 C 
ENDROOT
BRANCH   7  11
ATOM     11  C   UNL     1      -1.428   7.579   3.293  0.00  0.00    +0.013 A 
ATOM     12  C   UNL     1      -2.431   7.858   4.161  0.00  0.00    +0.013 A 
ATOM     13  C   UNL     1      -2.117   8.180   5.468  0.00  0.00    +0.008 A 
ATOM     14  C   UNL     1      -0.814   8.217   5.841  0.00  0.00    +0.045 A 
ATOM     15  S   UNL     1       0.017   7.781   4.322  0.00  0.00    -0.100 S 
ENDBRANCH   7  11
BRANCH   8  16
ATOM     16  S   UNL     1      -0.611   9.765   1.650  0.00  0.00    +0.062 S 
ATOM     17  O   UNL     1      -0.940   9.701   3.031  0.00  0.00    -0.153 OA
ATOM     18  O   UNL     1       0.677  10.150   1.191  0.00  0.00    -0.153 OA
BRANCH  16  19
ATOM     19  C   UNL     1      -1.762  10.875   0.910  0.00  0.00    +0.108 A 
ATOM     20  C   UNL     1      -2.992  11.093   1.507  0.00  0.00    +0.030 A 
ATOM     21  C   UNL     1      -3.900  11.961   0.935  0.00  0.00    +0.030 A 
ATOM     22  C   UNL     1      -3.579  12.618  -0.244  0.00  0.00    +0.067 A 
ATOM     23  C   UNL     1      -2.339  12.398  -0.847  0.00  0.00    +0.069 A 
ATOM     24  C   UNL     1      -1.431  11.528  -0.261  0.00  0.00    +0.056 A 
ATOM     25  N   UNL     1      -2.306  13.183  -1.997  0.00  0.00    -0.306 N 
ATOM     26  H   UNL     1      -1.568  13.240  -2.624  0.00  0.00    +0.170 HD
ATOM     27  C   UNL     1      -3.472  13.849  -2.090  0.00  0.00    +0.325 A 
ATOM     28  O   UNL     1      -3.768  14.624  -2.980  0.00  0.00    -0.247 OA
ATOM     29  N   UNL     1      -4.261  13.529  -1.046  0.00  0.00    -0.306 N 
ATOM     30  H   UNL     1      -5.152  13.875  -0.882  0.00  0.00    +0.170 HD
ENDBRANCH  16  19
ENDBRANCH   8  16
BRANCH   1  32
ATOM     31  C   UNL     1       2.039   2.167   0.003  0.00  0.00    +0.277 C 
ATOM     32  O   UNL     1       1.113   2.263   1.086  0.00  0.00    -0.491 OA
ENDBRANCH   1  32
BRANCH   6  33
ATOM     33  O   UNL     1      -0.699   2.594   3.141  0.00  0.00    -0.491 OA
ATOM     34  C   UNL     1      -1.649   2.840   4.180  0.00  0.00    +0.277 C 
ENDBRANCH   6  33
TORSDOF 5
