REMARK  Name = ZINC00893749
REMARK  6 active torsions:
REMARK  status: ('A' for Active; 'I' for Inactive)
REMARK    1  A    between atoms: C_1  and  C_2
REMARK    2  A    between atoms: C_6  and  C_15
REMARK    3  A    between atoms: C_13  and  C_14
REMARK    4  A    between atoms: C_15  and  C_17
REMARK    5  A    between atoms: C_15  and  N_63
REMARK    6  A    between atoms: N_21  and  C_22
REMARK                            x       y       z     vdW  Elec       q    Type
REMARK                         _______ _______ _______ _____ _____    ______ ____
ROOT
ATOM      1  C   UNL     1       2.531  -0.331  -0.056  0.00  0.00    +0.039 C 
ENDROOT
BRANCH   1   7
ATOM      2  C   UNL     1       5.607   2.267   6.222  0.00  0.00    +0.044 C 
ATOM      3  C   UNL     1       5.140   1.119   5.365  0.00  0.00    -0.047 A 
ATOM      4  C   UNL     1       4.585   1.369   4.141  0.00  0.00    +0.013 A 
ATOM      5  C   UNL     1       4.152   0.304   3.345  0.00  0.00    -0.001 A 
ATOM      6  C   UNL     1       3.553   0.537   2.030  0.00  0.00    +0.017 A 
ATOM      7  C   UNL     1       3.151  -0.535   1.303  0.00  0.00    +0.011 A 
ATOM      8  C   UNL     1       3.307  -1.841   1.815  0.00  0.00    +0.251 A 
ATOM      9  O   UNL     1       2.935  -2.790   1.147  0.00  0.00    -0.268 OA
ATOM     10  N   UNL     1       3.862  -2.064   3.019  0.00  0.00    -0.322 N 
ATOM     11  H   UNL     1       3.965  -3.003   3.348  0.00  0.00    +0.169 HD
ATOM     12  C   UNL     1       4.290  -1.018   3.808  0.00  0.00    +0.049 A 
ATOM     13  C   UNL     1       4.858  -1.249   5.057  0.00  0.00    +0.030 A 
ATOM     14  C   UNL     1       5.278  -0.183   5.824  0.00  0.00    -0.046 A 
ATOM     15  C   UNL     1       5.893  -0.435   7.176  0.00  0.00    +0.044 C 
ENDBRANCH   1   7
BRANCH   1  22
ATOM     16  C   UNL     1       4.725  -0.838  -0.970  0.00  0.00    -0.077 C 
ATOM     17  C   UNL     1       5.494  -1.395  -2.136  0.00  0.00    -0.019 C 
ATOM     18  C   UNL     1       5.632  -0.291  -3.205  0.00  0.00    -0.002 C 
ATOM     19  C   UNL     1       4.411  -0.124  -3.986  0.00  0.00    -0.002 C 
ATOM     20  C   UNL     1       3.210   0.289  -3.109  0.00  0.00    -0.019 C 
ATOM     21  C   UNL     1       2.691  -0.934  -2.404  0.00  0.00    -0.077 C 
ATOM     22  N   UNL     1       3.258  -1.158  -1.031  0.00  0.00    +0.389 N 
ATOM     23  H   UNL     1       3.132  -2.147  -0.786  0.00  0.00    -0.080 HD
ENDBRANCH   1  22
BRANCH   1  24
ATOM     24  C   UNL     1       1.095  -0.789  -0.026  0.00  0.00    +0.143 A 
ATOM     25  N   UNL     1       0.669  -2.028  -0.023  0.00  0.00    -0.115 NA
ATOM     26  N   UNL     1      -0.619  -2.006   0.005  0.00  0.00    -0.023 NA
ATOM     27  N   UNL     1      -1.025  -0.784   0.026  0.00  0.00    -0.044 NA
ATOM     28  N   UNL     1       0.002  -0.004   0.002  0.00  0.00    -0.227 N 
BRANCH  28  29
ATOM     29  C   UNL     1      -0.018   1.461   0.010  0.00  0.00    +0.111 C 
ATOM     30  C   UNL     1      -0.768   1.972   1.257  0.00  0.00    +0.027 C 
ATOM     31  C   UNL     1      -1.536   3.220   0.752  0.00  0.00    +0.002 C 
ATOM     32  C   UNL     1      -1.983   2.796  -0.668  0.00  0.00    +0.002 C 
ATOM     33  C   UNL     1      -0.790   1.984  -1.214  0.00  0.00    +0.027 C 
ENDBRANCH  28  29
ENDBRANCH   1  24
TORSDOF 4
