REMARK  Name = ZINC09285263
REMARK  9 active torsions:
REMARK  status: ('A' for Active; 'I' for Inactive)
REMARK    1  A    between atoms: C_1  and  C_2
REMARK    2  A    between atoms: C_3  and  C_31
REMARK    3  A    between atoms: C_4  and  C_29
REMARK    4  A    between atoms: C_5  and  S_9
REMARK    5  A    between atoms: C_7  and  C_8
REMARK    6  A    between atoms: S_9  and  C_10
REMARK    7  A    between atoms: C_10  and  C_11
REMARK    8  A    between atoms: N_13  and  N_14
REMARK    9  A    between atoms: C_15  and  C_17
REMARK                            x       y       z     vdW  Elec       q    Type
REMARK                         _______ _______ _______ _____ _____    ______ ____
ROOT
ATOM      1  C   UNL     1       3.051   2.204   5.345  0.00  0.00    +0.239 C 
ATOM      2  O   UNL     1       2.716   2.589   6.445  0.00  0.00    -0.273 OA
ATOM      3  N   UNL     1       4.345   1.922   5.095  0.00  0.00    -0.233 N 
ATOM      4  H   UNL     1       4.613   1.614   4.215  0.00  0.00    +0.173 HD
ENDROOT
BRANCH   3   5
ATOM      5  N   UNL     1       5.303   2.074   6.106  0.00  0.00    -0.229 N 
ATOM      6  C   UNL     1       6.597   1.792   5.856  0.00  0.00    +0.281 C 
ATOM      7  O   UNL     1       6.933   1.406   4.753  0.00  0.00    -0.267 OA
ATOM      8  H   UNL     1       5.035   2.381   6.986  0.00  0.00    +0.173 HD
BRANCH   6   9
ATOM      9  C   UNL     1       7.606   1.951   6.921  0.00  0.00    +0.155 A 
ATOM     10  C   UNL     1       9.021   1.640   6.659  0.00  0.00    +0.020 A 
ATOM     11  C   UNL     1       9.479   1.200   5.422  0.00  0.00    +0.011 A 
ATOM     12  C   UNL     1      10.821   0.934   5.253  0.00  0.00    +0.001 A 
ATOM     13  C   UNL     1      11.718   1.106   6.300  0.00  0.00    +0.001 A 
ATOM     14  C   UNL     1      11.285   1.547   7.532  0.00  0.00    +0.014 A 
ATOM     15  C   UNL     1       9.935   1.821   7.723  0.00  0.00    +0.050 A 
ATOM     16  C   UNL     1       9.389   2.293   9.003  0.00  0.00    +0.272 A 
ATOM     17  O   UNL     1      10.116   2.466   9.964  0.00  0.00    -0.266 OA
ATOM     18  N   UNL     1       8.064   2.531   9.089  0.00  0.00    -0.242 N 
ATOM     19  H   UNL     1       7.707   2.843   9.935  0.00  0.00    +0.192 HD
ATOM     20  N   UNL     1       7.253   2.367   8.113  0.00  0.00    -0.166 NA
ENDBRANCH   6   9
ENDBRANCH   3   5
BRANCH   1  21
ATOM     21  C   UNL     1       2.021   2.041   4.257  0.00  0.00    +0.173 C 
BRANCH  21  22
ATOM     22  S   UNL     1       0.390   2.494   4.898  0.00  0.00    -0.095 S 
BRANCH  22  27
ATOM     23  C   UNL     1      -2.858   1.534  -0.056  0.00  0.00    +0.046 C 
ATOM     24  C   UNL     1      -2.084   1.785   1.212  0.00  0.00    -0.025 A 
ATOM     25  C   UNL     1      -2.736   2.227   2.351  0.00  0.00    -0.026 A 
ATOM     26  C   UNL     1      -1.978   2.453   3.505  0.00  0.00    +0.087 A 
ATOM     27  C   UNL     1      -0.592   2.218   3.461  0.00  0.00    +0.115 A 
ATOM     28  N   UNL     1      -0.020   1.791   2.345  0.00  0.00    -0.244 NA
ATOM     29  C   UNL     1      -0.718   1.572   1.248  0.00  0.00    +0.043 A 
ATOM     30  C   UNL     1      -0.013   1.086   0.008  0.00  0.00    +0.066 C 
ATOM     31  C   UNL     1      -4.224   2.463   2.346  0.00  0.00    +0.045 C 
BRANCH  26  32
ATOM     32  C   UNL     1      -2.602   2.915   4.708  0.00  0.00    +0.102 C 
ATOM     33  N   UNL     1      -3.097   3.282   5.663  0.00  0.00    -0.191 NA
ENDBRANCH  26  32
ENDBRANCH  22  27
ENDBRANCH  21  22
ENDBRANCH   1  21
TORSDOF 6
