REMARK  Name = ZINC04541225
REMARK  9 active torsions:
REMARK  status: ('A' for Active; 'I' for Inactive)
REMARK    1  A    between atoms: C_1  and  C_2
REMARK    2  A    between atoms: C_5  and  C_8
REMARK    3  A    between atoms: C_11  and  S_20
REMARK    4  A    between atoms: N_12  and  C_13
REMARK    5  A    between atoms: C_16  and  C_19
REMARK    6  A    between atoms: S_20  and  C_21
REMARK    7  A    between atoms: C_21  and  C_23
REMARK    8  A    between atoms: C_21  and  C_24
REMARK    9  A    between atoms: N_29  and  C_30
REMARK                            x       y       z     vdW  Elec       q    Type
REMARK                         _______ _______ _______ _____ _____    ______ ____
ROOT
ATOM      1  C   UNL     1       2.766  -6.646  -0.787  0.00  0.00    +0.169 A 
ATOM      2  N   UNL     1       1.530  -6.362  -0.447  0.00  0.00    -0.128 NA
ATOM      3  N   UNL     1       1.355  -5.089  -0.449  0.00  0.00    -0.122 NA
ATOM      4  C   UNL     1       2.466  -4.480  -0.801  0.00  0.00    +0.197 A 
ATOM      5  N   UNL     1       3.405  -5.449  -1.024  0.00  0.00    -0.270 N 
ENDROOT
BRANCH   1  10
ATOM      6  C   UNL     1       5.076 -11.900  -1.209  0.00  0.00    +0.044 C 
ATOM      7  C   UNL     1       4.471 -10.524  -1.099  0.00  0.00    -0.050 A 
ATOM      8  C   UNL     1       5.293  -9.416  -1.003  0.00  0.00    +0.004 A 
ATOM      9  C   UNL     1       4.746  -8.153  -0.901  0.00  0.00    +0.012 A 
ATOM     10  C   UNL     1       3.359  -7.996  -0.895  0.00  0.00    +0.020 A 
ATOM     11  C   UNL     1       2.535  -9.119  -0.986  0.00  0.00    +0.012 A 
ATOM     12  C   UNL     1       3.095 -10.375  -1.093  0.00  0.00    +0.004 A 
ENDBRANCH   1  10
BRANCH   5  13
ATOM     13  C   UNL     1       4.739  -5.263  -1.414  0.00  0.00    +0.051 A 
ATOM     14  C   UNL     1       5.159  -5.667  -2.674  0.00  0.00    +0.026 A 
ATOM     15  C   UNL     1       6.472  -5.477  -3.057  0.00  0.00    +0.005 A 
ATOM     16  C   UNL     1       7.371  -4.895  -2.182  0.00  0.00    -0.050 A 
ATOM     17  C   UNL     1       6.957  -4.496  -0.924  0.00  0.00    +0.005 A 
ATOM     18  C   UNL     1       5.644  -4.679  -0.538  0.00  0.00    +0.026 A 
ATOM     19  C   UNL     1       8.805  -4.695  -2.600  0.00  0.00    +0.044 C 
ENDBRANCH   5  13
BRANCH   4  20
ATOM     20  S   UNL     1       2.702  -2.740  -0.948  0.00  0.00    -0.073 S 
BRANCH  20  21
ATOM     21  C   UNL     1       1.047  -2.159  -0.502  0.00  0.00    +0.137 C 
ATOM     22  C   UNL     1       0.758  -2.514   0.958  0.00  0.00    +0.029 C 
BRANCH  21  23
ATOM     23  C   UNL     1       0.975  -0.664  -0.679  0.00  0.00    +0.233 C 
ATOM     24  O   UNL     1       1.994  -0.008  -0.709  0.00  0.00    -0.274 OA
ATOM     25  N   UNL     1      -0.222  -0.057  -0.803  0.00  0.00    -0.239 N 
ATOM     26  C   UNL     1      -0.286   1.280  -0.962  0.00  0.00    +0.306 C 
ATOM     27  O   UNL     1       0.735   1.938  -0.992  0.00  0.00    -0.252 OA
ATOM     28  N   UNL     1      -1.483   1.886  -1.091  0.00  0.00    -0.302 N 
ATOM     29  C   UNL     1      -1.553   3.339  -1.263  0.00  0.00    +0.129 C 
ATOM     30  H   UNL     1      -1.037  -0.583  -0.779  0.00  0.00    +0.159 HD
ATOM     31  H   UNL     1      -2.298   1.360  -1.071  0.00  0.00    +0.150 HD
ENDBRANCH  21  23
ENDBRANCH  20  21
ENDBRANCH   4  20
TORSDOF 5
