REMARK  Name = ZINC54636731
REMARK  7 active torsions:
REMARK  status: ('A' for Active; 'I' for Inactive)
REMARK    1  A    between atoms: C_1  and  N_2
REMARK    2  A    between atoms: N_2  and  C_3
REMARK    3  A    between atoms: N_2  and  C_6
REMARK    4  A    between atoms: C_3  and  C_4
REMARK    5  A    between atoms: C_7  and  N_22
REMARK    6  A    between atoms: N_8  and  C_15
REMARK    7  A    between atoms: C_15  and  C_16
REMARK                            x       y       z     vdW  Elec       q    Type
REMARK                         _______ _______ _______ _____ _____    ______ ____
ROOT
ATOM      1  C   UNL     1      -0.015  -0.749  -1.189  0.00  0.00    +0.134 A 
ATOM      2  C   UNL     1       0.003  -0.091  -2.389  0.00  0.00    +0.127 A 
ATOM      3  N   UNL     1      -0.004  -0.817  -3.558  0.00  0.00    -0.276 N 
ATOM      4  C   UNL     1      -0.027  -2.162  -3.523  0.00  0.00    +0.331 A 
ATOM      5  O   UNL     1      -0.032  -2.788  -4.566  0.00  0.00    -0.246 OA
ATOM      6  N   UNL     1      -0.044  -2.826  -2.353  0.00  0.00    -0.273 N 
ATOM      7  H   UNL     1      -0.061  -3.796  -2.350  0.00  0.00    +0.173 HD
ATOM      8  C   UNL     1      -0.033  -2.155  -1.184  0.00  0.00    +0.277 A 
ATOM      9  O   UNL     1      -0.043  -2.764  -0.127  0.00  0.00    -0.266 OA
ENDROOT
BRANCH   2  10
ATOM     10  N   UNL     1       0.026   1.285  -2.426  0.00  0.00    -0.343 N 
ATOM     11  H   UNL     1      -0.041   1.794  -1.603  0.00  0.00    +0.144 HD
ATOM     12  H   UNL     1       0.110   1.746  -3.276  0.00  0.00    +0.144 HD
ENDBRANCH   2  10
BRANCH   1  14
ATOM     13  C   UNL     1      -1.170  -0.082   0.917  0.00  0.00    +0.130 C 
ATOM     14  N   UNL     1      -0.008  -0.026   0.026  0.00  0.00    -0.315 N 
BRANCH  14  15
ATOM     15  C   UNL     1       1.159   0.778   0.394  0.00  0.00    +0.194 C 
BRANCH  15  16
ATOM     16  C   UNL     1       2.121  -0.061   1.129  0.00  0.00    -0.086 C 
ATOM     17  C   UNL     1       2.888  -0.729   1.715  0.00  0.00    +0.005 C 
ENDBRANCH  15  16
ENDBRANCH  14  15
ENDBRANCH   1  14
BRANCH   3  18
ATOM     18  C   UNL     1       0.014  -0.122  -4.848  0.00  0.00    +0.163 C 
BRANCH  18  19
ATOM     19  C   UNL     1       1.441   0.092  -5.283  0.00  0.00    -0.028 A 
ATOM     20  C   UNL     1       2.112   1.241  -4.910  0.00  0.00    +0.005 A 
ATOM     21  C   UNL     1       3.421   1.438  -5.309  0.00  0.00    +0.000 A 
ATOM     22  C   UNL     1       4.059   0.485  -6.081  0.00  0.00    +0.000 A 
ATOM     23  C   UNL     1       3.388  -0.665  -6.453  0.00  0.00    +0.000 A 
ATOM     24  C   UNL     1       2.080  -0.864  -6.050  0.00  0.00    +0.005 A 
ENDBRANCH  18  19
ENDBRANCH   3  18
TORSDOF 6
