REMARK  Name = ZINC07659894
REMARK  12 active torsions:
REMARK  status: ('A' for Active; 'I' for Inactive)
REMARK    1  A    between atoms: C_1  and  C_2
REMARK    2  A    between atoms: C_2  and  C_23
REMARK    3  A    between atoms: N_5  and  N_9
REMARK    4  A    between atoms: C_10  and  C_12
REMARK    5  A    between atoms: C_12  and  N_13
REMARK    6  A    between atoms: N_13  and  C_14
REMARK    7  A    between atoms: N_13  and  C_15
REMARK    8  A    between atoms: C_15  and  C_16
REMARK    9  A    between atoms: N_18  and  C_19
REMARK   10  A    between atoms: C_19  and  C_20
REMARK   11  A    between atoms: C_19  and  C_21
REMARK   12  A    between atoms: C_19  and  C_22
REMARK                            x       y       z     vdW  Elec       q    Type
REMARK                         _______ _______ _______ _____ _____    ______ ____
ROOT
ATOM      1  N   UNL     1       2.826  -1.867  -1.372  0.00  0.00    -0.225 N 
ATOM      2  C   UNL     1       4.063  -1.337  -1.451  0.00  0.00    +0.213 C 
ATOM      3  O   UNL     1       4.316  -0.299  -0.878  0.00  0.00    -0.276 OA
ATOM      4  H   UNL     1       2.623  -2.697  -1.830  0.00  0.00    +0.173 HD
ENDROOT
BRANCH   1   9
ATOM      5  C   UNL     1      -0.019   1.526   0.010  0.00  0.00    +0.047 C 
ATOM      6  C   UNL     1       0.002  -0.004   0.002  0.00  0.00    +0.137 C 
ATOM      7  C   UNL     1       0.815  -0.520  -1.169  0.00  0.00    +0.267 C 
ATOM      8  O   UNL     1       0.595  -0.342  -2.348  0.00  0.00    -0.271 OA
ATOM      9  N   UNL     1       1.833  -1.217  -0.627  0.00  0.00    -0.137 N 
ATOM     10  C   UNL     1       1.777  -1.214   0.710  0.00  0.00    +0.327 C 
ATOM     11  O   UNL     1       2.586  -1.776   1.421  0.00  0.00    -0.251 OA
ATOM     12  N   UNL     1       0.724  -0.519   1.178  0.00  0.00    -0.280 N 
ATOM     13  H   UNL     1       0.487  -0.383   2.109  0.00  0.00    +0.152 HD
BRANCH   6  14
ATOM     14  C   UNL     1      -1.401  -0.551  -0.040  0.00  0.00    -0.015 A 
ATOM     15  C   UNL     1      -2.005  -0.815  -1.256  0.00  0.00    +0.006 A 
ATOM     16  C   UNL     1      -3.292  -1.317  -1.294  0.00  0.00    +0.000 A 
ATOM     17  C   UNL     1      -3.976  -1.556  -0.117  0.00  0.00    +0.000 A 
ATOM     18  C   UNL     1      -3.372  -1.294   1.099  0.00  0.00    +0.000 A 
ATOM     19  C   UNL     1      -2.083  -0.796   1.137  0.00  0.00    +0.006 A 
ENDBRANCH   6  14
ENDBRANCH   1   9
BRANCH   2  20
ATOM     20  C   UNL     1       5.131  -2.036  -2.252  0.00  0.00    +0.020 C 
BRANCH  20  21
ATOM     21  N   UNL     1       6.379  -1.264  -2.181  0.00  0.00    +0.389 N 
ATOM     22  C   UNL     1       6.189   0.036  -2.838  0.00  0.00    -0.095 C 
ATOM     23  H   UNL     1       6.631  -1.119  -1.215  0.00  0.00    -0.081 HD
BRANCH  21  24
ATOM     24  C   UNL     1       7.452  -2.003  -2.861  0.00  0.00    +0.019 C 
BRANCH  24  25
ATOM     25  C   UNL     1       8.757  -1.272  -2.683  0.00  0.00    +0.197 C 
ATOM     26  O   UNL     1       8.791  -0.236  -2.052  0.00  0.00    -0.278 OA
ATOM     27  N   UNL     1       9.887  -1.768  -3.224  0.00  0.00    -0.312 N 
ATOM     28  H   UNL     1       9.860  -2.596  -3.729  0.00  0.00    +0.149 HD
BRANCH  27  29
ATOM     29  C   UNL     1      11.156  -1.057  -3.051  0.00  0.00    +0.026 C 
ATOM     30  C   UNL     1      11.479  -0.946  -1.560  0.00  0.00    +0.031 C 
ATOM     31  C   UNL     1      12.273  -1.827  -3.759  0.00  0.00    +0.031 C 
ATOM     32  C   UNL     1      11.042   0.345  -3.654  0.00  0.00    +0.031 C 
ENDBRANCH  27  29
ENDBRANCH  24  25
ENDBRANCH  21  24
ENDBRANCH  20  21
ENDBRANCH   2  20
TORSDOF 7
