REMARK  Name = ZINC28566812
REMARK  9 active torsions:
REMARK  status: ('A' for Active; 'I' for Inactive)
REMARK    1  A    between atoms: C_1  and  C_2
REMARK    2  A    between atoms: C_2  and  C_4
REMARK    3  A    between atoms: C_7  and  C_10
REMARK    4  A    between atoms: C_11  and  C_27
REMARK    5  A    between atoms: C_12  and  N_26
REMARK    6  A    between atoms: C_14  and  S_18
REMARK    7  A    between atoms: C_15  and  C_16
REMARK    8  A    between atoms: S_18  and  C_19
REMARK    9  A    between atoms: C_22  and  O_25
REMARK                            x       y       z     vdW  Elec       q    Type
REMARK                         _______ _______ _______ _____ _____    ______ ____
ROOT
ATOM      1  C   UNL     1      -5.013   4.000   0.051  0.00  0.00    +0.023 A 
ATOM      2  C   UNL     1      -5.900   3.916  -1.041  0.00  0.00    +0.100 A 
ATOM      3  C   UNL     1      -7.120   4.614  -0.983  0.00  0.00    +0.136 A 
ATOM      4  N   UNL     1      -7.434   5.350   0.071  0.00  0.00    -0.223 NA
ATOM      5  C   UNL     1      -6.629   5.462   1.117  0.00  0.00    +0.122 A 
ATOM      6  C   UNL     1      -5.389   4.795   1.151  0.00  0.00    +0.093 A 
ENDROOT
BRANCH   1  10
ATOM      7  C   UNL     1      -1.298   1.929   0.016  0.00  0.00    +0.017 A 
ATOM      8  C   UNL     1      -1.319   3.329   0.026  0.00  0.00    +0.012 A 
ATOM      9  C   UNL     1      -2.522   3.997   0.032  0.00  0.00    +0.009 A 
ATOM     10  C   UNL     1      -3.721   3.280   0.039  0.00  0.00    -0.015 A 
ATOM     11  C   UNL     1      -3.700   1.883   0.034  0.00  0.00    +0.009 A 
ATOM     12  C   UNL     1      -2.499   1.212   0.023  0.00  0.00    +0.012 A 
BRANCH   7  14
ATOM     13  C   UNL     1       1.281   1.986  -0.009  0.00  0.00    +0.091 C 
ATOM     14  C   UNL     1      -0.012   1.213   0.005  0.00  0.00    +0.160 C 
ATOM     15  O   UNL     1       0.006   0.001   0.001  0.00  0.00    -0.292 OA
ENDBRANCH   7  14
ENDBRANCH   1  10
BRANCH   3  16
ATOM     16  N   UNL     1      -8.001   4.536  -2.044  0.00  0.00    -0.342 N 
ATOM     17  H   UNL     1      -8.956   5.079  -2.007  0.00  0.00    +0.144 HD
ATOM     18  H   UNL     1      -7.746   3.931  -2.926  0.00  0.00    +0.144 HD
ENDBRANCH   3  16
BRANCH   6  19
ATOM     19  C   UNL     1      -4.526   4.922   2.286  0.00  0.00    +0.102 C 
ATOM     20  N   UNL     1      -3.841   5.023   3.186  0.00  0.00    -0.191 NA
ENDBRANCH   6  19
BRANCH   2  21
ATOM     21  C   UNL     1      -5.567   3.127  -2.189  0.00  0.00    +0.103 C 
ATOM     22  N   UNL     1      -5.303   2.502  -3.100  0.00  0.00    -0.191 NA
ENDBRANCH   2  21
BRANCH   5  23
ATOM     23  S   UNL     1      -7.116   6.460   2.485  0.00  0.00    -0.069 S 
BRANCH  23  24
ATOM     24  C   UNL     1      -8.610   7.144   1.849  0.00  0.00    +0.014 A 
ATOM     25  C   UNL     1      -8.570   8.288   1.061  0.00  0.00    +0.018 A 
ATOM     26  C   UNL     1      -9.741   8.820   0.558  0.00  0.00    +0.046 A 
ATOM     27  C   UNL     1     -10.957   8.219   0.848  0.00  0.00    +0.117 A 
ATOM     28  C   UNL     1     -10.998   7.080   1.639  0.00  0.00    +0.046 A 
ATOM     29  C   UNL     1      -9.828   6.543   2.138  0.00  0.00    +0.018 A 
BRANCH  27  30
ATOM     30  O   UNL     1     -12.110   8.747   0.357  0.00  0.00    -0.507 OA
ATOM     31  H   UNL     1     -13.075   8.271   0.587  0.00  0.00    +0.292 HD
ENDBRANCH  27  30
ENDBRANCH  23  24
ENDBRANCH   5  23
TORSDOF 8
