REMARK  Name = ZINC19330790
REMARK  3 active torsions:
REMARK  status: ('A' for Active; 'I' for Inactive)
REMARK    1  A    between atoms: C_1  and  C_2
REMARK    2  A    between atoms: C_8  and  N_10
REMARK    3  A    between atoms: N_16  and  C_17
REMARK                            x       y       z     vdW  Elec       q    Type
REMARK                         _______ _______ _______ _____ _____    ______ ____
ROOT
ATOM      1  N   UNL     1       0.054  -0.037   2.450  0.00  0.00    -0.265 NA
ATOM      2  C   UNL     1       0.852  -0.321   3.658  0.00  0.00    +0.193 C 
ATOM      3  N   UNL     1       0.143   0.270   4.803  0.00  0.00    -0.304 N 
ATOM      4  C   UNL     1      -1.227   0.137   4.861  0.00  0.00    +0.191 C 
ATOM      5  N   UNL     1      -1.902  -0.276   3.836  0.00  0.00    -0.240 NA
ATOM      6  C   UNL     1      -1.279  -0.641   2.568  0.00  0.00    +0.233 C 
ATOM      7  N   UNL     1      -1.890   0.447   6.030  0.00  0.00    -0.225 N 
ATOM      8  H   UNL     1       0.627   0.741   5.499  0.00  0.00    +0.150 HD
ATOM      9  H   UNL     1      -1.392   0.757   6.803  0.00  0.00    +0.167 HD
ENDROOT
BRANCH   1  16
ATOM     10  C   UNL     1      -0.019   1.526   0.010  0.00  0.00    +0.009 C 
ATOM     11  C   UNL     1       0.002  -0.004   0.002  0.00  0.00    +0.003 C 
ATOM     12  C   UNL     1       0.718  -0.497  -1.257  0.00  0.00    +0.005 C 
ATOM     13  C   UNL     1       0.739  -2.027  -1.265  0.00  0.00    +0.000 C 
ATOM     14  C   UNL     1       1.479  -2.534  -0.026  0.00  0.00    +0.002 C 
ATOM     15  C   UNL     1       0.763  -2.041   1.233  0.00  0.00    +0.019 C 
ATOM     16  C   UNL     1       0.742  -0.511   1.242  0.00  0.00    +0.063 C 
ENDBRANCH   1  16
BRANCH   7  17
ATOM     17  C   UNL     1      -3.237   0.320   6.098  0.00  0.00    +0.173 C 
ATOM     18  N   UNL     1      -4.367   0.214   6.156  0.00  0.00    -0.174 NA
ENDBRANCH   7  17
TORSDOF 2
