REMARK  Name = ZINC51684378
REMARK  7 active torsions:
REMARK  status: ('A' for Active; 'I' for Inactive)
REMARK    1  A    between atoms: C_1  and  C_2
REMARK    2  A    between atoms: C_5  and  C_31
REMARK    3  A    between atoms: N_8  and  C_10
REMARK    4  A    between atoms: C_10  and  C_11
REMARK    5  A    between atoms: C_16  and  C_17
REMARK    6  A    between atoms: C_17  and  N_18
REMARK    7  A    between atoms: C_25  and  C_28
REMARK                            x       y       z     vdW  Elec       q    Type
REMARK                         _______ _______ _______ _____ _____    ______ ____
ROOT
ATOM      1  C   UNL     1       2.143   0.206   3.640  0.00  0.00    -0.059 A 
ATOM      2  C   UNL     1       3.259  -0.483   3.203  0.00  0.00    +0.002 A 
ATOM      3  C   UNL     1       4.497   0.132   3.209  0.00  0.00    +0.000 A 
ATOM      4  C   UNL     1       4.619   1.436   3.652  0.00  0.00    +0.000 A 
ATOM      5  C   UNL     1       3.502   2.125   4.088  0.00  0.00    +0.005 A 
ATOM      6  C   UNL     1       2.264   1.511   4.078  0.00  0.00    -0.029 A 
ENDROOT
BRANCH   1   7
ATOM      7  C   UNL     1       0.793  -0.465   3.634  0.00  0.00    -0.043 C 
BRANCH   7  13
ATOM      8  C   UNL     1      -0.029   1.534   0.009  0.00  0.00    +0.005 C 
ATOM      9  C   UNL     1      -0.014   0.004  -0.002  0.00  0.00    -0.031 C 
ATOM     10  C   UNL     1      -1.452  -0.522   0.012  0.00  0.00    +0.003 C 
ATOM     11  C   UNL     1      -2.132  -0.086   1.313  0.00  0.00    -0.031 C 
ATOM     12  C   UNL     1      -1.317  -0.595   2.504  0.00  0.00    -0.075 C 
ATOM     13  N   UNL     1       0.039  -0.036   2.448  0.00  0.00    +0.383 N 
ATOM     14  C   UNL     1       0.724  -0.509   1.237  0.00  0.00    -0.075 C 
ATOM     15  C   UNL     1      -3.545  -0.670   1.372  0.00  0.00    +0.005 C 
ATOM     16  H   UNL     1      -0.014   0.972   2.431  0.00  0.00    -0.081 HD
ENDBRANCH   7  13
ENDBRANCH   1   7
BRANCH   6  17
ATOM     17  C   UNL     1       1.046   2.264   4.548  0.00  0.00    +0.141 C 
BRANCH  17  18
ATOM     18  N   UNL     1       0.730   1.871   5.924  0.00  0.00    -0.295 N 
ATOM     19  C   UNL     1      -0.327   2.420   6.555  0.00  0.00    +0.303 C 
ATOM     20  O   UNL     1      -0.963   3.305   6.018  0.00  0.00    -0.253 OA
ATOM     21  N   UNL     1      -0.678   1.986   7.782  0.00  0.00    -0.281 N 
ATOM     22  C   UNL     1       0.146   1.002   8.502  0.00  0.00    +0.137 C 
ATOM     23  C   UNL     1       0.417   1.538   9.913  0.00  0.00    +0.180 C 
ATOM     24  O   UNL     1      -0.824   1.897  10.526  0.00  0.00    -0.364 OA
ATOM     25  C   UNL     1      -1.525   2.947   9.855  0.00  0.00    +0.221 C 
ATOM     26  C   UNL     1      -1.893   2.488   8.444  0.00  0.00    +0.150 C 
ATOM     27  H   UNL     1       1.281   1.216   6.380  0.00  0.00    +0.151 HD
BRANCH  25  28
ATOM     28  C   UNL     1      -2.779   3.284  10.620  0.00  0.00    +0.241 C 
ATOM     29  O   UNL     1      -3.094   2.625  11.589  0.00  0.00    -0.273 OA
ATOM     30  N   UNL     1      -3.551   4.317  10.229  0.00  0.00    -0.327 N 
ATOM     31  H   UNL     1      -3.299   4.844   9.454  0.00  0.00    +0.145 HD
ATOM     32  H   UNL     1      -4.358   4.533  10.721  0.00  0.00    +0.145 HD
ENDBRANCH  25  28
ENDBRANCH  17  18
ENDBRANCH   6  17
TORSDOF 5
