REMARK  Name = ZINC39504848
REMARK  4 active torsions:
REMARK  status: ('A' for Active; 'I' for Inactive)
REMARK    1  A    between atoms: C_1  and  O_2
REMARK    2  A    between atoms: O_2  and  C_3
REMARK    3  A    between atoms: C_9  and  O_12
REMARK    4  A    between atoms: N_13  and  O_15
REMARK                            x       y       z     vdW  Elec       q    Type
REMARK                         _______ _______ _______ _____ _____    ______ ____
ROOT
ATOM      1  C   UNL     1       0.652  -0.570  -1.138  0.00  0.00    +0.136 C 
ATOM      2  C   UNL     1       0.091  -1.984  -1.452  0.00  0.00    +0.057 C 
ATOM      3  C   UNL     1       1.271  -2.670  -2.160  0.00  0.00    +0.052 C 
ATOM      4  C   UNL     1       1.343  -4.149  -1.764  0.00  0.00    +0.027 C 
ATOM      5  C   UNL     1       1.189  -4.959  -3.070  0.00  0.00    +0.033 C 
ATOM      6  C   UNL     1       0.450  -3.994  -4.031  0.00  0.00    +0.116 C 
ATOM      7  C   UNL     1       1.075  -2.618  -3.684  0.00  0.00    +0.056 C 
ATOM      8  N   UNL     1       2.500  -1.965  -1.774  0.00  0.00    -0.182 NA
ATOM      9  C   UNL     1       2.139  -0.882  -0.831  0.00  0.00    +0.146 C 
ENDROOT
BRANCH   1  11
ATOM     10  C   UNL     1      -0.017   1.425   0.010  0.00  0.00    +0.194 C 
ATOM     11  O   UNL     1       0.002  -0.004   0.002  0.00  0.00    -0.378 OA
ENDBRANCH   1  11
BRANCH   6  12
ATOM     12  O   UNL     1       0.706  -4.341  -5.393  0.00  0.00    -0.392 OA
ATOM     13  H   UNL     1       0.403  -5.227  -5.636  0.00  0.00    +0.210 HD
ENDBRANCH   6  12
BRANCH   8  14
ATOM     14  O   UNL     1       3.465  -2.885  -1.170  0.00  0.00    -0.312 OA
ATOM     15  H   UNL     1       4.292  -2.465  -0.899  0.00  0.00    +0.237 HD
ENDBRANCH   8  14
TORSDOF 3
