REMARK  Name = ZINC01022815
REMARK  5 active torsions:
REMARK  status: ('A' for Active; 'I' for Inactive)
REMARK    1  A    between atoms: C_3  and  C_23
REMARK    2  A    between atoms: C_5  and  C_7
REMARK    3  A    between atoms: C_11  and  O_22
REMARK    4  A    between atoms: C_16  and  N_21
REMARK    5  A    between atoms: C_17  and  N_18
REMARK                            x       y       z     vdW  Elec       q    Type
REMARK                         _______ _______ _______ _____ _____    ______ ____
ROOT
ATOM      1  C   UNL     1       3.737   2.403   0.316  0.00  0.00    +0.111 C 
ATOM      2  C   UNL     1       2.582   1.444   0.215  0.00  0.00    +0.012 A 
ATOM      3  C   UNL     1       2.791   0.094   0.430  0.00  0.00    +0.053 A 
ATOM      4  C   UNL     1       1.732  -0.796   0.340  0.00  0.00    +0.117 A 
ATOM      5  C   UNL     1       0.461  -0.333   0.033  0.00  0.00    +0.049 A 
ATOM      6  C   UNL     1       0.252   1.015  -0.182  0.00  0.00    +0.050 A 
ATOM      7  C   UNL     1       1.312   1.908  -0.092  0.00  0.00    +0.134 A 
ATOM      8  O   UNL     1       1.095   3.230  -0.306  0.00  0.00    -0.440 OA
ATOM      9  C   UNL     1       2.133   4.041  -0.598  0.00  0.00    +0.211 C 
ATOM     10  C   UNL     1       3.384   3.712  -0.333  0.00  0.00    +0.172 C 
ENDROOT
BRANCH   1  15
ATOM     11  C   UNL     1       3.401   3.392   3.948  0.00  0.00    +0.002 A 
ATOM     12  C   UNL     1       4.649   3.078   4.445  0.00  0.00    +0.019 A 
ATOM     13  C   UNL     1       5.619   2.539   3.597  0.00  0.00    +0.052 A 
ATOM     14  C   UNL     1       5.316   2.316   2.252  0.00  0.00    +0.023 A 
ATOM     15  C   UNL     1       4.065   2.639   1.768  0.00  0.00    -0.032 A 
ATOM     16  C   UNL     1       3.109   3.173   2.614  0.00  0.00    +0.005 A 
BRANCH  13  17
ATOM     17  C   UNL     1       6.917   2.211   4.105  0.00  0.00    +0.099 C 
ATOM     18  N   UNL     1       7.947   1.951   4.509  0.00  0.00    -0.191 NA
ENDBRANCH  13  17
ENDBRANCH   1  15
BRANCH  10  19
ATOM     19  N   UNL     1       4.468   4.657  -0.685  0.00  0.00    +0.058 N 
ATOM     20  O   UNL     1       4.194   5.768  -1.104  0.00  0.00    -0.126 OA
ATOM     21  O   UNL     1       5.632   4.325  -0.555  0.00  0.00    -0.126 OA
ENDBRANCH  10  19
BRANCH   9  22
ATOM     22  N   UNL     1       1.876   5.267  -1.198  0.00  0.00    -0.328 N 
ATOM     23  H   UNL     1       2.451   5.588  -1.911  0.00  0.00    +0.145 HD
ATOM     24  H   UNL     1       1.122   5.802  -0.905  0.00  0.00    +0.145 HD
ENDBRANCH   9  22
BRANCH   4  25
ATOM     25  O   UNL     1       1.940  -2.123   0.552  0.00  0.00    -0.507 OA
ATOM     26  H   UNL     1       2.166  -2.619  -0.247  0.00  0.00    +0.292 HD
ENDBRANCH   4  25
TORSDOF 5
