REMARK  Name = ZINC67347958
REMARK  11 active torsions:
REMARK  status: ('A' for Active; 'I' for Inactive)
REMARK    1  A    between atoms: C_1  and  C_2
REMARK    2  A    between atoms: C_2  and  O_3
REMARK    3  A    between atoms: O_3  and  C_4
REMARK    4  A    between atoms: C_6  and  N_11
REMARK    5  A    between atoms: C_9  and  C_10
REMARK    6  A    between atoms: N_14  and  C_15
REMARK    7  A    between atoms: C_15  and  C_16
REMARK    8  A    between atoms: C_16  and  C_18
REMARK    9  A    between atoms: C_16  and  N_23
REMARK   10  A    between atoms: N_23  and  C_24
REMARK   11  A    between atoms: N_23  and  C_25
REMARK                            x       y       z     vdW  Elec       q    Type
REMARK                         _______ _______ _______ _____ _____    ______ ____
ROOT
ATOM      1  N   UNL     1      -0.484  -4.915  -0.408  0.00  0.00    -0.269 N 
ATOM      2  C   UNL     1      -0.167  -6.223  -0.348  0.00  0.00    +0.304 C 
ATOM      3  O   UNL     1       0.477  -6.650   0.591  0.00  0.00    -0.253 OA
ATOM      4  N   UNL     1      -0.563  -7.058  -1.329  0.00  0.00    -0.300 N 
ATOM      5  H   UNL     1      -1.056  -4.586  -1.120  0.00  0.00    +0.156 HD
ATOM      6  H   UNL     1      -1.077  -6.717  -2.078  0.00  0.00    +0.150 HD
ENDROOT
BRANCH   1   9
ATOM      7  C   UNL     1       0.836  -1.858   1.161  0.00  0.00    +0.125 A 
ATOM      8  C   UNL     1       0.347  -2.732   0.202  0.00  0.00    +0.069 A 
ATOM      9  C   UNL     1       0.010  -4.030   0.557  0.00  0.00    +0.038 A 
ATOM     10  C   UNL     1       0.163  -4.450   1.873  0.00  0.00    +0.024 A 
ATOM     11  C   UNL     1       0.649  -3.577   2.826  0.00  0.00    +0.009 A 
ATOM     12  C   UNL     1       0.991  -2.285   2.473  0.00  0.00    -0.009 A 
ATOM     13  C   UNL     1       1.528  -1.338   3.514  0.00  0.00    +0.047 C 
BRANCH   7  14
ATOM     14  O   UNL     1       1.167  -0.586   0.817  0.00  0.00    -0.492 OA
BRANCH  14  16
ATOM     15  C   UNL     1       1.405   1.242  -0.746  0.00  0.00    +0.048 C 
ATOM     16  C   UNL     1       0.981  -0.215  -0.551  0.00  0.00    +0.225 C 
ENDBRANCH  14  16
ENDBRANCH   7  14
ENDBRANCH   1   9
BRANCH   4  17
ATOM     17  C   UNL     1      -0.218  -8.480  -1.265  0.00  0.00    +0.095 C 
BRANCH  17  18
ATOM     18  C   UNL     1      -0.675  -9.175  -2.549  0.00  0.00    -0.014 C 
BRANCH  18  19
ATOM     19  C   UNL     1      -2.178  -9.106  -2.649  0.00  0.00    -0.022 A 
ATOM     20  C   UNL     1      -2.946  -8.264  -3.381  0.00  0.00    +0.009 A 
ATOM     21  C   UNL     1      -4.322  -8.385  -3.318  0.00  0.00    +0.008 A 
ATOM     22  C   UNL     1      -4.861  -9.344  -2.526  0.00  0.00    +0.045 A 
ATOM     23  S   UNL     1      -3.406 -10.118  -1.840  0.00  0.00    -0.103 S 
ENDBRANCH  18  19
BRANCH  18  24
ATOM     24  N   UNL     1      -0.251 -10.581  -2.523  0.00  0.00    +0.382 N 
ATOM     25  C   UNL     1      -0.606 -11.224  -3.795  0.00  0.00    -0.096 C 
ATOM     26  C   UNL     1       1.204 -10.649  -2.330  0.00  0.00    -0.096 C 
ATOM     27  H   UNL     1      -0.714 -11.058  -1.764  0.00  0.00    -0.082 HD
ENDBRANCH  18  24
ENDBRANCH  17  18
ENDBRANCH   4  17
TORSDOF 7
