REMARK  Name = ZINC21722795
REMARK  5 active torsions:
REMARK  status: ('A' for Active; 'I' for Inactive)
REMARK    1  A    between atoms: C_1  and  C_2
REMARK    2  A    between atoms: C_2  and  C_33
REMARK    3  A    between atoms: C_6  and  C_25
REMARK    4  A    between atoms: N_8  and  S_16
REMARK    5  A    between atoms: S_16  and  C_19
REMARK                            x       y       z     vdW  Elec       q    Type
REMARK                         _______ _______ _______ _____ _____    ______ ____
ROOT
ATOM      1  C   UNL     1      -0.068   1.005   2.513  0.00  0.00    +0.011 C 
ATOM      2  C   UNL     1      -0.737   1.584   1.264  0.00  0.00    -0.023 C 
ATOM      3  C   UNL     1      -2.190   1.106   1.178  0.00  0.00    +0.058 C 
ATOM      4  C   UNL     1      -2.850   1.674  -0.069  0.00  0.00    +0.017 C 
ATOM      5  C   UNL     1      -2.131   1.869  -1.185  0.00  0.00    +0.041 C 
ATOM      6  C   UNL     1      -2.662   2.380  -2.505  0.00  0.00    +0.198 C 
ATOM      7  N   UNL     1      -4.005   2.916  -2.437  0.00  0.00    -0.186 N 
ATOM      8  C   UNL     1      -5.088   2.103  -2.115  0.00  0.00    +0.074 A 
ATOM      9  C   UNL     1      -6.087   1.834  -3.039  0.00  0.00    +0.026 A 
ATOM     10  C   UNL     1      -7.122   0.982  -2.695  0.00  0.00    +0.002 A 
ATOM     11  C   UNL     1      -7.163   0.400  -1.441  0.00  0.00    +0.002 A 
ATOM     12  C   UNL     1      -6.178   0.680  -0.509  0.00  0.00    +0.025 A 
ATOM     13  C   UNL     1      -5.154   1.549  -0.846  0.00  0.00    +0.054 A 
ATOM     14  N   UNL     1      -4.176   1.935   0.065  0.00  0.00    -0.316 N 
ATOM     15  C   UNL     1      -0.745   1.586  -1.201  0.00  0.00    +0.163 C 
ATOM     16  O   UNL     1      -0.124   1.754  -2.233  0.00  0.00    -0.292 OA
ATOM     17  C   UNL     1      -0.013   1.086   0.008  0.00  0.00    +0.086 C 
ATOM     18  C   UNL     1      -0.698   3.112   1.314  0.00  0.00    +0.011 C 
ATOM     19  H   UNL     1      -4.542   2.488   0.943  0.00  0.00    +0.152 HD
ENDROOT
BRANCH   6  20
ATOM     20  C   UNL     1      -2.649   1.246  -3.498  0.00  0.00    +0.131 A 
ATOM     21  C   UNL     1      -1.719   1.045  -4.448  0.00  0.00    +0.047 A 
ATOM     22  C   UNL     1      -2.094  -0.127  -5.146  0.00  0.00    +0.041 A 
ATOM     23  C   UNL     1      -3.235  -0.566  -4.585  0.00  0.00    +0.195 A 
ATOM     24  O   UNL     1      -3.566   0.270  -3.587  0.00  0.00    -0.466 OA
ENDBRANCH   6  20
BRANCH   7  25
ATOM     25  S   UNL     1      -4.257   4.523  -2.746  0.00  0.00    +0.076 S 
ATOM     26  O   UNL     1      -5.466   4.879  -2.090  0.00  0.00    -0.150 OA
ATOM     27  O   UNL     1      -3.026   5.185  -2.486  0.00  0.00    -0.150 OA
BRANCH  25  28
ATOM     28  C   UNL     1      -4.558   4.680  -4.475  0.00  0.00    +0.109 A 
ATOM     29  C   UNL     1      -3.504   4.894  -5.343  0.00  0.00    +0.029 A 
ATOM     30  C   UNL     1      -3.739   5.012  -6.700  0.00  0.00    +0.002 A 
ATOM     31  C   UNL     1      -5.030   4.927  -7.188  0.00  0.00    +0.000 A 
ATOM     32  C   UNL     1      -6.085   4.718  -6.319  0.00  0.00    +0.002 A 
ATOM     33  C   UNL     1      -5.848   4.595  -4.963  0.00  0.00    +0.029 A 
ENDBRANCH  25  28
ENDBRANCH   7  25
TORSDOF 3
