REMARK  Name = ZINC49942368
REMARK  6 active torsions:
REMARK  status: ('A' for Active; 'I' for Inactive)
REMARK    1  A    between atoms: C_1  and  C_2
REMARK    2  A    between atoms: C_4  and  O_38
REMARK    3  A    between atoms: C_14  and  C_16
REMARK    4  A    between atoms: C_16  and  C_21
REMARK    5  A    between atoms: C_26  and  C_37
REMARK    6  A    between atoms: N_28  and  O_29
REMARK                            x       y       z     vdW  Elec       q    Type
REMARK                         _______ _______ _______ _____ _____    ______ ____
ROOT
ATOM      1  C   UNL     1      -0.011   1.501   0.053  0.00  0.00    +0.012 C 
ATOM      2  C   UNL     1      -0.025  -0.030   0.084  0.00  0.00    -0.019 C 
ATOM      3  C   UNL     1       0.491  -0.653  -1.206  0.00  0.00    +0.039 C 
ATOM      4  C   UNL     1       2.003  -0.487  -1.369  0.00  0.00    +0.119 C 
ATOM      5  C   UNL     1       2.743  -1.073  -0.183  0.00  0.00    +0.033 C 
ATOM      6  C   UNL     1       2.248  -0.521   1.146  0.00  0.00    -0.001 C 
ATOM      7  C   UNL     1       0.748  -0.587   1.294  0.00  0.00    -0.001 C 
ATOM      8  C   UNL     1       0.229  -2.031   1.423  0.00  0.00    +0.005 C 
ATOM      9  C   UNL     1      -1.268  -1.931   1.047  0.00  0.00    +0.009 C 
ATOM     10  C   UNL     1      -1.456  -0.569   0.353  0.00  0.00    +0.054 C 
ATOM     11  C   UNL     1       2.898  -1.334   2.278  0.00  0.00    +0.004 C 
ATOM     12  C   UNL     1       4.418  -1.195   2.188  0.00  0.00    +0.005 C 
ATOM     13  C   UNL     1       4.910  -1.747   0.847  0.00  0.00    +0.006 C 
ATOM     14  C   UNL     1       4.256  -0.948  -0.294  0.00  0.00    +0.018 C 
ATOM     15  C   UNL     1       4.760   0.466  -0.173  0.00  0.00    +0.069 C 
ATOM     16  N   UNL     1       4.007   1.481  -0.001  0.00  0.00    -0.096 NA
ATOM     17  C   UNL     1       6.266   0.665  -0.239  0.00  0.00    +0.119 C 
ATOM     18  C   UNL     1       6.920  -0.196   0.843  0.00  0.00    +0.176 C 
ATOM     19  C   UNL     1       6.429  -1.638   0.775  0.00  0.00    +0.069 C 
ATOM     20  O   UNL     1       8.348  -0.185   0.636  0.00  0.00    -0.346 OA
ATOM     21  C   UNL     1       8.835   0.887   1.477  0.00  0.00    +0.191 C 
ATOM     22  C   UNL     1       7.904   0.770   2.709  0.00  0.00    +0.191 C 
ATOM     23  O   UNL     1       6.649   0.359   2.134  0.00  0.00    -0.346 OA
ATOM     24  C   UNL     1       4.714  -1.545  -1.631  0.00  0.00    +0.018 C 
ENDROOT
BRANCH  10  25
ATOM     25  C   UNL     1      -2.263  -0.724  -0.938  0.00  0.00    +0.171 C 
ATOM     26  O   UNL     1      -3.586  -1.194  -0.628  0.00  0.00    -0.346 OA
ATOM     27  C   UNL     1      -3.930  -2.078  -1.721  0.00  0.00    +0.191 C 
ATOM     28  C   UNL     1      -2.566  -2.743  -2.030  0.00  0.00    +0.191 C 
ATOM     29  O   UNL     1      -1.623  -1.678  -1.795  0.00  0.00    -0.346 OA
ATOM     30  C   UNL     1      -2.355   0.627  -1.651  0.00  0.00    +0.074 C 
ENDBRANCH  10  25
BRANCH  16  31
ATOM     31  O   UNL     1       4.575   2.774   0.101  0.00  0.00    -0.409 OA
ATOM     32  H   UNL     1       3.925   3.479   0.230  0.00  0.00    +0.328 HD
ENDBRANCH  16  31
BRANCH   4  33
ATOM     33  O   UNL     1       2.322   0.876  -1.617  0.00  0.00    -0.391 OA
ATOM     34  H   UNL     1       1.913   1.236  -2.416  0.00  0.00    +0.210 HD
ENDBRANCH   4  33
TORSDOF 3
