REMARK  Name = ZINC65463253
REMARK  8 active torsions:
REMARK  status: ('A' for Active; 'I' for Inactive)
REMARK    1  A    between atoms: C_1  and  O_2
REMARK    2  A    between atoms: O_2  and  C_3
REMARK    3  A    between atoms: C_5  and  C_12
REMARK    4  A    between atoms: C_7  and  O_10
REMARK    5  A    between atoms: C_8  and  O_9
REMARK    6  A    between atoms: O_10  and  C_11
REMARK    7  A    between atoms: C_12  and  N_13
REMARK    8  A    between atoms: C_22  and  O_26
REMARK                            x       y       z     vdW  Elec       q    Type
REMARK                         _______ _______ _______ _____ _____    ______ ____
ROOT
ATOM      1  N   UNL     1      -5.295   0.526  -1.339  0.00  0.00    -0.295 N 
ATOM      2  C   UNL     1      -6.415   1.236  -1.576  0.00  0.00    +0.303 C 
ATOM      3  O   UNL     1      -7.123   1.581  -0.650  0.00  0.00    -0.253 OA
ATOM      4  N   UNL     1      -6.750   1.565  -2.840  0.00  0.00    -0.281 N 
ATOM      5  C   UNL     1      -7.904   2.435  -3.124  0.00  0.00    +0.114 C 
ATOM      6  C   UNL     1      -7.377   3.718  -3.766  0.00  0.00    +0.054 C 
ATOM      7  C   UNL     1      -6.399   3.404  -4.867  0.00  0.00    -0.041 A 
ATOM      8  C   UNL     1      -6.158   4.391  -5.816  0.00  0.00    +0.007 A 
ATOM      9  C   UNL     1      -5.268   4.175  -6.845  0.00  0.00    +0.045 A 
ATOM     10  C   UNL     1      -4.602   2.961  -6.937  0.00  0.00    +0.117 A 
ATOM     11  C   UNL     1      -4.843   1.976  -5.995  0.00  0.00    +0.050 A 
ATOM     12  C   UNL     1      -5.745   2.195  -4.963  0.00  0.00    -0.023 A 
ATOM     13  C   UNL     1      -5.977   1.075  -3.986  0.00  0.00    +0.144 C 
ATOM     14  H   UNL     1      -4.769   0.187  -2.081  0.00  0.00    +0.151 HD
ENDROOT
BRANCH  10  15
ATOM     15  O   UNL     1      -3.719   2.741  -7.946  0.00  0.00    -0.507 OA
ATOM     16  H   UNL     1      -2.811   2.997  -7.737  0.00  0.00    +0.292 HD
ENDBRANCH  10  15
BRANCH   1  17
ATOM     17  C   UNL     1      -4.871   0.264   0.038  0.00  0.00    +0.141 C 
BRANCH  17  20
ATOM     18  C   UNL     1      -1.202  -0.643   0.007  0.00  0.00    +0.165 A 
ATOM     19  C   UNL     1      -2.375   0.097   0.017  0.00  0.00    +0.054 A 
ATOM     20  C   UNL     1      -3.599  -0.544   0.027  0.00  0.00    -0.023 A 
ATOM     21  C   UNL     1      -3.660  -1.925   0.029  0.00  0.00    +0.054 A 
ATOM     22  C   UNL     1      -2.492  -2.673   0.019  0.00  0.00    +0.165 A 
ATOM     23  C   UNL     1      -1.259  -2.032   0.003  0.00  0.00    +0.201 A 
BRANCH  18  25
ATOM     24  C   UNL     1      -0.015   1.418   0.002  0.00  0.00    +0.277 C 
ATOM     25  O   UNL     1       0.002  -0.011  -0.004  0.00  0.00    -0.491 OA
ENDBRANCH  18  25
BRANCH  23  26
ATOM     26  O   UNL     1      -0.111  -2.762  -0.012  0.00  0.00    -0.501 OA
ATOM     27  H   UNL     1       0.231  -2.976   0.867  0.00  0.00    +0.292 HD
ENDBRANCH  23  26
BRANCH  22  28
ATOM     28  O   UNL     1      -2.553  -4.031   0.021  0.00  0.00    -0.491 OA
ATOM     29  C   UNL     1      -3.854  -4.622   0.033  0.00  0.00    +0.277 C 
ENDBRANCH  22  28
ENDBRANCH  17  20
ENDBRANCH   1  17
TORSDOF 6
