REMARK  Name = ZINC43401555
REMARK  4 active torsions:
REMARK  status: ('A' for Active; 'I' for Inactive)
REMARK    1  A    between atoms: C_1  and  C_2
REMARK    2  A    between atoms: C_5  and  C_17
REMARK    3  A    between atoms: C_6  and  O_8
REMARK    4  A    between atoms: O_8  and  C_9
REMARK                            x       y       z     vdW  Elec       q    Type
REMARK                         _______ _______ _______ _____ _____    ______ ____
ROOT
ATOM      1  C   UNL     1      -0.522   1.455   0.158  0.00  0.00    +0.066 C 
ATOM      2  C   UNL     1      -0.373  -0.044   0.105  0.00  0.00    +0.042 A 
ATOM      3  C   UNL     1      -0.442  -0.690  -1.116  0.00  0.00    +0.024 A 
ATOM      4  C   UNL     1      -0.305  -2.066  -1.166  0.00  0.00    +0.018 A 
ATOM      5  C   UNL     1      -0.100  -2.757   0.033  0.00  0.00    +0.074 A 
ATOM      6  C   UNL     1      -0.041  -2.031   1.231  0.00  0.00    +0.231 A 
ATOM      7  N   UNL     1      -0.174  -0.715   1.222  0.00  0.00    -0.217 NA
ENDROOT
BRANCH   5   8
ATOM      8  C   UNL     1       0.053  -4.226   0.037  0.00  0.00    +0.099 C 
ATOM      9  N   UNL     1      -0.893  -4.996  -0.501  0.00  0.00    -0.387 N 
ATOM     10  N   UNL     1       1.136  -4.782   0.579  0.00  0.00    -0.344 N 
ATOM     11  H   UNL     1      -1.714  -4.597  -0.830  0.00  0.00    +0.157 HD
ATOM     12  H   UNL     1       1.824  -4.222   0.970  0.00  0.00    +0.144 HD
ATOM     13  H   UNL     1       1.236  -5.747   0.581  0.00  0.00    +0.144 HD
ATOM     14  H   UNL     1      -0.760  -5.955  -0.565  0.00  0.00    +0.157 HD
ENDBRANCH   5   8
BRANCH   6  15
ATOM     15  O   UNL     1       0.157  -2.680   2.403  0.00  0.00    -0.436 OA
BRANCH  15  16
ATOM     16  C   UNL     1       0.100  -1.955   3.551  0.00  0.00    +0.149 A 
ATOM     17  C   UNL     1       1.262  -1.443   4.108  0.00  0.00    +0.049 A 
ATOM     18  C   UNL     1       1.202  -0.707   5.275  0.00  0.00    +0.019 A 
ATOM     19  C   UNL     1      -0.017  -0.479   5.889  0.00  0.00    +0.019 A 
ATOM     20  C   UNL     1      -1.178  -0.988   5.337  0.00  0.00    +0.039 A 
ATOM     21  C   UNL     1      -1.123  -1.721   4.166  0.00  0.00    +0.084 A 
ATOM     22 CL   UNL     1      -2.581  -2.354   3.468  0.00  0.00    -0.080 Cl
ATOM     23 BR   UNL     1      -0.095   0.530   7.487  0.00  0.00    -0.050 Br
ENDBRANCH  15  16
ENDBRANCH   6  15
TORSDOF 3
