REMARK  Name = ZINC52813584
REMARK  4 active torsions:
REMARK  status: ('A' for Active; 'I' for Inactive)
REMARK    1  A    between atoms: C_1  and  C_2
REMARK    2  A    between atoms: C_4  and  N_14
REMARK    3  A    between atoms: C_7  and  N_8
REMARK    4  A    between atoms: C_12  and  C_13
REMARK                            x       y       z     vdW  Elec       q    Type
REMARK                         _______ _______ _______ _____ _____    ______ ____
ROOT
ATOM      1  C   UNL     1      -0.413   1.470   0.065  0.00  0.00    +0.047 C 
ATOM      2  C   UNL     1      -0.188  -0.020   0.028  0.00  0.00    -0.006 A 
ATOM      3  C   UNL     1      -0.286  -0.714  -1.165  0.00  0.00    +0.031 A 
ATOM      4  C   UNL     1      -0.070  -2.091  -1.151  0.00  0.00    +0.043 A 
ATOM      5  C   UNL     1       0.235  -2.715   0.051  0.00  0.00    +0.135 A 
ATOM      6  N   UNL     1       0.321  -2.020   1.168  0.00  0.00    -0.235 NA
ATOM      7  C   UNL     1       0.127  -0.712   1.190  0.00  0.00    +0.142 A 
ENDROOT
BRANCH   7   8
ATOM      8  N   UNL     1       0.236  -0.017   2.401  0.00  0.00    -0.288 N 
ATOM      9  C   UNL     1       0.949   1.133   2.620  0.00  0.00    +0.114 A 
ATOM     10  C   UNL     1       0.779   1.456   3.916  0.00  0.00    +0.131 A 
ATOM     11  N   UNL     1      -0.014   0.532   4.478  0.00  0.00    -0.241 NA
ATOM     12  C   UNL     1      -0.351  -0.353   3.580  0.00  0.00    +0.112 A 
ATOM     13  C   UNL     1      -1.238  -1.548   3.813  0.00  0.00    +0.086 C 
ENDBRANCH   7   8
BRANCH   4  14
ATOM     14  N   UNL     1      -0.159  -2.834  -2.333  0.00  0.00    -0.357 N 
ATOM     15  H   UNL     1      -0.373  -2.391  -3.169  0.00  0.00    +0.142 HD
ATOM     16  H   UNL     1      -0.008  -3.792  -2.316  0.00  0.00    +0.142 HD
ENDBRANCH   4  14
TORSDOF 2
