REMARK  Name = ZINC09620230
REMARK  12 active torsions:
REMARK  status: ('A' for Active; 'I' for Inactive)
REMARK    1  A    between atoms: C_1  and  C_2
REMARK    2  A    between atoms: C_5  and  S_8
REMARK    3  A    between atoms: S_8  and  N_11
REMARK    4  A    between atoms: N_11  and  C_12
REMARK    5  A    between atoms: N_11  and  C_13
REMARK    6  A    between atoms: C_13  and  C_14
REMARK    7  A    between atoms: C_17  and  C_20
REMARK    8  A    between atoms: N_22  and  N_23
REMARK    9  A    between atoms: C_24  and  C_25
REMARK   10  A    between atoms: C_28  and  O_33
REMARK   11  A    between atoms: C_29  and  O_32
REMARK   12  A    between atoms: C_30  and  O_31
REMARK                            x       y       z     vdW  Elec       q    Type
REMARK                         _______ _______ _______ _____ _____    ______ ____
ROOT
ATOM      1  C   UNL     1       1.170   2.086   0.002  0.00  0.00    -0.032 A 
ATOM      2  C   UNL     1      -0.017   1.375   0.010  0.00  0.00    +0.006 A 
ATOM      3  C   UNL     1       0.002  -0.004   0.002  0.00  0.00    +0.013 A 
ATOM      4  C   UNL     1       1.222  -0.682  -0.013  0.00  0.00    +0.038 A 
ATOM      5  C   UNL     1       2.416   0.041  -0.021  0.00  0.00    +0.013 A 
ATOM      6  C   UNL     1       2.383   1.420  -0.013  0.00  0.00    +0.006 A 
ENDROOT
BRANCH   4   7
ATOM      7  C   UNL     1       1.250  -2.160  -0.021  0.00  0.00    +0.263 C 
ATOM      8  O   UNL     1       0.208  -2.788  -0.014  0.00  0.00    -0.268 OA
ATOM      9  N   UNL     1       2.429  -2.812  -0.036  0.00  0.00    -0.203 N 
ATOM     10  H   UNL     1       3.260  -2.311  -0.041  0.00  0.00    +0.178 HD
BRANCH   9  11
ATOM     11  N   UNL     1       2.456  -4.213  -0.043  0.00  0.00    -0.187 NA
ATOM     12  C   UNL     1       3.592  -4.841  -0.057  0.00  0.00    +0.142 C 
BRANCH  12  13
ATOM     13  C   UNL     1       3.620  -6.313  -0.065  0.00  0.00    +0.040 A 
ATOM     14  C   UNL     1       4.842  -6.992  -0.086  0.00  0.00    +0.017 A 
ATOM     15  C   UNL     1       4.865  -8.370  -0.088  0.00  0.00    +0.050 A 
ATOM     16  C   UNL     1       3.678  -9.090  -0.079  0.00  0.00    +0.162 A 
ATOM     17  C   UNL     1       2.456  -8.426  -0.064  0.00  0.00    +0.201 A 
ATOM     18  C   UNL     1       2.421  -7.039  -0.057  0.00  0.00    +0.171 A 
BRANCH  18  19
ATOM     19  O   UNL     1       1.229  -6.387  -0.043  0.00  0.00    -0.503 OA
ATOM     20  H   UNL     1       0.875  -6.194  -0.922  0.00  0.00    +0.292 HD
ENDBRANCH  18  19
BRANCH  17  21
ATOM     21  O   UNL     1       1.295  -9.136  -0.057  0.00  0.00    -0.501 OA
ATOM     22  H   UNL     1       0.952  -9.337  -0.938  0.00  0.00    +0.292 HD
ENDBRANCH  17  21
BRANCH  16  23
ATOM     23  O   UNL     1       3.710 -10.449  -0.086  0.00  0.00    -0.503 OA
ATOM     24  H   UNL     1       3.711 -10.838  -0.972  0.00  0.00    +0.292 HD
ENDBRANCH  16  23
ENDBRANCH  12  13
ENDBRANCH   9  11
ENDBRANCH   4   7
BRANCH   1  25
ATOM     25  C   UNL     1       1.142   3.593   0.010  0.00  0.00    +0.144 C 
BRANCH  25  26
ATOM     26  N   UNL     1       1.146   4.074   1.394  0.00  0.00    -0.175 NA
ATOM     27  C   UNL     1      -0.114   4.187   2.133  0.00  0.00    +0.132 C 
BRANCH  26  28
ATOM     28  S   UNL     1       2.574   4.491   2.121  0.00  0.00    +0.061 S 
ATOM     29  O   UNL     1       2.367   4.368   3.522  0.00  0.00    -0.153 OA
ATOM     30  O   UNL     1       3.599   3.785   1.437  0.00  0.00    -0.153 OA
BRANCH  28  35
ATOM     31  C   UNL     1       3.491  10.353   1.025  0.00  0.00    +0.044 C 
ATOM     32  C   UNL     1       3.262   8.889   1.299  0.00  0.00    -0.050 A 
ATOM     33  C   UNL     1       2.564   8.498   2.426  0.00  0.00    +0.005 A 
ATOM     34  C   UNL     1       2.354   7.155   2.677  0.00  0.00    +0.029 A 
ATOM     35  C   UNL     1       2.841   6.203   1.801  0.00  0.00    +0.105 A 
ATOM     36  C   UNL     1       3.544   6.594   0.676  0.00  0.00    +0.029 A 
ATOM     37  C   UNL     1       3.750   7.937   0.423  0.00  0.00    +0.005 A 
ENDBRANCH  28  35
ENDBRANCH  26  28
ENDBRANCH  25  26
ENDBRANCH   1  25
TORSDOF 10
