REMARK  Name = ZINC36148874
REMARK  4 active torsions:
REMARK  status: ('A' for Active; 'I' for Inactive)
REMARK    1  A    between atoms: C_1  and  C_2
REMARK    2  A    between atoms: N_15  and  C_17
REMARK    3  A    between atoms: C_17  and  C_18
REMARK    4  A    between atoms: C_18  and  C_19
REMARK                            x       y       z     vdW  Elec       q    Type
REMARK                         _______ _______ _______ _____ _____    ______ ____
ROOT
ATOM      1  C   UNL     1      -0.018   1.503   0.010  0.00  0.00    +0.045 C 
ATOM      2  C   UNL     1       0.002  -0.004   0.002  0.00  0.00    -0.029 A 
ATOM      3  C   UNL     1       0.006  -0.689  -1.196  0.00  0.00    +0.050 A 
ATOM      4  C   UNL     1       0.026  -2.079  -1.208  0.00  0.00    +0.125 A 
ATOM      5  C   UNL     1       0.046  -2.777  -0.014  0.00  0.00    -0.004 A 
ATOM      6  C   UNL     1       0.040  -2.085   1.187  0.00  0.00    +0.027 A 
ATOM      7  C   UNL     1       0.023  -0.703   1.196  0.00  0.00    +0.044 A 
ATOM      8 CL   UNL     1       0.021   0.155   2.705  0.00  0.00    -0.083 Cl
ATOM      9  C   UNL     1       0.082  -4.284   0.022  0.00  0.00    +0.042 C 
ATOM     10  C   UNL     1      -0.375  -4.845  -1.328  0.00  0.00    +0.051 C 
ATOM     11  C   UNL     1       0.354  -4.093  -2.435  0.00  0.00    +0.095 C 
ATOM     12  O   UNL     1       0.020  -2.717  -2.410  0.00  0.00    -0.487 OA
ATOM     13  C   UNL     1       0.033  -4.715  -3.811  0.00  0.00    +0.027 C 
ATOM     14  C   UNL     1       1.288  -4.377  -4.645  0.00  0.00    -0.075 C 
ATOM     15  N   UNL     1       2.388  -4.117  -3.696  0.00  0.00    +0.383 N 
ATOM     16  C   UNL     1       1.876  -4.299  -2.320  0.00  0.00    -0.030 C 
ATOM     17  H   UNL     1       2.719  -3.171  -3.813  0.00  0.00    -0.082 HD
ENDROOT
BRANCH  15  18
ATOM     18  C   UNL     1       3.487  -5.058  -3.944  0.00  0.00    -0.067 C 
BRANCH  18  19
ATOM     19  C   UNL     1       4.104  -4.774  -5.315  0.00  0.00    +0.106 C 
BRANCH  19  20
ATOM     20  C   UNL     1       5.233  -5.740  -5.568  0.00  0.00    +0.354 C 
ATOM     21  O   UNL     1       5.517  -6.578  -4.730  0.00  0.00    -0.246 OA
ATOM     22  O   UNL     1       5.861  -5.683  -6.612  0.00  0.00    -0.246 OA
ENDBRANCH  19  20
ENDBRANCH  18  19
ENDBRANCH  15  18
TORSDOF 3
