REMARK  Name = ZINC67582754
REMARK  11 active torsions:
REMARK  status: ('A' for Active; 'I' for Inactive)
REMARK    1  A    between atoms: C_1  and  C_2
REMARK    2  A    between atoms: C_5  and  C_27
REMARK    3  A    between atoms: C_6  and  C_8
REMARK    4  A    between atoms: C_8  and  C_10
REMARK    5  A    between atoms: C_8  and  N_11
REMARK    6  A    between atoms: N_14  and  C_15
REMARK    7  A    between atoms: C_15  and  C_16
REMARK    8  A    between atoms: C_16  and  C_18
REMARK    9  A    between atoms: C_16  and  O_26
REMARK   10  A    between atoms: C_18  and  N_19
REMARK   11  A    between atoms: C_22  and  C_25
REMARK                            x       y       z     vdW  Elec       q    Type
REMARK                         _______ _______ _______ _____ _____    ______ ____
ROOT
ATOM      1  N   UNL     1      -0.828  -2.037   3.400  0.00  0.00    -0.293 N 
ATOM      2  C   UNL     1      -1.304  -2.614   4.520  0.00  0.00    +0.300 C 
ATOM      3  O   UNL     1      -1.268  -3.824   4.643  0.00  0.00    -0.253 OA
ATOM      4  N   UNL     1      -1.819  -1.852   5.505  0.00  0.00    -0.297 N 
ATOM      5  H   UNL     1      -0.856  -1.072   3.302  0.00  0.00    +0.151 HD
ATOM      6  H   UNL     1      -1.847  -0.887   5.407  0.00  0.00    +0.150 HD
ENDROOT
BRANCH   1   7
ATOM      7  C   UNL     1      -0.268  -2.865   2.329  0.00  0.00    +0.102 C 
ATOM      8  C   UNL     1       1.204  -3.158   2.627  0.00  0.00    +0.033 C 
BRANCH   7  14
ATOM      9  C   UNL     1      -0.617   1.425  -0.224  0.00  0.00    +0.044 C 
ATOM     10  C   UNL     1      -0.547  -0.080  -0.204  0.00  0.00    -0.050 A 
ATOM     11  C   UNL     1      -0.584  -0.789  -1.391  0.00  0.00    +0.003 A 
ATOM     12  C   UNL     1      -0.519  -2.169  -1.373  0.00  0.00    +0.004 A 
ATOM     13  C   UNL     1      -0.417  -2.841  -0.169  0.00  0.00    -0.046 A 
ATOM     14  C   UNL     1      -0.379  -2.133   1.017  0.00  0.00    -0.024 A 
ATOM     15  C   UNL     1      -0.439  -0.751   0.999  0.00  0.00    +0.009 A 
ATOM     16  C   UNL     1      -0.347  -4.347  -0.150  0.00  0.00    +0.044 C 
ENDBRANCH   7  14
ENDBRANCH   1   7
BRANCH   4  17
ATOM     17  C   UNL     1      -2.336  -2.480   6.723  0.00  0.00    +0.135 C 
BRANCH  17  18
ATOM     18  C   UNL     1      -2.858  -1.400   7.672  0.00  0.00    +0.115 C 
BRANCH  18  19
ATOM     19  O   UNL     1      -1.794  -0.508   8.011  0.00  0.00    -0.392 OA
ATOM     20  H   UNL     1      -1.047  -0.936   8.450  0.00  0.00    +0.210 HD
ENDBRANCH  18  19
BRANCH  18  21
ATOM     21  C   UNL     1      -3.398  -2.056   8.945  0.00  0.00    -0.046 C 
BRANCH  21  22
ATOM     22  N   UNL     1      -3.914  -1.020   9.849  0.00  0.00    +0.381 N 
ATOM     23  C   UNL     1      -4.289  -1.632  11.129  0.00  0.00    -0.078 C 
ATOM     24  C   UNL     1      -4.751  -0.545  12.103  0.00  0.00    -0.016 C 
ATOM     25  C   UNL     1      -5.960   0.183  11.509  0.00  0.00    -0.018 C 
ATOM     26  C   UNL     1      -5.579   0.754  10.141  0.00  0.00    -0.016 C 
ATOM     27  C   UNL     1      -5.086  -0.380   9.240  0.00  0.00    -0.078 C 
ATOM     28  C   UNL     1      -6.378   1.323  12.441  0.00  0.00    +0.007 C 
ATOM     29  H   UNL     1      -3.198  -0.326  10.007  0.00  0.00    -0.082 HD
ENDBRANCH  21  22
ENDBRANCH  18  21
ENDBRANCH  17  18
ENDBRANCH   4  17
TORSDOF 7
