REMARK  Name = ZINC57649017
REMARK  11 active torsions:
REMARK  status: ('A' for Active; 'I' for Inactive)
REMARK    1  A    between atoms: C_1  and  C_2
REMARK    2  A    between atoms: C_6  and  C_27
REMARK    3  A    between atoms: C_7  and  N_8
REMARK    4  A    between atoms: C_9  and  C_11
REMARK    5  A    between atoms: C_11  and  N_12
REMARK    6  A    between atoms: C_13  and  C_15
REMARK    7  A    between atoms: C_15  and  C_17
REMARK    8  A    between atoms: C_15  and  S_18
REMARK    9  A    between atoms: S_18  and  C_19
REMARK   10  A    between atoms: C_21  and  C_26
REMARK   11  A    between atoms: C_23  and  N_25
REMARK                            x       y       z     vdW  Elec       q    Type
REMARK                         _______ _______ _______ _____ _____    ______ ____
ROOT
ATOM      1  N   UNL     1      -0.231  -0.746   5.978  0.00  0.00    -0.306 N 
ATOM      2  C   UNL     1      -0.311  -0.271   7.236  0.00  0.00    +0.227 C 
ATOM      3  O   UNL     1      -0.268   0.924   7.437  0.00  0.00    -0.275 OA
ATOM      4  H   UNL     1      -0.265  -1.702   5.817  0.00  0.00    +0.149 HD
ENDROOT
BRANCH   2   5
ATOM      5  C   UNL     1      -0.455  -1.225   8.394  0.00  0.00    +0.137 C 
ATOM      6  C   UNL     1      -1.915  -1.670   8.509  0.00  0.00    +0.029 C 
BRANCH   5   7
ATOM      7  S   UNL     1       0.047  -0.395   9.927  0.00  0.00    -0.074 S 
BRANCH   7   8
ATOM      8  C   UNL     1      -0.035  -1.666  11.145  0.00  0.00    +0.191 A 
ATOM      9  N   UNL     1       0.274  -1.377  12.402  0.00  0.00    -0.227 NA
ATOM     10  C   UNL     1       0.224  -2.305  13.346  0.00  0.00    +0.044 A 
ATOM     11  C   UNL     1      -0.156  -3.590  13.010  0.00  0.00    +0.066 A 
ATOM     12  C   UNL     1      -0.475  -3.865  11.679  0.00  0.00    +0.121 A 
ATOM     13  N   UNL     1      -0.408  -2.885  10.784  0.00  0.00    -0.207 NA
ATOM     14  C   UNL     1       0.577  -1.963  14.770  0.00  0.00    +0.066 C 
BRANCH  12  15
ATOM     15  N   UNL     1      -0.860  -5.140  11.297  0.00  0.00    -0.343 N 
ATOM     16  H   UNL     1      -0.909  -5.849  11.956  0.00  0.00    +0.144 HD
ATOM     17  H   UNL     1      -1.080  -5.323  10.370  0.00  0.00    +0.144 HD
ENDBRANCH  12  15
ENDBRANCH   7   8
ENDBRANCH   5   7
ENDBRANCH   2   5
BRANCH   1  18
ATOM     18  C   UNL     1      -0.090   0.181   4.852  0.00  0.00    +0.200 C 
BRANCH  18  20
ATOM     19  N   UNL     1       0.108   0.050   2.390  0.00  0.00    -0.284 N 
ATOM     20  C   UNL     1      -0.022  -0.598   3.564  0.00  0.00    +0.234 C 
ATOM     21  O   UNL     1      -0.085  -1.810   3.584  0.00  0.00    -0.274 OA
ATOM     22  H   UNL     1       0.224   1.013   2.378  0.00  0.00    +0.155 HD
BRANCH  19  29
ATOM     23  C   UNL     1       2.558  -0.356   1.002  0.00  0.00    +0.045 C 
ATOM     24  C   UNL     1       1.249  -0.887   0.479  0.00  0.00    -0.029 A 
ATOM     25  C   UNL     1       1.214  -1.599  -0.704  0.00  0.00    +0.005 A 
ATOM     26  C   UNL     1       0.013  -2.087  -1.185  0.00  0.00    +0.001 A 
ATOM     27  C   UNL     1      -1.158  -1.863  -0.484  0.00  0.00    +0.005 A 
ATOM     28  C   UNL     1      -1.130  -1.152   0.700  0.00  0.00    -0.029 A 
ATOM     29  C   UNL     1       0.076  -0.666   1.188  0.00  0.00    +0.039 A 
ATOM     30  C   UNL     1      -2.406  -0.908   1.463  0.00  0.00    +0.045 C 
ENDBRANCH  19  29
ENDBRANCH  18  20
ENDBRANCH   1  18
TORSDOF 7
