REMARK  Name = ZINC55187114
REMARK  4 active torsions:
REMARK  status: ('A' for Active; 'I' for Inactive)
REMARK    1  A    between atoms: C_1  and  N_2
REMARK    2  A    between atoms: N_2  and  C_3
REMARK    3  A    between atoms: C_3  and  C_4
REMARK    4  A    between atoms: C_12  and  C_14
REMARK                            x       y       z     vdW  Elec       q    Type
REMARK                         _______ _______ _______ _____ _____    ______ ____
ROOT
ATOM      1  C   UNL     1      -0.081   1.461   0.012  0.00  0.00    +0.132 C 
ATOM      2  N   UNL     1      -0.023  -0.003   0.003  0.00  0.00    -0.295 N 
ATOM      3  C   UNL     1      -0.102  -0.673  -1.163  0.00  0.00    +0.266 C 
ATOM      4  O   UNL     1      -0.154  -1.888  -1.164  0.00  0.00    -0.268 OA
ENDROOT
BRANCH   3   5
ATOM      5  C   UNL     1      -0.124   0.065  -2.436  0.00  0.00    +0.135 A 
ATOM      6  C   UNL     1      -0.337  -0.595  -3.620  0.00  0.00    +0.081 A 
ATOM      7  S   UNL     1      -0.259   0.765  -4.779  0.00  0.00    -0.060 S 
ATOM      8  C   UNL     1       0.045   2.062  -3.588  0.00  0.00    +0.156 A 
ATOM      9  N   UNL     1       0.057   1.388  -2.455  0.00  0.00    -0.221 NA
ATOM     10  N   UNL     1       0.218   3.420  -3.799  0.00  0.00    -0.338 N 
ATOM     11  H   UNL     1       0.178   3.779  -4.698  0.00  0.00    +0.144 HD
ATOM     12  H   UNL     1       0.378   4.011  -3.046  0.00  0.00    +0.144 HD
ENDBRANCH   3   5
BRANCH   2  13
ATOM     13  C   UNL     1       0.120  -0.738   1.262  0.00  0.00    +0.143 C 
BRANCH  13  14
ATOM     14  C   UNL     1      -1.245  -1.047   1.821  0.00  0.00    -0.029 A 
ATOM     15  C   UNL     1      -1.861  -0.151   2.676  0.00  0.00    +0.007 A 
ATOM     16  C   UNL     1      -3.112  -0.433   3.190  0.00  0.00    +0.022 A 
ATOM     17  C   UNL     1      -3.750  -1.612   2.849  0.00  0.00    +0.059 A 
ATOM     18  C   UNL     1      -3.134  -2.509   1.993  0.00  0.00    +0.060 A 
ATOM     19  C   UNL     1      -1.884  -2.223   1.475  0.00  0.00    +0.026 A 
ATOM     20 CL   UNL     1      -3.933  -3.990   1.564  0.00  0.00    -0.082 Cl
ATOM     21 CL   UNL     1      -5.322  -1.968   3.495  0.00  0.00    -0.082 Cl
ENDBRANCH  13  14
ENDBRANCH   2  13
TORSDOF 3
