REMARK  Name = ZINC00731964
REMARK  7 active torsions:
REMARK  status: ('A' for Active; 'I' for Inactive)
REMARK    1  A    between atoms: C_4  and  C_7
REMARK    2  A    between atoms: C_7  and  C_9
REMARK    3  A    between atoms: C_9  and  N_11
REMARK    4  A    between atoms: C_9  and  N_24
REMARK    5  A    between atoms: N_11  and  C_12
REMARK    6  A    between atoms: C_13  and  C_21
REMARK    7  A    between atoms: C_25  and  C_27
REMARK                            x       y       z     vdW  Elec       q    Type
REMARK                         _______ _______ _______ _____ _____    ______ ____
ROOT
ATOM      1  C   UNL     1      -1.620  -0.676  -0.190  0.00  0.00    +0.232 C 
ENDROOT
BRANCH   1   2
ATOM      2  N   UNL     1      -0.500   0.258  -0.054  0.00  0.00    -0.287 N 
ATOM      3  C   UNL     1      -0.697   1.579  -0.238  0.00  0.00    +0.246 C 
ATOM      4  O   UNL     1      -1.804   1.994  -0.523  0.00  0.00    -0.270 OA
ATOM      5  H   UNL     1       0.384  -0.073   0.169  0.00  0.00    +0.151 HD
BRANCH   3   6
ATOM      6  C   UNL     1       0.433   2.522  -0.101  0.00  0.00    +0.037 A 
ATOM      7  C   UNL     1       1.705   2.048   0.225  0.00  0.00    +0.013 A 
ATOM      8  C   UNL     1       2.757   2.933   0.346  0.00  0.00    +0.001 A 
ATOM      9  C   UNL     1       2.551   4.287   0.157  0.00  0.00    +0.000 A 
ATOM     10  C   UNL     1       1.291   4.764  -0.161  0.00  0.00    +0.001 A 
ATOM     11  C   UNL     1       0.232   3.889  -0.291  0.00  0.00    +0.013 A 
ENDBRANCH   3   6
ENDBRANCH   1   2
BRANCH   1  12
ATOM     12  C   UNL     1      -1.184  -1.869  -1.001  0.00  0.00    +0.201 C 
ATOM     13  O   UNL     1      -1.438  -2.990  -0.616  0.00  0.00    -0.288 OA
BRANCH  12  17
ATOM     14  C   UNL     1       0.935  -1.303  -4.632  0.00  0.00    +0.000 A 
ATOM     15  C   UNL     1       0.762  -2.580  -4.128  0.00  0.00    +0.001 A 
ATOM     16  C   UNL     1       0.074  -2.772  -2.948  0.00  0.00    +0.011 A 
ATOM     17  C   UNL     1      -0.448  -1.672  -2.261  0.00  0.00    +0.021 A 
ATOM     18  C   UNL     1      -0.274  -0.386  -2.780  0.00  0.00    +0.011 A 
ATOM     19  C   UNL     1       0.420  -0.210  -3.958  0.00  0.00    +0.001 A 
ENDBRANCH  12  17
ENDBRANCH   1  12
BRANCH   1  20
ATOM     20  N   UNL     1      -2.050  -1.120   1.138  0.00  0.00    -0.314 N 
ATOM     21  H   UNL     1      -1.516  -1.763   1.631  0.00  0.00    +0.149 HD
BRANCH  20  22
ATOM     22  C   UNL     1      -3.215  -0.622   1.690  0.00  0.00    +0.080 A 
ATOM     23  C   UNL     1      -3.785  -0.922   2.920  0.00  0.00    +0.068 A 
ATOM     24  C   UNL     1      -5.026  -0.249   3.267  0.00  0.00    -0.023 A 
ATOM     25  C   UNL     1      -5.501   0.600   2.331  0.00  0.00    -0.005 A 
ATOM     26  S   UNL     1      -4.324   0.523   1.010  0.00  0.00    -0.078 S 
ATOM     27  C   UNL     1      -6.752   1.420   2.407  0.00  0.00    +0.043 C 
ATOM     28  C   UNL     1      -7.619   0.876   3.551  0.00  0.00    +0.005 C 
ATOM     29  C   UNL     1      -6.741   0.696   4.793  0.00  0.00    +0.005 C 
ATOM     30  C   UNL     1      -5.770  -0.466   4.579  0.00  0.00    +0.037 C 
BRANCH  23  31
ATOM     31  C   UNL     1      -3.157  -1.877   3.836  0.00  0.00    +0.244 C 
ATOM     32  O   UNL     1      -2.350  -1.489   4.661  0.00  0.00    -0.270 OA
ATOM     33  N   UNL     1      -3.472  -3.186   3.765  0.00  0.00    -0.325 N 
ATOM     34  H   UNL     1      -4.115  -3.495   3.107  0.00  0.00    +0.145 HD
ATOM     35  H   UNL     1      -3.056  -3.818   4.371  0.00  0.00    +0.145 HD
ENDBRANCH  23  31
ENDBRANCH  20  22
ENDBRANCH   1  20
TORSDOF 7
