REMARK  Name = ZINC67022028
REMARK  5 active torsions:
REMARK  status: ('A' for Active; 'I' for Inactive)
REMARK    1  A    between atoms: C_1  and  C_2
REMARK    2  A    between atoms: C_5  and  N_24
REMARK    3  A    between atoms: C_7  and  C_8
REMARK    4  A    between atoms: N_10  and  C_11
REMARK    5  A    between atoms: C_12  and  C_21
REMARK                            x       y       z     vdW  Elec       q    Type
REMARK                         _______ _______ _______ _____ _____    ______ ____
ROOT
ATOM      1  C   UNL     1       0.571   0.027   4.825  0.00  0.00    +0.085 A 
ATOM      2  C   UNL     1       0.802  -0.497   6.086  0.00  0.00    +0.068 A 
ATOM      3  C   UNL     1       0.871   0.440   7.198  0.00  0.00    -0.023 A 
ATOM      4  C   UNL     1       0.690   1.728   6.840  0.00  0.00    -0.004 A 
ATOM      5  S   UNL     1       0.457   1.681   5.085  0.00  0.00    -0.077 S 
ATOM      6  C   UNL     1       0.680   2.932   7.729  0.00  0.00    +0.043 C 
ATOM      7  C   UNL     1       1.910   2.890   8.646  0.00  0.00    +0.005 C 
ATOM      8  C   UNL     1       1.544   2.127   9.916  0.00  0.00    +0.001 C 
ATOM      9  C   UNL     1       0.534   1.027   9.597  0.00  0.00    +0.005 C 
ATOM     10  C   UNL     1       1.137   0.010   8.633  0.00  0.00    +0.037 C 
ENDROOT
BRANCH   2  11
ATOM     11  C   UNL     1       0.970  -1.939   6.292  0.00  0.00    +0.244 C 
ATOM     12  O   UNL     1       2.078  -2.437   6.230  0.00  0.00    -0.270 OA
ATOM     13  N   UNL     1      -0.103  -2.712   6.552  0.00  0.00    -0.325 N 
ATOM     14  H   UNL     1      -0.987  -2.314   6.602  0.00  0.00    +0.145 HD
ATOM     15  H   UNL     1       0.008  -3.666   6.689  0.00  0.00    +0.145 HD
ENDBRANCH   2  11
BRANCH   1  18
ATOM     16  C   UNL     1       0.242   0.021   2.481  0.00  0.00    +0.249 C 
ATOM     17  O   UNL     1       0.134   1.232   2.503  0.00  0.00    -0.270 OA
ATOM     18  N   UNL     1       0.465  -0.657   3.624  0.00  0.00    -0.275 N 
ATOM     19  H   UNL     1       0.550  -1.623   3.607  0.00  0.00    +0.156 HD
BRANCH  16  26
ATOM     20  C   UNL     1      -0.512   1.452   0.082  0.00  0.00    +0.044 C 
ATOM     21  C   UNL     1      -0.235  -0.028   0.036  0.00  0.00    -0.038 A 
ATOM     22  C   UNL     1      -0.334  -0.714  -1.157  0.00  0.00    +0.006 A 
ATOM     23  C   UNL     1      -0.080  -2.073  -1.200  0.00  0.00    +0.033 A 
ATOM     24  C   UNL     1       0.275  -2.754  -0.049  0.00  0.00    +0.127 A 
ATOM     25  C   UNL     1       0.379  -2.081   1.150  0.00  0.00    +0.046 A 
ATOM     26  C   UNL     1       0.128  -0.708   1.200  0.00  0.00    +0.042 A 
BRANCH  24  27
ATOM     27  N   UNL     1       0.545  -4.209  -0.105  0.00  0.00    +0.056 N 
ATOM     28  O   UNL     1       0.455  -4.800  -1.155  0.00  0.00    -0.126 OA
ATOM     29  O   UNL     1       0.855  -4.805   0.900  0.00  0.00    -0.126 OA
ENDBRANCH  24  27
ENDBRANCH  16  26
ENDBRANCH   1  18
TORSDOF 4
