REMARK  Name = ZINC40173509
REMARK  9 active torsions:
REMARK  status: ('A' for Active; 'I' for Inactive)
REMARK    1  A    between atoms: C_1  and  C_2
REMARK    2  A    between atoms: C_2  and  C_3
REMARK    3  A    between atoms: C_3  and  C_5
REMARK    4  A    between atoms: C_3  and  N_20
REMARK    5  A    between atoms: N_7  and  C_8
REMARK    6  A    between atoms: C_9  and  C_17
REMARK    7  A    between atoms: C_24  and  S_25
REMARK    8  A    between atoms: S_25  and  C_26
REMARK    9  A    between atoms: C_26  and  C_27
REMARK                            x       y       z     vdW  Elec       q    Type
REMARK                         _______ _______ _______ _____ _____    ______ ____
ROOT
ATOM      1  C   UNL     1      -2.040  -0.353  -1.360  0.00  0.00    +0.241 C 
ATOM      2  O   UNL     1      -2.452  -1.265  -2.045  0.00  0.00    -0.273 OA
ATOM      3  N   UNL     1      -2.166   0.920  -1.786  0.00  0.00    -0.278 N 
ATOM      4  H   UNL     1      -1.903   1.653  -1.208  0.00  0.00    +0.155 HD
ENDROOT
BRANCH   3   5
ATOM      5  C   UNL     1      -2.671   1.181  -3.051  0.00  0.00    +0.084 A 
ATOM      6  C   UNL     1      -2.864   2.414  -3.654  0.00  0.00    +0.068 A 
ATOM      7  C   UNL     1      -3.413   2.417  -4.999  0.00  0.00    -0.023 A 
ATOM      8  C   UNL     1      -3.668   1.187  -5.494  0.00  0.00    -0.004 A 
ATOM      9  S   UNL     1      -3.182   0.075  -4.207  0.00  0.00    -0.077 S 
ATOM     10  C   UNL     1      -4.234   0.859  -6.841  0.00  0.00    +0.043 C 
ATOM     11  C   UNL     1      -4.835   2.141  -7.437  0.00  0.00    +0.005 C 
ATOM     12  C   UNL     1      -3.821   3.279  -7.288  0.00  0.00    +0.005 C 
ATOM     13  C   UNL     1      -3.690   3.671  -5.814  0.00  0.00    +0.037 C 
BRANCH   6  14
ATOM     14  C   UNL     1      -2.528   3.663  -2.963  0.00  0.00    +0.244 C 
ATOM     15  O   UNL     1      -1.414   4.139  -3.074  0.00  0.00    -0.270 OA
ATOM     16  N   UNL     1      -3.454   4.283  -2.204  0.00  0.00    -0.325 N 
ATOM     17  H   UNL     1      -4.342   3.903  -2.116  0.00  0.00    +0.145 HD
ATOM     18  H   UNL     1      -3.232   5.109  -1.747  0.00  0.00    +0.145 HD
ENDBRANCH   6  14
ENDBRANCH   3   5
BRANCH   1  19
ATOM     19  C   UNL     1      -1.389  -0.642  -0.033  0.00  0.00    +0.178 C 
BRANCH  19  20
ATOM     20  N   UNL     1      -1.288  -2.091   0.156  0.00  0.00    -0.279 N 
ATOM     21  C   UNL     1      -0.608  -2.960  -0.649  0.00  0.00    +0.216 A 
ATOM     22  N   UNL     1      -0.750  -4.166  -0.155  0.00  0.00    -0.113 NA
ATOM     23  N   UNL     1      -1.541  -4.071   0.998  0.00  0.00    -0.121 NA
ATOM     24  C   UNL     1      -1.852  -2.810   1.173  0.00  0.00    +0.194 A 
ATOM     25  N   UNL     1       0.108  -2.625  -1.791  0.00  0.00    -0.328 N 
ATOM     26  H   UNL     1       0.156  -1.700  -2.079  0.00  0.00    +0.145 HD
ATOM     27  H   UNL     1       0.561  -3.316  -2.300  0.00  0.00    +0.145 HD
BRANCH  24  28
ATOM     28  S   UNL     1      -2.830  -2.157   2.485  0.00  0.00    -0.071 S 
BRANCH  28  29
ATOM     29  C   UNL     1      -3.262  -3.613   3.477  0.00  0.00    +0.195 C 
BRANCH  29  30
ATOM     30  C   UNL     1      -4.090  -3.199   4.621  0.00  0.00    +0.074 C 
ATOM     31  N   UNL     1      -4.729  -2.879   5.504  0.00  0.00    -0.196 NA
ENDBRANCH  29  30
ENDBRANCH  28  29
ENDBRANCH  24  28
ENDBRANCH  19  20
BRANCH  19  33
ATOM     32  C   UNL     1       0.619  -0.197   1.387  0.00  0.00    +0.006 C 
ATOM     33  C   UNL     1       0.011  -0.025  -0.007  0.00  0.00    +0.031 C 
ENDBRANCH  19  33
ENDBRANCH   1  19
TORSDOF 8
