REMARK  Name = ZINC23882053
REMARK  7 active torsions:
REMARK  status: ('A' for Active; 'I' for Inactive)
REMARK    1  A    between atoms: C_1  and  C_2
REMARK    2  A    between atoms: C_2  and  C_3
REMARK    3  A    between atoms: C_3  and  C_30
REMARK    4  A    between atoms: N_6  and  C_10
REMARK    5  A    between atoms: C_10  and  N_11
REMARK    6  A    between atoms: N_14  and  S_17
REMARK    7  A    between atoms: S_17  and  C_20
REMARK                            x       y       z     vdW  Elec       q    Type
REMARK                         _______ _______ _______ _____ _____    ______ ____
ROOT
ATOM      1  N   UNL     1      -3.234   4.473  -4.300  0.00  0.00    -0.284 NA
ATOM      2  C   UNL     1      -3.434   3.215  -3.570  0.00  0.00    +0.103 C 
ATOM      3  C   UNL     1      -4.140   3.505  -2.241  0.00  0.00    +0.125 C 
ATOM      4  N   UNL     1      -3.370   4.528  -1.517  0.00  0.00    -0.174 NA
ATOM      5  C   UNL     1      -3.017   5.766  -2.229  0.00  0.00    +0.125 C 
ATOM      6  C   UNL     1      -2.351   5.384  -3.560  0.00  0.00    +0.103 C 
ENDROOT
BRANCH   4   7
ATOM      7  S   UNL     1      -2.919   4.296   0.059  0.00  0.00    +0.061 S 
ATOM      8  O   UNL     1      -3.834   3.358   0.609  0.00  0.00    -0.153 OA
ATOM      9  O   UNL     1      -2.721   5.586   0.620  0.00  0.00    -0.153 OA
BRANCH   7  10
ATOM     10  C   UNL     1      -1.342   3.509   0.038  0.00  0.00    +0.106 A 
ATOM     11  C   UNL     1      -0.187   4.269   0.035  0.00  0.00    +0.029 A 
ATOM     12  C   UNL     1       1.043   3.645   0.018  0.00  0.00    +0.006 A 
ATOM     13  C   UNL     1       1.131   2.259   0.003  0.00  0.00    -0.044 A 
ATOM     14  C   UNL     1      -0.018   1.502   0.010  0.00  0.00    -0.042 A 
ATOM     15  C   UNL     1      -1.256   2.132   0.032  0.00  0.00    +0.032 A 
ATOM     16  C   UNL     1       0.002  -0.004   0.002  0.00  0.00    +0.035 C 
ATOM     17  C   UNL     1       1.368  -0.520  -0.446  0.00  0.00    +0.005 C 
ATOM     18  C   UNL     1       2.446   0.176   0.393  0.00  0.00    +0.005 C 
ATOM     19  C   UNL     1       2.507   1.644  -0.022  0.00  0.00    +0.035 C 
ENDBRANCH   7  10
ENDBRANCH   4   7
BRANCH   1  20
ATOM     20  C   UNL     1      -2.717   4.221  -5.652  0.00  0.00    +0.205 C 
BRANCH  20  24
ATOM     21  C   UNL     1      -4.160   6.716  -7.995  0.00  0.00    +0.138 C 
ATOM     22  C   UNL     1      -4.213   5.396  -7.253  0.00  0.00    +0.252 C 
ATOM     23  O   UNL     1      -5.095   4.564  -7.300  0.00  0.00    -0.272 OA
ATOM     24  N   UNL     1      -3.078   5.338  -6.529  0.00  0.00    -0.210 N 
ATOM     25  C   UNL     1      -2.319   6.424  -6.713  0.00  0.00    +0.311 C 
ATOM     26  O   UNL     1      -1.246   6.599  -6.170  0.00  0.00    -0.252 OA
ATOM     27  N   UNL     1      -2.877   7.301  -7.568  0.00  0.00    -0.281 N 
ATOM     28  H   UNL     1      -2.562   8.280  -7.958  0.00  0.00    +0.152 HD
BRANCH  21  29
ATOM     29  C   UNL     1      -4.167   6.484  -9.484  0.00  0.00    -0.015 A 
ATOM     30  C   UNL     1      -5.358   6.527 -10.184  0.00  0.00    +0.006 A 
ATOM     31  C   UNL     1      -5.364   6.318 -11.551  0.00  0.00    +0.000 A 
ATOM     32  C   UNL     1      -4.180   6.057 -12.215  0.00  0.00    +0.000 A 
ATOM     33  C   UNL     1      -2.990   6.009 -11.514  0.00  0.00    +0.000 A 
ATOM     34  C   UNL     1      -2.983   6.222 -10.148  0.00  0.00    +0.006 A 
ENDBRANCH  21  29
BRANCH  21  36
ATOM     35  C   UNL     1      -5.253   7.897  -6.084  0.00  0.00    +0.007 C 
ATOM     36  C   UNL     1      -5.325   7.619  -7.587  0.00  0.00    +0.037 C 
ENDBRANCH  21  36
ENDBRANCH  20  24
ENDBRANCH   1  20
TORSDOF 6
