REMARK  Name = ZINC17445937
REMARK  8 active torsions:
REMARK  status: ('A' for Active; 'I' for Inactive)
REMARK    1  A    between atoms: C_1  and  C_2
REMARK    2  A    between atoms: C_5  and  N_8
REMARK    3  A    between atoms: N_8  and  S_9
REMARK    4  A    between atoms: S_9  and  C_12
REMARK    5  A    between atoms: C_15  and  C_32
REMARK    6  A    between atoms: C_16  and  C_18
REMARK    7  A    between atoms: N_20  and  N_21
REMARK    8  A    between atoms: C_22  and  C_24
REMARK                            x       y       z     vdW  Elec       q    Type
REMARK                         _______ _______ _______ _____ _____    ______ ____
ROOT
ATOM      1  C   UNL     1       1.399   2.293  -0.064  0.00  0.00    +0.109 A 
ATOM      2  C   UNL     1       2.279   2.107   0.988  0.00  0.00    +0.029 A 
ATOM      3  C   UNL     1       3.590   2.536   0.885  0.00  0.00    +0.006 A 
ATOM      4  C   UNL     1       4.026   3.163  -0.265  0.00  0.00    -0.038 A 
ATOM      5  C   UNL     1       3.142   3.358  -1.327  0.00  0.00    +0.043 A 
ATOM      6  C   UNL     1       1.822   2.918  -1.219  0.00  0.00    +0.042 A 
ATOM      7  C   UNL     1       5.453   3.635  -0.372  0.00  0.00    +0.044 C 
ENDROOT
BRANCH   5   8
ATOM      8  C   UNL     1       3.602   4.030  -2.561  0.00  0.00    +0.260 C 
ATOM      9  O   UNL     1       4.711   4.525  -2.606  0.00  0.00    -0.269 OA
ATOM     10  N   UNL     1       2.792   4.092  -3.636  0.00  0.00    -0.230 N 
ATOM     11  H   UNL     1       1.907   3.696  -3.600  0.00  0.00    +0.173 HD
BRANCH  10  12
ATOM     12  N   UNL     1       3.228   4.728  -4.806  0.00  0.00    -0.230 N 
ATOM     13  C   UNL     1       2.418   4.790  -5.881  0.00  0.00    +0.267 C 
ATOM     14  O   UNL     1       1.308   4.294  -5.836  0.00  0.00    -0.268 OA
ATOM     15  H   UNL     1       4.113   5.123  -4.842  0.00  0.00    +0.173 HD
BRANCH  13  16
ATOM     16  C   UNL     1       2.874   5.456  -7.105  0.00  0.00    +0.076 A 
ATOM     17  C   UNL     1       2.210   5.627  -8.302  0.00  0.00    +0.024 A 
ATOM     18  C   UNL     1       2.867   6.304  -9.330  0.00  0.00    -0.036 A 
ATOM     19  C   UNL     1       4.126   6.744  -9.065  0.00  0.00    -0.006 A 
ATOM     20  S   UNL     1       4.431   6.262  -7.434  0.00  0.00    -0.088 S 
ATOM     21  C   UNL     1       4.732   7.452 -10.245  0.00  0.00    +0.043 C 
ATOM     22  C   UNL     1       3.858   7.029 -11.446  0.00  0.00    +0.010 C 
ATOM     23  C   UNL     1       2.515   6.707 -10.764  0.00  0.00    +0.036 C 
ENDBRANCH  13  16
ENDBRANCH  10  12
ENDBRANCH   5   8
BRANCH   1  24
ATOM     24  S   UNL     1      -0.267   1.737   0.074  0.00  0.00    +0.072 S 
ATOM     25  O   UNL     1      -1.015   2.447  -0.903  0.00  0.00    -0.150 OA
ATOM     26  O   UNL     1      -0.593   1.772   1.457  0.00  0.00    -0.150 OA
BRANCH  24  27
ATOM     27  N   UNL     1      -0.290   0.143  -0.377  0.00  0.00    -0.216 N 
ATOM     28  H   UNL     1      -0.765  -0.126  -1.179  0.00  0.00    +0.174 HD
BRANCH  27  33
ATOM     29  C   UNL     1       2.404  -3.734   2.763  0.00  0.00    +0.044 C 
ATOM     30  C   UNL     1       1.688  -2.704   1.928  0.00  0.00    -0.050 A 
ATOM     31  C   UNL     1       0.502  -2.155   2.379  0.00  0.00    +0.005 A 
ATOM     32  C   UNL     1      -0.157  -1.210   1.617  0.00  0.00    +0.025 A 
ATOM     33  C   UNL     1       0.374  -0.811   0.396  0.00  0.00    +0.048 A 
ATOM     34  C   UNL     1       1.563  -1.369  -0.056  0.00  0.00    +0.025 A 
ATOM     35  C   UNL     1       2.219  -2.309   0.714  0.00  0.00    +0.005 A 
ENDBRANCH  27  33
ENDBRANCH  24  27
ENDBRANCH   1  24
TORSDOF 6
