REMARK  Name = ZINC14131998
REMARK  8 active torsions:
REMARK  status: ('A' for Active; 'I' for Inactive)
REMARK    1  A    between atoms: C_5  and  C_7
REMARK    2  A    between atoms: N_11  and  C_15
REMARK    3  A    between atoms: C_15  and  C_16
REMARK    4  A    between atoms: C_16  and  N_17
REMARK    5  A    between atoms: C_18  and  C_20
REMARK    6  A    between atoms: C_20  and  S_21
REMARK    7  A    between atoms: S_21  and  C_22
REMARK    8  A    between atoms: C_26  and  N_28
REMARK                            x       y       z     vdW  Elec       q    Type
REMARK                         _______ _______ _______ _____ _____    ______ ____
ROOT
ATOM      1  N   UNL     1      -1.935  -7.985   2.022  0.00  0.00    -0.313 N 
ATOM      2  C   UNL     1      -2.004  -8.557   3.240  0.00  0.00    +0.223 C 
ATOM      3  O   UNL     1      -1.839  -7.885   4.236  0.00  0.00    -0.275 OA
ATOM      4  H   UNL     1      -2.067  -8.522   1.225  0.00  0.00    +0.149 HD
ENDROOT
BRANCH   1   5
ATOM      5  C   UNL     1      -1.661  -6.551   1.900  0.00  0.00    +0.123 C 
BRANCH   5   6
ATOM      6  C   UNL     1      -1.637  -6.159   0.421  0.00  0.00    +0.136 C 
BRANCH   6  11
ATOM      7  C   UNL     1       1.254  -2.153  -0.022  0.00  0.00    +0.031 C 
ATOM      8  C   UNL     1       0.099  -2.855   0.087  0.00  0.00    +0.080 C 
ATOM      9  C   UNL     1      -0.110  -4.312   0.208  0.00  0.00    +0.260 C 
ATOM     10  O   UNL     1       0.823  -5.093   0.221  0.00  0.00    -0.269 OA
ATOM     11  N   UNL     1      -1.363  -4.725   0.300  0.00  0.00    -0.227 N 
ATOM     12  C   UNL     1      -2.394  -3.857   0.285  0.00  0.00    +0.286 C 
ATOM     13  O   UNL     1      -3.584  -4.096   0.362  0.00  0.00    -0.262 OA
ATOM     14  S   UNL     1      -1.590  -2.270   0.134  0.00  0.00    -0.026 S 
BRANCH   7  19
ATOM     15  C   UNL     1       0.023   1.238  -1.042  0.00  0.00    +0.001 A 
ATOM     16  C   UNL     1       1.138   2.018  -0.785  0.00  0.00    +0.003 A 
ATOM     17  C   UNL     1       2.291   1.445  -0.281  0.00  0.00    +0.039 A 
ATOM     18  C   UNL     1       2.339   0.087  -0.029  0.00  0.00    +0.131 A 
ATOM     19  C   UNL     1       1.214  -0.708  -0.286  0.00  0.00    +0.011 A 
ATOM     20  C   UNL     1       0.052  -0.118  -0.796  0.00  0.00    +0.011 A 
ATOM     21  F   UNL     1       3.466  -0.472   0.463  0.00  0.00    -0.205 F 
ENDBRANCH   7  19
ENDBRANCH   6  11
ENDBRANCH   5   6
ENDBRANCH   1   5
BRANCH   2  22
ATOM     22  C   UNL     1      -2.286 -10.032   3.365  0.00  0.00    +0.173 C 
BRANCH  22  23
ATOM     23  S   UNL     1      -2.315 -10.496   5.118  0.00  0.00    -0.077 S 
BRANCH  23  24
ATOM     24  C   UNL     1      -2.651 -12.226   5.096  0.00  0.00    +0.192 A 
ATOM     25  N   UNL     1      -2.804 -12.838   3.931  0.00  0.00    -0.207 NA
ATOM     26  C   UNL     1      -3.059 -14.143   3.876  0.00  0.00    +0.122 A 
ATOM     27  C   UNL     1      -3.163 -14.864   5.062  0.00  0.00    +0.086 A 
ATOM     28  C   UNL     1      -2.995 -14.186   6.266  0.00  0.00    +0.122 A 
ATOM     29  N   UNL     1      -2.738 -12.881   6.244  0.00  0.00    -0.207 NA
ATOM     30  N   UNL     1      -3.218 -14.777   2.653  0.00  0.00    -0.343 N 
ATOM     31  H   UNL     1      -3.145 -14.268   1.830  0.00  0.00    +0.144 HD
ATOM     32  H   UNL     1      -3.403 -15.728   2.620  0.00  0.00    +0.144 HD
BRANCH  28  33
ATOM     33  N   UNL     1      -3.091 -14.863   7.472  0.00  0.00    -0.343 N 
ATOM     34  H   UNL     1      -3.275 -15.816   7.481  0.00  0.00    +0.144 HD
ATOM     35  H   UNL     1      -2.973 -14.385   8.307  0.00  0.00    +0.144 HD
ENDBRANCH  28  33
ENDBRANCH  23  24
ENDBRANCH  22  23
ENDBRANCH   2  22
TORSDOF 8
