REMARK  Name = ZINC67381693
REMARK  11 active torsions:
REMARK  status: ('A' for Active; 'I' for Inactive)
REMARK    1  A    between atoms: C_1  and  C_2
REMARK    2  A    between atoms: C_5  and  N_9
REMARK    3  A    between atoms: C_10  and  C_12
REMARK    4  A    between atoms: C_12  and  C_13
REMARK    5  A    between atoms: C_13  and  N_14
REMARK    6  A    between atoms: N_17  and  C_18
REMARK    7  A    between atoms: C_18  and  C_19
REMARK    8  A    between atoms: C_19  and  C_21
REMARK    9  A    between atoms: C_19  and  N_26
REMARK   10  A    between atoms: N_26  and  C_27
REMARK   11  A    between atoms: N_26  and  C_28
REMARK                            x       y       z     vdW  Elec       q    Type
REMARK                         _______ _______ _______ _____ _____    ______ ____
ROOT
ATOM      1  N   UNL     1      -0.131  -8.325  -2.667  0.00  0.00    -0.299 N 
ATOM      2  C   UNL     1      -0.321  -8.988  -3.825  0.00  0.00    +0.300 C 
ATOM      3  O   UNL     1      -0.406  -8.374  -4.871  0.00  0.00    -0.253 OA
ATOM      4  N   UNL     1      -0.418 -10.332  -3.823  0.00  0.00    -0.301 N 
ATOM      5  H   UNL     1      -0.063  -8.814  -1.833  0.00  0.00    +0.150 HD
ATOM      6  H   UNL     1      -0.350 -10.822  -2.988  0.00  0.00    +0.150 HD
ENDROOT
BRANCH   1   7
ATOM      7  C   UNL     1      -0.025  -6.863  -2.670  0.00  0.00    +0.115 C 
BRANCH   7   8
ATOM      8  C   UNL     1       0.188  -6.365  -1.239  0.00  0.00    +0.115 C 
BRANCH   8  10
ATOM      9  N   UNL     1       0.487  -4.198  -0.084  0.00  0.00    -0.284 N 
ATOM     10  C   UNL     1       0.296  -4.862  -1.241  0.00  0.00    +0.219 C 
ATOM     11  O   UNL     1       0.211  -4.250  -2.284  0.00  0.00    -0.275 OA
ATOM     12  H   UNL     1       0.633  -4.691   0.739  0.00  0.00    +0.155 HD
BRANCH   9  17
ATOM     13  C   UNL     1       0.434   1.476  -0.025  0.00  0.00    +0.044 C 
ATOM     14  C   UNL     1       0.449  -0.031  -0.040  0.00  0.00    -0.049 A 
ATOM     15  C   UNL     1      -0.218  -0.718  -1.039  0.00  0.00    +0.005 A 
ATOM     16  C   UNL     1      -0.207  -2.099  -1.056  0.00  0.00    +0.025 A 
ATOM     17  C   UNL     1       0.474  -2.799  -0.069  0.00  0.00    +0.052 A 
ATOM     18  C   UNL     1       1.143  -2.107   0.933  0.00  0.00    +0.062 A 
ATOM     19  C   UNL     1       1.133  -0.725   0.941  0.00  0.00    +0.025 A 
ATOM     20 CL   UNL     1       1.997  -2.977   2.169  0.00  0.00    -0.082 Cl
ENDBRANCH   9  17
ENDBRANCH   8  10
ENDBRANCH   7   8
ENDBRANCH   1   7
BRANCH   4  21
ATOM     21  C   UNL     1      -0.626 -11.054  -5.081  0.00  0.00    +0.098 C 
BRANCH  21  22
ATOM     22  C   UNL     1      -0.827 -12.542  -4.788  0.00  0.00    +0.016 C 
BRANCH  22  23
ATOM     23  C   UNL     1       0.445 -13.119  -4.221  0.00  0.00    +0.093 A 
ATOM     24  C   UNL     1       1.362 -13.825  -4.906  0.00  0.00    +0.043 A 
ATOM     25  C   UNL     1       2.384 -14.166  -3.990  0.00  0.00    +0.041 A 
ATOM     26  C   UNL     1       2.030 -13.648  -2.801  0.00  0.00    +0.195 A 
ATOM     27  O   UNL     1       0.858 -13.009  -2.948  0.00  0.00    -0.469 OA
ENDBRANCH  22  23
BRANCH  22  28
ATOM     28  N   UNL     1      -1.915 -12.707  -3.816  0.00  0.00    +0.384 N 
ATOM     29  C   UNL     1      -3.177 -12.246  -4.411  0.00  0.00    -0.096 C 
ATOM     30  C   UNL     1      -2.035 -14.125  -3.451  0.00  0.00    -0.096 C 
ATOM     31  H   UNL     1      -1.714 -12.163  -2.990  0.00  0.00    -0.082 HD
ENDBRANCH  22  28
ENDBRANCH  21  22
ENDBRANCH   4  21
TORSDOF 8
