REMARK  Name = ZINC39670471
REMARK  6 active torsions:
REMARK  status: ('A' for Active; 'I' for Inactive)
REMARK    1  A    between atoms: C_1  and  C_2
REMARK    2  A    between atoms: C_7  and  C_11
REMARK    3  A    between atoms: C_11  and  N_12
REMARK    4  A    between atoms: C_13  and  C_15
REMARK    5  A    between atoms: C_26  and  C_28
REMARK    6  A    between atoms: C_28  and  C_29
REMARK                            x       y       z     vdW  Elec       q    Type
REMARK                         _______ _______ _______ _____ _____    ______ ____
ROOT
ATOM      1  C   UNL     1      -2.915  -7.692   3.280  0.00  0.00    +0.100 C 
ATOM      2  C   UNL     1      -3.572  -7.859   1.892  0.00  0.00    +0.121 C 
ATOM      3  N   UNL     1      -3.351  -9.281   1.541  0.00  0.00    -0.300 N 
ATOM      4  C   UNL     1      -3.551 -10.011   2.816  0.00  0.00    +0.115 C 
ATOM      5  C   UNL     1      -2.906  -9.106   3.885  0.00  0.00    -0.004 C 
ATOM      6  C   UNL     1      -3.730  -9.137   5.169  0.00  0.00    -0.010 C 
ATOM      7  C   UNL     1      -3.658 -10.538   5.783  0.00  0.00    -0.082 C 
ATOM      8  N   UNL     1      -2.259 -10.879   6.067  0.00  0.00    +0.379 N 
ATOM      9  C   UNL     1      -1.494 -10.938   4.815  0.00  0.00    -0.082 C 
ATOM     10  C   UNL     1      -1.474  -9.554   4.161  0.00  0.00    -0.010 C 
ATOM     11  C   UNL     1      -3.039  -9.796   0.335  0.00  0.00    +0.220 C 
ATOM     12  O   UNL     1      -2.889 -10.992   0.206  0.00  0.00    -0.275 OA
ATOM     13  H   UNL     1      -1.859 -10.176   6.671  0.00  0.00    -0.086 HD
ATOM     14  H   UNL     1      -2.219 -11.776   6.527  0.00  0.00    -0.086 HD
ENDROOT
BRANCH   1  16
ATOM     15  N   UNL     1      -0.956  -6.438   4.121  0.00  0.00    -0.309 N 
ATOM     16  C   UNL     1      -1.507  -7.174   3.136  0.00  0.00    +0.219 C 
ATOM     17  O   UNL     1      -0.871  -7.420   2.134  0.00  0.00    -0.275 OA
ATOM     18  H   UNL     1      -1.465  -6.241   4.923  0.00  0.00    +0.149 HD
BRANCH  15  19
ATOM     19  C   UNL     1       0.413  -5.934   3.981  0.00  0.00    +0.161 C 
BRANCH  19  26
ATOM     20  C   UNL     1       2.807  -3.270  10.445  0.00  0.00    +0.045 C 
ATOM     21  C   UNL     1       2.162  -3.346   9.085  0.00  0.00    -0.034 A 
ATOM     22  C   UNL     1       1.560  -2.204   8.532  0.00  0.00    +0.008 A 
ATOM     23  C   UNL     1       0.980  -2.276   7.304  0.00  0.00    +0.047 A 
ATOM     24  C   UNL     1       0.993  -3.500   6.605  0.00  0.00    +0.138 A 
ATOM     25  N   UNL     1       0.516  -3.857   5.421  0.00  0.00    -0.231 NA
ATOM     26  C   UNL     1       0.787  -5.147   5.210  0.00  0.00    +0.077 A 
ATOM     27  C   UNL     1       1.452  -5.629   6.282  0.00  0.00    +0.117 A 
ATOM     28  N   UNL     1       1.589  -4.598   7.171  0.00  0.00    -0.306 N 
ATOM     29  C   UNL     1       2.172  -4.510   8.402  0.00  0.00    +0.096 A 
ENDBRANCH  19  26
ENDBRANCH  15  19
ENDBRANCH   1  16
BRANCH  11  30
ATOM     30  C   UNL     1      -2.876  -8.884  -0.854  0.00  0.00    +0.131 C 
BRANCH  30  31
ATOM     31  C   UNL     1      -2.530  -9.703  -2.071  0.00  0.00    -0.039 A 
ATOM     32  C   UNL     1      -1.207  -9.963  -2.375  0.00  0.00    +0.005 A 
ATOM     33  C   UNL     1      -0.890 -10.714  -3.491  0.00  0.00    +0.020 A 
ATOM     34  C   UNL     1      -1.896 -11.204  -4.304  0.00  0.00    +0.041 A 
ATOM     35  C   UNL     1      -3.220 -10.943  -3.999  0.00  0.00    +0.020 A 
ATOM     36  C   UNL     1      -3.537 -10.197  -2.880  0.00  0.00    +0.005 A 
ATOM     37 CL   UNL     1      -1.498 -12.147  -5.707  0.00  0.00    -0.084 Cl
ENDBRANCH  30  31
ENDBRANCH  11  30
TORSDOF 5
