REMARK  Name = ZINC35215872
REMARK  5 active torsions:
REMARK  status: ('A' for Active; 'I' for Inactive)
REMARK    1  A    between atoms: C_1  and  C_2
REMARK    2  A    between atoms: C_6  and  N_19
REMARK    3  A    between atoms: C_7  and  C_8
REMARK    4  A    between atoms: C_15  and  C_17
REMARK    5  A    between atoms: C_17  and  O_18
REMARK                            x       y       z     vdW  Elec       q    Type
REMARK                         _______ _______ _______ _____ _____    ______ ____
ROOT
ATOM      1  C   UNL     1       0.013  -0.061   2.554  0.00  0.00    +0.249 C 
ATOM      2  O   UNL     1      -1.034   0.225   3.101  0.00  0.00    -0.270 OA
ATOM      3  N   UNL     1       1.185   0.319   3.101  0.00  0.00    -0.292 N 
ATOM      4  C   UNL     1       2.461  -0.118   2.517  0.00  0.00    +0.108 C 
ATOM      5  C   UNL     1       3.327   1.116   2.247  0.00  0.00    +0.019 C 
ATOM      6  C   UNL     1       3.472   1.925   3.538  0.00  0.00    +0.003 C 
ATOM      7  C   UNL     1       2.092   2.397   4.004  0.00  0.00    +0.025 C 
ATOM      8  C   UNL     1       1.211   1.182   4.290  0.00  0.00    +0.102 C 
ENDROOT
BRANCH   1  15
ATOM      9  C   UNL     1      -0.089   1.353   0.031  0.00  0.00    +0.044 C 
ATOM     10  C   UNL     1      -0.048  -0.154   0.065  0.00  0.00    -0.036 A 
ATOM     11  C   UNL     1      -0.053  -0.872  -1.113  0.00  0.00    +0.004 A 
ATOM     12  C   UNL     1      -0.015  -2.255  -1.083  0.00  0.00    +0.003 A 
ATOM     13  C   UNL     1       0.029  -2.926   0.126  0.00  0.00    +0.033 A 
ATOM     14  C   UNL     1       0.035  -2.220   1.311  0.00  0.00    +0.139 A 
ATOM     15  C   UNL     1       0.002  -0.824   1.288  0.00  0.00    +0.070 A 
BRANCH  14  16
ATOM     16  N   UNL     1       0.082  -2.940   2.603  0.00  0.00    +0.057 N 
ATOM     17  O   UNL     1       0.115  -4.148   2.622  0.00  0.00    -0.126 OA
ATOM     18  O   UNL     1       0.087  -2.319   3.641  0.00  0.00    -0.126 OA
ENDBRANCH  14  16
ENDBRANCH   1  15
BRANCH   8  19
ATOM     19  C   UNL     1      -0.209   1.647   4.617  0.00  0.00    +0.178 C 
BRANCH  19  20
ATOM     20  O   UNL     1      -0.717   2.426   3.533  0.00  0.00    -0.393 OA
ATOM     21  H   UNL     1      -1.616   2.755   3.672  0.00  0.00    +0.209 HD
ENDBRANCH  19  20
ENDBRANCH   8  19
TORSDOF 4
