REMARK  Name = ZINC39694409
REMARK  7 active torsions:
REMARK  status: ('A' for Active; 'I' for Inactive)
REMARK    1  A    between atoms: C_1  and  C_2
REMARK    2  A    between atoms: C_7  and  C_8
REMARK    3  A    between atoms: C_8  and  C_9
REMARK    4  A    between atoms: C_13  and  C_22
REMARK    5  A    between atoms: N_24  and  C_25
REMARK    6  A    between atoms: C_25  and  C_26
REMARK    7  A    between atoms: C_31  and  N_32
REMARK                            x       y       z     vdW  Elec       q    Type
REMARK                         _______ _______ _______ _____ _____    ______ ____
ROOT
ATOM      1  C   UNL     1      -1.170   0.362   2.820  0.00  0.00    +0.220 C 
ATOM      2  O   UNL     1      -2.134   0.072   2.143  0.00  0.00    -0.275 OA
ATOM      3  N   UNL     1      -1.343   0.890   4.048  0.00  0.00    -0.300 N 
ATOM      4  C   UNL     1      -0.302   1.399   4.972  0.00  0.00    +0.121 C 
ATOM      5  C   UNL     1      -0.929   2.661   5.607  0.00  0.00    +0.100 C 
ATOM      6  C   UNL     1      -2.447   2.453   5.479  0.00  0.00    -0.004 C 
ATOM      7  C   UNL     1      -2.617   1.099   4.776  0.00  0.00    +0.115 C 
ATOM      8  C   UNL     1      -3.062   3.562   4.630  0.00  0.00    -0.010 C 
ATOM      9  C   UNL     1      -4.580   3.365   4.564  0.00  0.00    -0.082 C 
ATOM     10  N   UNL     1      -5.138   3.393   5.922  0.00  0.00    +0.379 N 
ATOM     11  C   UNL     1      -4.610   2.268   6.704  0.00  0.00    -0.082 C 
ATOM     12  C   UNL     1      -3.094   2.418   6.859  0.00  0.00    -0.010 C 
ATOM     13  H   UNL     1      -4.884   4.261   6.370  0.00  0.00    -0.086 HD
ATOM     14  H   UNL     1      -6.143   3.324   5.872  0.00  0.00    -0.086 HD
ENDROOT
BRANCH   5  15
ATOM     15  C   UNL     1      -0.500   3.895   4.854  0.00  0.00    +0.218 C 
ATOM     16  O   UNL     1      -0.321   3.842   3.656  0.00  0.00    -0.275 OA
ATOM     17  N   UNL     1      -0.317   5.056   5.513  0.00  0.00    -0.311 N 
ATOM     18  H   UNL     1      -0.528   5.117   6.458  0.00  0.00    +0.149 HD
BRANCH  17  19
ATOM     19  C   UNL     1       0.201   6.228   4.802  0.00  0.00    +0.141 C 
BRANCH  19  20
ATOM     20  C   UNL     1       0.427   7.351   5.782  0.00  0.00    -0.009 A 
ATOM     21  C   UNL     1      -0.489   8.380   5.877  0.00  0.00    +0.007 A 
ATOM     22  C   UNL     1      -0.281   9.411   6.775  0.00  0.00    +0.000 A 
ATOM     23  C   UNL     1       0.843   9.415   7.581  0.00  0.00    +0.002 A 
ATOM     24  C   UNL     1       1.762   8.388   7.491  0.00  0.00    +0.023 A 
ATOM     25  C   UNL     1       1.554   7.348   6.593  0.00  0.00    +0.035 A 
BRANCH  25  26
ATOM     26  N   UNL     1       2.479   6.306   6.504  0.00  0.00    -0.325 N 
ATOM     27  C   UNL     1       3.671   6.422   5.648  0.00  0.00    +0.133 C 
ATOM     28  C   UNL     1       4.902   6.048   6.481  0.00  0.00    +0.178 C 
ATOM     29  O   UNL     1       4.685   4.777   7.098  0.00  0.00    -0.377 OA
ATOM     30  C   UNL     1       3.590   4.751   8.016  0.00  0.00    +0.178 C 
ATOM     31  C   UNL     1       2.294   5.061   7.266  0.00  0.00    +0.133 C 
ENDBRANCH  25  26
ENDBRANCH  19  20
ENDBRANCH  17  19
ENDBRANCH   5  15
BRANCH   1  32
ATOM     32  C   UNL     1       0.221   0.131   2.288  0.00  0.00    +0.131 C 
BRANCH  32  39
ATOM     33  C   UNL     1      -0.154   1.656  -0.137  0.00  0.00    +0.044 C 
ATOM     34  C   UNL     1      -0.040   0.155  -0.201  0.00  0.00    -0.047 A 
ATOM     35  C   UNL     1      -0.108  -0.492  -1.421  0.00  0.00    +0.003 A 
ATOM     36  C   UNL     1      -0.003  -1.869  -1.480  0.00  0.00    +0.000 A 
ATOM     37  C   UNL     1       0.171  -2.599  -0.319  0.00  0.00    +0.000 A 
ATOM     38  C   UNL     1       0.240  -1.953   0.900  0.00  0.00    +0.004 A 
ATOM     39  C   UNL     1       0.140  -0.575   0.959  0.00  0.00    -0.036 A 
ENDBRANCH  32  39
ENDBRANCH   1  32
TORSDOF 6
