REMARK  Name = ZINC50530767
REMARK  3 active torsions:
REMARK  status: ('A' for Active; 'I' for Inactive)
REMARK    1  A    between atoms: C_7  and  S_12
REMARK    2  A    between atoms: S_12  and  C_13
REMARK    3  A    between atoms: C_19  and  N_21
REMARK                            x       y       z     vdW  Elec       q    Type
REMARK                         _______ _______ _______ _____ _____    ______ ____
ROOT
ATOM      1  S   UNL     1      -0.116  -3.088  -0.012  0.00  0.00    -0.030 S 
ENDROOT
BRANCH   1   8
ATOM      2  C   UNL     1      -0.016   1.360   0.009  0.00  0.00    +0.001 A 
ATOM      3  C   UNL     1       1.167   2.094   0.002  0.00  0.00    +0.001 A 
ATOM      4  C   UNL     1       2.380   1.473  -0.013  0.00  0.00    +0.011 A 
ATOM      5  C   UNL     1       2.436   0.074  -0.021  0.00  0.00    +0.023 A 
ATOM      6  C   UNL     1       1.230  -0.674  -0.013  0.00  0.00    +0.019 A 
ATOM      7  C   UNL     1       0.002  -0.004   0.002  0.00  0.00    +0.011 A 
ATOM      8  C   UNL     1       1.332  -2.084  -0.021  0.00  0.00    +0.134 A 
ATOM      9  N   UNL     1       2.532  -2.635  -0.036  0.00  0.00    -0.140 NA
ATOM     10  N   UNL     1       3.617  -1.954  -0.043  0.00  0.00    -0.136 NA
ATOM     11  C   UNL     1       3.650  -0.640  -0.037  0.00  0.00    +0.159 A 
ATOM     12 CL   UNL     1       5.167   0.203  -0.048  0.00  0.00    -0.059 Cl
ENDBRANCH   1   8
BRANCH   1  13
ATOM     13  C   UNL     1       0.508  -4.736  -0.026  0.00  0.00    +0.177 A 
ATOM     14  N   UNL     1      -0.367  -5.780  -0.028  0.00  0.00    -0.302 N 
ATOM     15  H   UNL     1      -1.322  -5.611  -0.022  0.00  0.00    +0.171 HD
ATOM     16  C   UNL     1       0.093  -7.048  -0.039  0.00  0.00    +0.254 A 
ATOM     17  O   UNL     1      -0.683  -7.990  -0.042  0.00  0.00    -0.268 OA
ATOM     18  C   UNL     1       1.475  -7.266  -0.049  0.00  0.00    +0.113 A 
ATOM     19  C   UNL     1       2.323  -6.167  -0.046  0.00  0.00    +0.124 A 
ATOM     20  N   UNL     1       1.809  -4.932  -0.041  0.00  0.00    -0.208 NA
BRANCH  19  21
ATOM     21  N   UNL     1       3.692  -6.349  -0.055  0.00  0.00    -0.343 N 
ATOM     22  H   UNL     1       4.062  -7.245  -0.063  0.00  0.00    +0.144 HD
ATOM     23  H   UNL     1       4.283  -5.580  -0.053  0.00  0.00    +0.144 HD
ENDBRANCH  19  21
ENDBRANCH   1  13
TORSDOF 3
