REMARK  Name = ZINC36839288
REMARK  4 active torsions:
REMARK  status: ('A' for Active; 'I' for Inactive)
REMARK    1  A    between atoms: C_1  and  C_2
REMARK    2  A    between atoms: C_8  and  N_10
REMARK    3  A    between atoms: C_11  and  C_13
REMARK    4  A    between atoms: N_18  and  C_20
REMARK                            x       y       z     vdW  Elec       q    Type
REMARK                         _______ _______ _______ _____ _____    ______ ____
ROOT
ATOM      1  C   UNL     1       0.033   0.579   4.842  0.00  0.00    +0.101 C 
ATOM      2  C   UNL     1      -0.463   2.033   4.663  0.00  0.00    +0.110 C 
ATOM      3  C   UNL     1      -0.256   2.665   6.022  0.00  0.00    +0.221 C 
ATOM      4  O   UNL     1      -0.766   3.702   6.390  0.00  0.00    -0.275 OA
ATOM      5  N   UNL     1       0.574   1.910   6.762  0.00  0.00    -0.269 N 
ATOM      6  C   UNL     1       1.022   0.725   6.019  0.00  0.00    +0.127 C 
ENDROOT
BRANCH   5   7
ATOM      7  C   UNL     1       0.962   2.214   8.072  0.00  0.00    +0.055 A 
ATOM      8  C   UNL     1       0.219   1.741   9.145  0.00  0.00    +0.025 A 
ATOM      9  C   UNL     1       0.605   2.042  10.437  0.00  0.00    +0.002 A 
ATOM     10  C   UNL     1       1.729   2.815  10.662  0.00  0.00    +0.002 A 
ATOM     11  C   UNL     1       2.471   3.289   9.597  0.00  0.00    +0.022 A 
ATOM     12  C   UNL     1       2.094   2.986   8.302  0.00  0.00    +0.062 A 
ATOM     13 CL   UNL     1       3.031   3.575   6.964  0.00  0.00    -0.082 Cl
ENDBRANCH   5   7
BRANCH   1  15
ATOM     14  N   UNL     1       0.056  -0.038   2.447  0.00  0.00    -0.312 N 
ATOM     15  C   UNL     1       0.738   0.093   3.602  0.00  0.00    +0.218 C 
ATOM     16  O   UNL     1       1.919  -0.179   3.644  0.00  0.00    -0.275 OA
ATOM     17  H   UNL     1      -0.888   0.180   2.413  0.00  0.00    +0.149 HD
BRANCH  14  24
ATOM     18  C   UNL     1      -0.019   1.526   0.010  0.00  0.00    +0.009 C 
ATOM     19  C   UNL     1       0.002  -0.004   0.002  0.00  0.00    +0.006 C 
ATOM     20  C   UNL     1       0.718  -0.497  -1.257  0.00  0.00    +0.005 C 
ATOM     21  C   UNL     1       0.739  -2.027  -1.265  0.00  0.00    +0.000 C 
ATOM     22  C   UNL     1       1.479  -2.534  -0.026  0.00  0.00    +0.002 C 
ATOM     23  C   UNL     1       0.763  -2.041   1.233  0.00  0.00    +0.022 C 
ATOM     24  C   UNL     1       0.742  -0.511   1.242  0.00  0.00    +0.076 C 
ENDBRANCH  14  24
ENDBRANCH   1  15
TORSDOF 3
