REMARK  Name = ZINC04246294
REMARK  7 active torsions:
REMARK  status: ('A' for Active; 'I' for Inactive)
REMARK    1  A    between atoms: C_1  and  C_2
REMARK    2  A    between atoms: C_2  and  C_4
REMARK    3  A    between atoms: C_2  and  O_16
REMARK    4  A    between atoms: N_9  and  C_10
REMARK    5  A    between atoms: O_16  and  C_17
REMARK    6  A    between atoms: C_17  and  C_19
REMARK    7  A    between atoms: C_24  and  N_25
REMARK                            x       y       z     vdW  Elec       q    Type
REMARK                         _______ _______ _______ _____ _____    ______ ____
ROOT
ATOM      1  C   UNL     1       7.032   3.401   2.635  0.00  0.00    +0.062 C 
ATOM      2  C   UNL     1       6.490   2.092   2.058  0.00  0.00    +0.259 C 
ENDROOT
BRANCH   2   3
ATOM      3  C   UNL     1       5.045   1.930   2.452  0.00  0.00    +0.261 C 
ATOM      4  O   UNL     1       4.714   1.020   3.182  0.00  0.00    -0.271 OA
ATOM      5  N   UNL     1       4.120   2.796   1.994  0.00  0.00    -0.237 N 
ATOM      6  C   UNL     1       2.827   2.652   2.346  0.00  0.00    +0.306 C 
ATOM      7  O   UNL     1       2.495   1.740   3.078  0.00  0.00    -0.252 OA
ATOM      8  N   UNL     1       1.902   3.518   1.888  0.00  0.00    -0.296 N 
ATOM      9  H   UNL     1       4.384   3.525   1.410  0.00  0.00    +0.159 HD
ATOM     10  H   UNL     1       2.167   4.246   1.304  0.00  0.00    +0.151 HD
BRANCH   8  11
ATOM     11  C   UNL     1       0.497   3.361   2.272  0.00  0.00    +0.074 C 
ATOM     12  C   UNL     1       0.256   4.044   3.619  0.00  0.00    +0.022 C 
ATOM     13  C   UNL     1      -1.211   3.880   4.020  0.00  0.00    +0.002 C 
ATOM     14  C   UNL     1      -2.105   4.521   2.956  0.00  0.00    +0.000 C 
ATOM     15  C   UNL     1      -1.864   3.837   1.608  0.00  0.00    +0.002 C 
ATOM     16  C   UNL     1      -0.397   4.002   1.208  0.00  0.00    +0.022 C 
ENDBRANCH   8  11
ENDBRANCH   2   3
BRANCH   2  17
ATOM     17  O   UNL     1       7.261   0.977   2.578  0.00  0.00    -0.449 OA
BRANCH  17  18
ATOM     18  C   UNL     1       8.345   0.601   1.871  0.00  0.00    +0.342 C 
ATOM     19  O   UNL     1       8.638   1.189   0.848  0.00  0.00    -0.245 OA
BRANCH  18  20
ATOM     20  C   UNL     1       9.176  -0.522   2.338  0.00  0.00    +0.081 A 
ATOM     21  C   UNL     1       8.777  -1.280   3.443  0.00  0.00    +0.032 A 
ATOM     22  C   UNL     1       9.556  -2.333   3.872  0.00  0.00    +0.019 A 
ATOM     23  C   UNL     1      10.740  -2.639   3.219  0.00  0.00    +0.017 A 
ATOM     24  C   UNL     1      11.150  -1.898   2.131  0.00  0.00    +0.024 A 
ATOM     25  C   UNL     1      10.376  -0.836   1.680  0.00  0.00    +0.039 A 
ATOM     26 BR   UNL     1       9.011  -3.360   5.363  0.00  0.00    -0.050 Br
BRANCH  25  27
ATOM     27  N   UNL     1      10.787  -0.087   0.585  0.00  0.00    -0.357 N 
ATOM     28  H   UNL     1      10.459   0.818   0.465  0.00  0.00    +0.142 HD
ATOM     29  H   UNL     1      11.402  -0.470  -0.061  0.00  0.00    +0.142 HD
ENDBRANCH  25  27
ENDBRANCH  18  20
ENDBRANCH  17  18
ENDBRANCH   2  17
TORSDOF 6
