REMARK  Name = ZINC65467062
REMARK  10 active torsions:
REMARK  status: ('A' for Active; 'I' for Inactive)
REMARK    1  A    between atoms: C_1  and  C_2
REMARK    2  A    between atoms: C_5  and  C_8
REMARK    3  A    between atoms: C_8  and  C_9
REMARK    4  A    between atoms: C_8  and  N_25
REMARK    5  A    between atoms: C_9  and  N_10
REMARK    6  A    between atoms: N_13  and  N_14
REMARK    7  A    between atoms: C_15  and  C_17
REMARK    8  A    between atoms: C_17  and  C_18
REMARK    9  A    between atoms: N_25  and  C_26
REMARK   10  A    between atoms: N_25  and  C_27
REMARK                            x       y       z     vdW  Elec       q    Type
REMARK                         _______ _______ _______ _____ _____    ______ ____
ROOT
ATOM      1  N   UNL     1      -1.116  -6.359   0.374  0.00  0.00    -0.299 N 
ATOM      2  C   UNL     1      -2.197  -7.131   0.595  0.00  0.00    +0.316 C 
ATOM      3  O   UNL     1      -3.280  -6.617   0.800  0.00  0.00    -0.251 OA
ATOM      4  N   UNL     1      -2.079  -8.474   0.587  0.00  0.00    -0.218 N 
ATOM      5  H   UNL     1      -0.252  -6.769   0.210  0.00  0.00    +0.150 HD
ATOM      6  H   UNL     1      -2.858  -9.030   0.746  0.00  0.00    +0.174 HD
ENDROOT
BRANCH   4   7
ATOM      7  N   UNL     1      -0.832  -9.066   0.350  0.00  0.00    -0.233 N 
ATOM      8  C   UNL     1      -0.714 -10.409   0.343  0.00  0.00    +0.229 C 
ATOM      9  O   UNL     1      -1.688 -11.104   0.541  0.00  0.00    -0.274 OA
ATOM     10  H   UNL     1      -0.053  -8.510   0.191  0.00  0.00    +0.173 HD
BRANCH   8  11
ATOM     11  C   UNL     1       0.627 -11.046   0.088  0.00  0.00    +0.102 C 
BRANCH  11  12
ATOM     12  C   UNL     1       0.486 -12.569   0.133  0.00  0.00    +0.020 C 
ATOM     13  C   UNL     1      -0.422 -13.031  -1.018  0.00  0.00    +0.028 C 
ATOM     14  C   UNL     1      -0.298 -14.577  -1.142  0.00  0.00    +0.166 C 
ATOM     15  S   UNL     1       1.514 -14.791  -0.882  0.00  0.00    -0.031 S 
ATOM     16  O   UNL     1       2.166 -14.779  -2.145  0.00  0.00    -0.174 OA
ATOM     17  O   UNL     1       1.728 -15.880   0.005  0.00  0.00    -0.174 OA
ATOM     18  C   UNL     1       1.884 -13.219  -0.003  0.00  0.00    +0.170 C 
ENDBRANCH  11  12
ENDBRANCH   8  11
ENDBRANCH   4   7
BRANCH   1  19
ATOM     19  C   UNL     1      -1.244  -4.899   0.382  0.00  0.00    +0.095 C 
BRANCH  19  20
ATOM     20  C   UNL     1       0.090  -4.268  -0.022  0.00  0.00    -0.021 C 
BRANCH  20  25
ATOM     21  C   UNL     1       1.298  -5.663  -5.498  0.00  0.00    +0.044 C 
ATOM     22  C   UNL     1       0.983  -5.299  -4.070  0.00  0.00    -0.050 A 
ATOM     23  C   UNL     1       1.585  -5.987  -3.032  0.00  0.00    +0.003 A 
ATOM     24  C   UNL     1       1.296  -5.653  -1.722  0.00  0.00    +0.002 A 
ATOM     25  C   UNL     1       0.406  -4.631  -1.450  0.00  0.00    -0.059 A 
ATOM     26  C   UNL     1      -0.195  -3.943  -2.487  0.00  0.00    +0.002 A 
ATOM     27  C   UNL     1       0.097  -4.274  -3.797  0.00  0.00    +0.003 A 
ENDBRANCH  20  25
BRANCH  20  28
ATOM     28  N   UNL     1      -0.002  -2.807   0.103  0.00  0.00    +0.382 N 
ATOM     29  C   UNL     1      -0.292  -2.452   1.498  0.00  0.00    -0.096 C 
ATOM     30  C   UNL     1       1.273  -2.200  -0.302  0.00  0.00    -0.096 C 
ATOM     31  H   UNL     1      -0.742  -2.465  -0.492  0.00  0.00    -0.082 HD
ENDBRANCH  20  28
ENDBRANCH  19  20
ENDBRANCH   1  19
TORSDOF 7
