REMARK  Name = ZINC06858396
REMARK  7 active torsions:
REMARK  status: ('A' for Active; 'I' for Inactive)
REMARK    1  A    between atoms: C_1  and  C_2
REMARK    2  A    between atoms: C_5  and  C_8
REMARK    3  A    between atoms: C_8  and  O_9
REMARK    4  A    between atoms: C_14  and  C_22
REMARK    5  A    between atoms: C_16  and  S_17
REMARK    6  A    between atoms: S_17  and  C_18
REMARK    7  A    between atoms: C_18  and  C_19
REMARK                            x       y       z     vdW  Elec       q    Type
REMARK                         _______ _______ _______ _____ _____    ______ ____
ROOT
ATOM      1  C   UNL     1       8.037   1.548   0.675  0.00  0.00    +0.069 C 
ATOM      2  C   UNL     1       8.146   3.051   0.697  0.00  0.00    +0.081 A 
ATOM      3  C   UNL     1       7.050   3.825   0.335  0.00  0.00    +0.155 A 
ATOM      4  C   UNL     1       7.168   5.207   0.362  0.00  0.00    +0.008 A 
ATOM      5  C   UNL     1       8.375   5.765   0.749  0.00  0.00    +0.003 A 
ATOM      6  C   UNL     1       9.421   4.929   1.095  0.00  0.00    +0.117 A 
ATOM      7  N   UNL     1       9.278   3.619   1.060  0.00  0.00    -0.256 NA
ATOM      8  C   UNL     1       6.014   6.091  -0.021  0.00  0.00    +0.082 C 
ATOM      9  C   UNL     1       4.731   5.309  -0.013  0.00  0.00    +0.051 A 
ATOM     10  C   UNL     1       4.737   3.924  -0.020  0.00  0.00    +0.229 A 
ATOM     11  N   UNL     1       3.575   3.274  -0.008  0.00  0.00    -0.192 NA
ATOM     12  C   UNL     1       2.426   3.936   0.000  0.00  0.00    +0.167 A 
ATOM     13  N   UNL     1       2.384   5.261   0.007  0.00  0.00    -0.220 NA
ATOM     14  C   UNL     1       3.507   5.975   0.001  0.00  0.00    +0.108 A 
ATOM     15  O   UNL     1       5.894   3.228  -0.035  0.00  0.00    -0.436 OA
ENDROOT
BRANCH  12  16
ATOM     16  C   UNL     1       1.155   3.174   0.008  0.00  0.00    +0.054 A 
ATOM     17  C   UNL     1       1.174   1.780   0.000  0.00  0.00    +0.014 A 
ATOM     18  C   UNL     1      -0.013   1.076   0.008  0.00  0.00    +0.001 A 
ATOM     19  C   UNL     1      -1.221   1.749   0.017  0.00  0.00    +0.003 A 
ATOM     20  C   UNL     1      -1.249   3.131   0.030  0.00  0.00    +0.039 A 
ATOM     21  C   UNL     1      -0.067   3.849   0.022  0.00  0.00    +0.134 A 
ATOM     22  F   UNL     1      -0.094   5.200   0.029  0.00  0.00    -0.205 F 
ENDBRANCH  12  16
BRANCH   5  23
ATOM     23  C   UNL     1       8.547   7.261   0.792  0.00  0.00    +0.193 C 
BRANCH  23  24
ATOM     24  O   UNL     1       9.873   7.577   1.220  0.00  0.00    -0.390 OA
ATOM     25  H   UNL     1      10.055   8.525   1.270  0.00  0.00    +0.210 HD
ENDBRANCH  23  24
ENDBRANCH   5  23
BRANCH  14  26
ATOM     26  S   UNL     1       3.447   7.736   0.011  0.00  0.00    -0.096 S 
BRANCH  26  27
ATOM     27  C   UNL     1       1.655   7.989   0.027  0.00  0.00    +0.171 C 
BRANCH  27  28
ATOM     28  C   UNL     1       1.356   9.466   0.037  0.00  0.00    +0.221 C 
ATOM     29  O   UNL     1       2.266  10.269   0.033  0.00  0.00    -0.275 OA
ATOM     30  N   UNL     1       0.079   9.896   0.050  0.00  0.00    -0.329 N 
ATOM     31  H   UNL     1      -0.649   9.254   0.052  0.00  0.00    +0.145 HD
ATOM     32  H   UNL     1      -0.114  10.846   0.056  0.00  0.00    +0.145 HD
ENDBRANCH  27  28
ENDBRANCH  26  27
ENDBRANCH  14  26
TORSDOF 6
