REMARK  Name = ZINC32105492
REMARK  5 active torsions:
REMARK  status: ('A' for Active; 'I' for Inactive)
REMARK    1  A    between atoms: C_1  and  O_2
REMARK    2  A    between atoms: O_2  and  C_3
REMARK    3  A    between atoms: C_3  and  C_4
REMARK    4  A    between atoms: C_4  and  N_5
REMARK    5  A    between atoms: C_14  and  C_21
REMARK                            x       y       z     vdW  Elec       q    Type
REMARK                         _______ _______ _______ _____ _____    ______ ____
ROOT
ATOM      1  N   UNL     1      -0.593  -2.546   1.247  0.00  0.00    -0.288 N 
ATOM      2  C   UNL     1       0.744  -2.713   1.240  0.00  0.00    +0.247 C 
ATOM      3  O   UNL     1       1.399  -2.373   0.274  0.00  0.00    -0.270 OA
ATOM      4  C   UNL     1       1.406  -3.314   2.417  0.00  0.00    +0.041 A 
ATOM      5  C   UNL     1       2.791  -3.268   2.559  0.00  0.00    +0.013 A 
ATOM      6  C   UNL     1       3.381  -3.824   3.676  0.00  0.00    +0.001 A 
ATOM      7  C   UNL     1       2.601  -4.421   4.651  0.00  0.00    +0.000 A 
ATOM      8  C   UNL     1       1.225  -4.474   4.511  0.00  0.00    +0.005 A 
ATOM      9  C   UNL     1       0.624  -3.930   3.396  0.00  0.00    -0.021 A 
ATOM     10  C   UNL     1      -0.868  -4.017   3.209  0.00  0.00    +0.129 C 
ATOM     11  C   UNL     1      -1.375  -2.787   2.456  0.00  0.00    +0.053 C 
ATOM     12  C   UNL     1      -2.856  -2.989   2.079  0.00  0.00    +0.027 C 
ATOM     13  C   UNL     1      -3.637  -2.288   3.219  0.00  0.00    +0.002 C 
ATOM     14  C   UNL     1      -2.765  -1.042   3.515  0.00  0.00    +0.002 C 
ATOM     15  C   UNL     1      -1.316  -1.551   3.369  0.00  0.00    +0.027 C 
ENDROOT
BRANCH  10  16
ATOM     16  C   UNL     1      -1.202  -5.258   2.424  0.00  0.00    +0.228 C 
ATOM     17  O   UNL     1      -1.135  -5.246   1.213  0.00  0.00    -0.275 OA
ATOM     18  N   UNL     1      -1.575  -6.383   3.066  0.00  0.00    -0.264 N 
ATOM     19  C   UNL     1      -1.882  -7.524   2.344  0.00  0.00    +0.165 A 
ATOM     20  N   UNL     1      -1.863  -7.706   1.044  0.00  0.00    -0.225 NA
ATOM     21  C   UNL     1      -2.189  -8.884   0.470  0.00  0.00    +0.080 A 
ATOM     22  C   UNL     1      -2.209  -9.210  -0.906  0.00  0.00    +0.029 A 
ATOM     23  C   UNL     1      -2.569 -10.464  -1.323  0.00  0.00    +0.002 A 
ATOM     24  C   UNL     1      -2.923 -11.456  -0.419  0.00  0.00    +0.001 A 
ATOM     25  C   UNL     1      -2.914 -11.172   0.934  0.00  0.00    +0.017 A 
ATOM     26  C   UNL     1      -2.555  -9.918   1.362  0.00  0.00    +0.041 A 
ATOM     27  S   UNL     1      -2.397  -9.127   2.945  0.00  0.00    -0.052 S 
ATOM     28  H   UNL     1      -1.629  -6.393   4.035  0.00  0.00    +0.157 HD
ENDBRANCH  10  16
BRANCH   1  29
ATOM     29  C   UNL     1      -1.271  -2.109   0.025  0.00  0.00    +0.136 C 
BRANCH  29  30
ATOM     30  C   UNL     1      -1.493  -0.596   0.077  0.00  0.00    +0.178 C 
BRANCH  30  32
ATOM     31  C   UNL     1      -0.325   1.496   0.114  0.00  0.00    +0.194 C 
ATOM     32  O   UNL     1      -0.230   0.071   0.067  0.00  0.00    -0.381 OA
ENDBRANCH  30  32
ENDBRANCH  29  30
ENDBRANCH   1  29
TORSDOF 4
