REMARK  Name = ZINC36749502
REMARK  5 active torsions:
REMARK  status: ('A' for Active; 'I' for Inactive)
REMARK    1  A    between atoms: C_1  and  C_2
REMARK    2  A    between atoms: C_3  and  N_19
REMARK    3  A    between atoms: C_4  and  O_8
REMARK    4  A    between atoms: N_5  and  C_7
REMARK    5  A    between atoms: O_8  and  C_9
REMARK                            x       y       z     vdW  Elec       q    Type
REMARK                         _______ _______ _______ _____ _____    ______ ____
ROOT
ATOM      1  O   UNL     1       0.040  -3.214  -1.525  0.00  0.00    -0.437 OA
ENDROOT
BRANCH   1   2
ATOM      2  C   UNL     1       0.155  -4.433  -0.937  0.00  0.00    +0.131 A 
ATOM      3  C   UNL     1       0.146  -4.530   0.459  0.00  0.00    +0.047 A 
ATOM      4  C   UNL     1       0.260  -5.736   1.076  0.00  0.00    +0.012 A 
ATOM      5  C   UNL     1       0.389  -6.905   0.306  0.00  0.00    -0.018 A 
ATOM      6  C   UNL     1       0.508  -8.168   0.911  0.00  0.00    +0.008 A 
ATOM      7  C   UNL     1       0.631  -9.279   0.135  0.00  0.00    +0.001 A 
ATOM      8  C   UNL     1       0.640  -9.185  -1.256  0.00  0.00    +0.001 A 
ATOM      9  C   UNL     1       0.526  -7.980  -1.878  0.00  0.00    +0.008 A 
ATOM     10  C   UNL     1       0.398  -6.810  -1.109  0.00  0.00    -0.014 A 
ATOM     11  C   UNL     1       0.274  -5.549  -1.716  0.00  0.00    +0.054 A 
ENDBRANCH   1   2
BRANCH   1  15
ATOM     12  C   UNL     1       1.548   0.687   1.141  0.00  0.00    +0.069 C 
ATOM     13  C   UNL     1       0.677  -0.354   0.486  0.00  0.00    +0.084 A 
ATOM     14  C   UNL     1       1.124  -1.400  -0.331  0.00  0.00    +0.110 A 
ATOM     15  C   UNL     1       0.034  -2.117  -0.723  0.00  0.00    +0.240 A 
ATOM     16  N   UNL     1      -1.061  -1.533  -0.166  0.00  0.00    -0.234 N 
ATOM     17  N   UNL     1      -0.626  -0.437   0.589  0.00  0.00    -0.172 NA
ATOM     18  C   UNL     1      -2.449  -1.976  -0.323  0.00  0.00    +0.176 C 
BRANCH  14  19
ATOM     19  N   UNL     1       2.465  -1.664  -0.685  0.00  0.00    -0.352 N 
ATOM     20  H   UNL     1       3.176  -1.093  -0.353  0.00  0.00    +0.143 HD
ATOM     21  H   UNL     1       2.676  -2.417  -1.260  0.00  0.00    +0.143 HD
ENDBRANCH  14  19
ENDBRANCH   1  15
TORSDOF 3
