REMARK  Name = ZINC62689493
REMARK  7 active torsions:
REMARK  status: ('A' for Active; 'I' for Inactive)
REMARK    1  A    between atoms: C_1  and  C_2
REMARK    2  A    between atoms: C_2  and  C_4
REMARK    3  A    between atoms: C_8  and  C_10
REMARK    4  A    between atoms: C_10  and  C_11
REMARK    5  A    between atoms: C_10  and  C_12
REMARK    6  A    between atoms: C_10  and  N_13
REMARK    7  A    between atoms: C_22  and  C_24
REMARK                            x       y       z     vdW  Elec       q    Type
REMARK                         _______ _______ _______ _____ _____    ______ ____
ROOT
ATOM      1  N   UNL     1      -2.595  -3.925  -4.610  0.00  0.00    -0.290 N 
ATOM      2  C   UNL     1      -3.398  -4.611  -5.448  0.00  0.00    +0.304 C 
ATOM      3  O   UNL     1      -4.532  -4.890  -5.110  0.00  0.00    -0.253 OA
ATOM      4  N   UNL     1      -2.944  -4.987  -6.660  0.00  0.00    -0.269 N 
ATOM      5  C   UNL     1      -3.784  -5.766  -7.585  0.00  0.00    +0.129 C 
ATOM      6  C   UNL     1      -3.991  -4.938  -8.854  0.00  0.00    +0.123 C 
ATOM      7  N   UNL     1      -2.729  -4.378  -9.317  0.00  0.00    -0.312 N 
ATOM      8  C   UNL     1      -1.655  -4.193  -8.548  0.00  0.00    +0.238 C 
ATOM      9  O   UNL     1      -0.687  -3.643  -9.029  0.00  0.00    -0.273 OA
ATOM     10  C   UNL     1      -1.591  -4.630  -7.114  0.00  0.00    +0.195 C 
ATOM     11  H   UNL     1      -1.721  -3.629  -4.910  0.00  0.00    +0.151 HD
ATOM     12  H   UNL     1      -2.665  -4.121 -10.250  0.00  0.00    +0.149 HD
ENDROOT
BRANCH  10  13
ATOM     13  C   UNL     1      -0.687  -5.829  -6.996  0.00  0.00    +0.000 A 
ATOM     14  C   UNL     1      -0.460  -6.636  -8.096  0.00  0.00    +0.007 A 
ATOM     15  C   UNL     1       0.369  -7.736  -7.988  0.00  0.00    +0.000 A 
ATOM     16  C   UNL     1       0.974  -8.030  -6.780  0.00  0.00    +0.001 A 
ATOM     17  C   UNL     1       0.748  -7.225  -5.680  0.00  0.00    +0.020 A 
ATOM     18  C   UNL     1      -0.078  -6.121  -5.789  0.00  0.00    +0.046 A 
ATOM     19 CL   UNL     1      -0.356  -5.105  -4.409  0.00  0.00    -0.083 Cl
ENDBRANCH  10  13
BRANCH   1  20
ATOM     20  C   UNL     1      -3.042  -3.627  -3.247  0.00  0.00    +0.056 C 
ATOM     21  C   UNL     1      -3.315  -4.936  -2.502  0.00  0.00    +0.036 C 
ATOM     22  C   UNL     1      -4.324  -2.794  -3.301  0.00  0.00    +0.036 C 
BRANCH  20  27
ATOM     23  C   UNL     1      -0.081  -1.370  -2.571  0.00  0.00    -0.022 A 
ATOM     24  C   UNL     1      -0.002  -1.434  -1.179  0.00  0.00    +0.008 A 
ATOM     25  C   UNL     1      -0.904  -2.204  -0.475  0.00  0.00    +0.001 A 
ATOM     26  C   UNL     1      -1.886  -2.912  -1.145  0.00  0.00    +0.006 A 
ATOM     27  C   UNL     1      -1.970  -2.853  -2.525  0.00  0.00    -0.024 A 
ATOM     28  C   UNL     1      -1.077  -2.082  -3.241  0.00  0.00    +0.014 A 
BRANCH  23  30
ATOM     29  C   UNL     1       2.345  -0.910  -3.338  0.00  0.00    +0.044 C 
ATOM     30  C   UNL     1       0.882  -0.547  -3.332  0.00  0.00    -0.050 C 
ATOM     31  C   UNL     1       0.459   0.512  -4.009  0.00  0.00    +0.012 C 
ENDBRANCH  23  30
ENDBRANCH  20  27
ENDBRANCH   1  20
TORSDOF 4
