REMARK  Name = ZINC04195596
REMARK  3 active torsions:
REMARK  status: ('A' for Active; 'I' for Inactive)
REMARK    1  A    between atoms: C_3  and  C_21
REMARK    2  A    between atoms: N_10  and  C_11
REMARK    3  A    between atoms: C_21  and  O_22
REMARK                            x       y       z     vdW  Elec       q    Type
REMARK                         _______ _______ _______ _____ _____    ______ ____
ROOT
ATOM      1  C   UNL     1      -0.018   1.534   0.002  0.00  0.00    +0.019 C 
ATOM      2  C   UNL     1       1.420   2.056  -0.006  0.00  0.00    +0.009 C 
ATOM      3  C   UNL     1       2.129   1.585  -1.278  0.00  0.00    +0.032 C 
ATOM      4  C   UNL     1       2.171   0.053  -1.296  0.00  0.00    +0.115 C 
ATOM      5  N   UNL     1       0.802  -0.459  -1.143  0.00  0.00    -0.285 N 
ATOM      6  C   UNL     1      -0.001   0.002  -0.003  0.00  0.00    +0.109 C 
ATOM      7  C   UNL     1       0.293  -1.334  -2.033  0.00  0.00    +0.303 C 
ATOM      8  O   UNL     1       0.930  -1.635  -3.023  0.00  0.00    -0.253 OA
ATOM      9  N   UNL     1      -0.923  -1.876  -1.824  0.00  0.00    -0.294 N 
ATOM     10  H   UNL     1      -1.462  -1.584  -1.072  0.00  0.00    +0.151 HD
ENDROOT
BRANCH   9  11
ATOM     11  C   UNL     1      -1.431  -2.908  -2.732  0.00  0.00    +0.037 C 
ATOM     12  C   UNL     1      -0.484  -4.109  -2.720  0.00  0.00    +0.029 C 
ATOM     13  C   UNL     1      -1.014  -5.186  -3.668  0.00  0.00    -0.008 C 
ATOM     14  C   UNL     1      -2.405  -5.629  -3.210  0.00  0.00    +0.007 C 
ATOM     15  C   UNL     1      -3.353  -4.428  -3.222  0.00  0.00    -0.008 C 
ATOM     16  C   UNL     1      -2.822  -3.351  -2.273  0.00  0.00    +0.029 C 
ATOM     17  C   UNL     1      -3.439  -3.861  -4.640  0.00  0.00    +0.007 C 
ATOM     18  C   UNL     1      -2.049  -3.418  -5.098  0.00  0.00    -0.008 C 
ATOM     19  C   UNL     1      -1.101  -4.619  -5.087  0.00  0.00    +0.007 C 
ATOM     20  C   UNL     1      -1.518  -2.341  -4.150  0.00  0.00    +0.029 C 
ENDBRANCH   9  11
BRANCH   3  21
ATOM     21  C   UNL     1       3.557   2.135  -1.301  0.00  0.00    +0.160 C 
BRANCH  21  22
ATOM     22  O   UNL     1       4.179   1.792  -2.541  0.00  0.00    -0.395 OA
ATOM     23  H   UNL     1       5.089   2.110  -2.625  0.00  0.00    +0.209 HD
ENDBRANCH  21  22
ENDBRANCH   3  21
TORSDOF 3
