REMARK  Name = ZINC20876734
REMARK  12 active torsions:
REMARK  status: ('A' for Active; 'I' for Inactive)
REMARK    1  A    between atoms: C_1  and  N_2
REMARK    2  A    between atoms: C_3  and  S_7
REMARK    3  A    between atoms: S_7  and  C_8
REMARK    4  A    between atoms: C_8  and  C_9
REMARK    5  A    between atoms: C_9  and  N_10
REMARK    6  A    between atoms: N_10  and  C_11
REMARK    7  A    between atoms: C_11  and  C_12
REMARK    8  A    between atoms: C_14  and  O_30
REMARK    9  A    between atoms: C_15  and  O_19
REMARK   10  A    between atoms: O_19  and  C_20
REMARK   11  A    between atoms: C_20  and  C_21
REMARK   12  A    between atoms: O_30  and  C_31
REMARK                            x       y       z     vdW  Elec       q    Type
REMARK                         _______ _______ _______ _____ _____    ______ ____
ROOT
ATOM      1  C   UNL     1      -0.368   5.119   0.561  0.00  0.00    -0.060 A 
ATOM      2  C   UNL     1      -0.259   3.751   0.395  0.00  0.00    +0.051 A 
ATOM      3  C   UNL     1      -0.787   2.893   1.346  0.00  0.00    +0.163 A 
ATOM      4  C   UNL     1      -1.432   3.411   2.466  0.00  0.00    +0.176 A 
ATOM      5  C   UNL     1      -1.532   4.784   2.630  0.00  0.00    +0.063 A 
ATOM      6  C   UNL     1      -1.002   5.635   1.675  0.00  0.00    +0.021 A 
ATOM      7 BR   UNL     1      -2.398   5.494   4.153  0.00  0.00    -0.046 Br
ENDROOT
BRANCH   3   8
ATOM      8  O   UNL     1      -0.682   1.547   1.184  0.00  0.00    -0.491 OA
ATOM      9  C   UNL     1      -0.013   1.086   0.008  0.00  0.00    +0.277 C 
ENDBRANCH   3   8
BRANCH   1  10
ATOM     10  C   UNL     1       0.207   6.050  -0.475  0.00  0.00    -0.047 C 
BRANCH  10  11
ATOM     11  N   UNL     1      -0.813   6.339  -1.492  0.00  0.00    +0.382 N 
ATOM     12  H   UNL     1      -1.679   6.806  -1.001  0.00  0.00    -0.085 HD
ATOM     13  H   UNL     1      -1.123   5.393  -1.961  0.00  0.00    -0.085 HD
BRANCH  11  14
ATOM     14  C   UNL     1      -0.287   7.246  -2.521  0.00  0.00    -0.071 C 
BRANCH  14  15
ATOM     15  C   UNL     1      -1.375   7.524  -3.561  0.00  0.00    +0.058 C 
BRANCH  15  16
ATOM     16  S   UNL     1      -0.728   8.641  -4.829  0.00  0.00    -0.086 S 
BRANCH  16  19
ATOM     17  C   UNL     1      -1.209  10.357  -7.607  0.00  0.00    +0.177 C 
ATOM     18  N   UNL     1      -2.246   9.522  -6.995  0.00  0.00    -0.223 N 
ATOM     19  C   UNL     1      -2.147   8.785  -5.863  0.00  0.00    +0.209 A 
ATOM     20  N   UNL     1      -3.311   8.201  -5.679  0.00  0.00    -0.102 NA
ATOM     21  N   UNL     1      -4.127   8.518  -6.619  0.00  0.00    -0.022 NA
ATOM     22  N   UNL     1      -3.557   9.313  -7.458  0.00  0.00    -0.043 NA
ENDBRANCH  16  19
ENDBRANCH  15  16
ENDBRANCH  14  15
ENDBRANCH  11  14
ENDBRANCH  10  11
ENDBRANCH   1  10
BRANCH   4  23
ATOM     23  O   UNL     1      -1.957   2.573   3.399  0.00  0.00    -0.483 OA
BRANCH  23  24
ATOM     24  C   UNL     1      -1.102   2.184   4.476  0.00  0.00    +0.265 C 
BRANCH  24  25
ATOM     25  C   UNL     1      -1.850   1.262   5.404  0.00  0.00    -0.007 A 
ATOM     26  C   UNL     1      -2.561   1.783   6.469  0.00  0.00    +0.011 A 
ATOM     27  C   UNL     1      -3.253   0.941   7.319  0.00  0.00    +0.050 A 
ATOM     28  C   UNL     1      -3.227  -0.429   7.112  0.00  0.00    +0.166 A 
ATOM     29  C   UNL     1      -2.506  -0.954   6.043  0.00  0.00    +0.167 A 
ATOM     30  C   UNL     1      -1.819  -0.104   5.191  0.00  0.00    +0.056 A 
ATOM     31  O   UNL     1      -2.636  -2.313   6.054  0.00  0.00    -0.453 OA
ATOM     32  C   UNL     1      -3.104  -2.643   7.376  0.00  0.00    +0.466 C 
ATOM     33  O   UNL     1      -3.807  -1.458   7.795  0.00  0.00    -0.453 OA
ENDBRANCH  24  25
ENDBRANCH  23  24
ENDBRANCH   4  23
TORSDOF 10
