REMARK  Name = ZINC09383105
REMARK  6 active torsions:
REMARK  status: ('A' for Active; 'I' for Inactive)
REMARK    1  A    between atoms: C_1  and  C_2
REMARK    2  A    between atoms: C_10  and  N_16
REMARK    3  A    between atoms: C_11  and  C_12
REMARK    4  A    between atoms: C_12  and  O_14
REMARK    5  A    between atoms: O_14  and  C_15
REMARK    6  A    between atoms: C_17  and  C_19
REMARK                            x       y       z     vdW  Elec       q    Type
REMARK                         _______ _______ _______ _____ _____    ______ ____
ROOT
ATOM      1  C   UNL     1     -11.256   9.522  -1.609  0.00  0.00    +0.109 C 
ATOM      2  C   UNL     1     -11.591   8.231  -0.907  0.00  0.00    +0.213 C 
ATOM      3  O   UNL     1     -12.674   7.711  -1.078  0.00  0.00    -0.276 OA
ATOM      4  N   UNL     1     -10.688   7.655  -0.089  0.00  0.00    -0.297 N 
ATOM      5  C   UNL     1     -10.986   6.395   0.609  0.00  0.00    +0.113 C 
ATOM      6  C   UNL     1     -10.043   5.298   0.111  0.00  0.00    +0.056 C 
ATOM      7  C   UNL     1      -8.615   5.827   0.111  0.00  0.00    -0.018 A 
ATOM      8  C   UNL     1      -8.357   7.153   0.118  0.00  0.00    +0.013 A 
ATOM      9  S   UNL     1      -6.591   7.274   0.107  0.00  0.00    -0.076 S 
ATOM     10  C   UNL     1      -6.195   5.588   0.088  0.00  0.00    +0.087 A 
ATOM     11  C   UNL     1      -7.440   4.970   0.096  0.00  0.00    +0.091 A 
ATOM     12  C   UNL     1      -9.363   8.264   0.139  0.00  0.00    +0.150 C 
ENDROOT
BRANCH  10  13
ATOM     13  N   UNL     1      -4.943   4.998   0.073  0.00  0.00    -0.273 N 
ATOM     14  C   UNL     1      -3.836   5.768   0.067  0.00  0.00    +0.284 C 
ATOM     15  O   UNL     1      -3.938   6.979   0.073  0.00  0.00    -0.266 OA
ATOM     16  H   UNL     1      -4.862   4.032   0.067  0.00  0.00    +0.156 HD
BRANCH  14  17
ATOM     17  C   UNL     1      -2.496   5.137   0.051  0.00  0.00    +0.194 A 
ATOM     18  C   UNL     1      -1.401   5.935   0.044  0.00  0.00    +0.103 A 
ATOM     19  C   UNL     1      -0.070   5.311   0.029  0.00  0.00    +0.193 A 
ATOM     20  O   UNL     1       0.949   5.979   0.024  0.00  0.00    -0.287 OA
ATOM     21  C   UNL     1      -0.027   3.836   0.022  0.00  0.00    +0.064 A 
ATOM     22  C   UNL     1       1.184   3.146   0.007  0.00  0.00    +0.015 A 
ATOM     23  C   UNL     1       1.184   1.778   0.000  0.00  0.00    +0.001 A 
ATOM     24  C   UNL     1      -0.013   1.076   0.008  0.00  0.00    +0.004 A 
ATOM     25  C   UNL     1      -1.220   1.741   0.017  0.00  0.00    +0.047 A 
ATOM     26  C   UNL     1      -1.244   3.132   0.030  0.00  0.00    +0.139 A 
ATOM     27  O   UNL     1      -2.414   3.799   0.044  0.00  0.00    -0.450 OA
ENDBRANCH  14  17
ENDBRANCH  10  13
BRANCH  11  28
ATOM     28  C   UNL     1      -7.564   3.511   0.091  0.00  0.00    +0.342 C 
ATOM     29  O   UNL     1      -7.605   2.901   1.143  0.00  0.00    -0.245 OA
BRANCH  28  30
ATOM     30  O   UNL     1      -7.632   2.844  -1.079  0.00  0.00    -0.464 OA
ATOM     31  C   UNL     1      -7.753   1.399  -1.008  0.00  0.00    +0.280 C 
ENDBRANCH  28  30
ENDBRANCH  11  28
TORSDOF 4
