REMARK  Name = ZINC46643335
REMARK  5 active torsions:
REMARK  status: ('A' for Active; 'I' for Inactive)
REMARK    1  A    between atoms: C_1  and  C_2
REMARK    2  A    between atoms: N_4  and  N_5
REMARK    3  A    between atoms: C_6  and  C_8
REMARK    4  A    between atoms: C_8  and  N_9
REMARK    5  A    between atoms: C_10  and  C_12
REMARK                            x       y       z     vdW  Elec       q    Type
REMARK                         _______ _______ _______ _____ _____    ______ ____
ROOT
ATOM      1  N   UNL     1      -3.649  -4.798   0.011  0.00  0.00    -0.306 N 
ATOM      2  C   UNL     1      -3.877  -6.127   0.006  0.00  0.00    +0.220 C 
ATOM      3  O   UNL     1      -2.945  -6.902  -0.007  0.00  0.00    -0.275 OA
ATOM      4  H   UNL     1      -4.394  -4.178   0.022  0.00  0.00    +0.149 HD
ENDROOT
BRANCH   2   5
ATOM      5  C   UNL     1      -5.291  -6.648   0.017  0.00  0.00    +0.048 C 
ATOM      6  C   UNL     1      -6.007  -6.155   1.276  0.00  0.00    +0.019 C 
ATOM      7  C   UNL     1      -7.442  -6.684   1.286  0.00  0.00    -0.009 C 
ATOM      8  C   UNL     1      -7.421  -8.214   1.278  0.00  0.00    +0.007 C 
ATOM      9  C   UNL     1      -6.705  -8.708   0.019  0.00  0.00    -0.009 C 
ATOM     10  C   UNL     1      -5.270  -8.178   0.009  0.00  0.00    +0.019 C 
ATOM     11  C   UNL     1      -7.445  -8.201  -1.220  0.00  0.00    +0.007 C 
ATOM     12  C   UNL     1      -7.466  -6.671  -1.212  0.00  0.00    -0.009 C 
ATOM     13  C   UNL     1      -8.182  -6.178   0.047  0.00  0.00    +0.007 C 
ATOM     14  C   UNL     1      -6.031  -6.141  -1.223  0.00  0.00    +0.019 C 
ENDBRANCH   2   5
BRANCH   1  15
ATOM     15  C   UNL     1      -2.274  -4.291   0.001  0.00  0.00    +0.201 C 
BRANCH  15  17
ATOM     16  N   UNL     1      -1.137  -2.095   0.002  0.00  0.00    -0.233 N 
ATOM     17  C   UNL     1      -2.295  -2.784   0.009  0.00  0.00    +0.246 C 
ATOM     18  O   UNL     1      -3.353  -2.192   0.022  0.00  0.00    -0.273 OA
ATOM     19  H   UNL     1      -0.290  -2.568  -0.009  0.00  0.00    +0.173 HD
BRANCH  16  23
ATOM     20  C   UNL     1      -0.018   1.503   0.010  0.00  0.00    +0.110 C 
ATOM     21  C   UNL     1       0.002  -0.004   0.002  0.00  0.00    +0.226 C 
ATOM     22  O   UNL     1       1.060  -0.596  -0.011  0.00  0.00    -0.275 OA
ATOM     23  N   UNL     1      -1.156  -0.694   0.009  0.00  0.00    -0.235 N 
ATOM     24  H   UNL     1      -2.002  -0.220   0.020  0.00  0.00    +0.173 HD
ENDBRANCH  16  23
ENDBRANCH  15  17
ENDBRANCH   1  15
TORSDOF 4
