REMARK  Name = ZINC03324169
REMARK  7 active torsions:
REMARK  status: ('A' for Active; 'I' for Inactive)
REMARK    1  A    between atoms: C_1  and  C_2
REMARK    2  A    between atoms: C_2  and  C_4
REMARK    3  A    between atoms: C_2  and  N_10
REMARK    4  A    between atoms: C_11  and  C_13
REMARK    5  A    between atoms: C_13  and  C_25
REMARK    6  A    between atoms: C_14  and  C_15
REMARK    7  A    between atoms: C_19  and  N_21
REMARK                            x       y       z     vdW  Elec       q    Type
REMARK                         _______ _______ _______ _____ _____    ______ ____
ROOT
ATOM      1  C   UNL     1      -3.402  -1.191   1.192  0.00  0.00    +0.114 C 
ATOM      2  C   UNL     1      -4.080  -1.312   2.384  0.00  0.00    +0.032 C 
ENDROOT
BRANCH   2   3
ATOM      3  C   UNL     1      -5.490  -1.714   2.388  0.00  0.00    -0.021 A 
ATOM      4  C   UNL     1      -5.968  -2.615   1.427  0.00  0.00    +0.009 A 
ATOM      5  C   UNL     1      -7.294  -2.987   1.437  0.00  0.00    +0.023 A 
ATOM      6  C   UNL     1      -8.155  -2.474   2.395  0.00  0.00    +0.071 A 
ATOM      7  C   UNL     1      -7.690  -1.584   3.350  0.00  0.00    +0.145 A 
ATOM      8  C   UNL     1      -6.365  -1.205   3.357  0.00  0.00    +0.042 A 
ATOM      9 CL   UNL     1      -9.825  -2.950   2.399  0.00  0.00    -0.081 Cl
BRANCH   7  10
ATOM     10  N   UNL     1      -8.617  -1.042   4.368  0.00  0.00    +0.058 N 
ATOM     11  O   UNL     1      -8.213  -0.265   5.201  0.00  0.00    -0.126 OA
ATOM     12  O   UNL     1      -9.779  -1.377   4.367  0.00  0.00    -0.126 OA
ENDBRANCH   7  10
ENDBRANCH   2   3
BRANCH   1  14
ATOM     13  N   UNL     1      -1.286  -0.836   0.026  0.00  0.00    -0.304 N 
ATOM     14  C   UNL     1      -1.949  -0.954   1.193  0.00  0.00    +0.255 C 
ATOM     15  O   UNL     1      -1.348  -0.864   2.246  0.00  0.00    -0.269 OA
ATOM     16  H   UNL     1      -1.765  -0.907  -0.814  0.00  0.00    +0.150 HD
BRANCH  13  18
ATOM     17  C   UNL     1       0.432   0.900   0.164  0.00  0.00    +0.033 C 
ATOM     18  C   UNL     1       0.160  -0.600   0.026  0.00  0.00    +0.100 C 
BRANCH  18  19
ATOM     19  C   UNL     1       0.751  -1.101  -1.267  0.00  0.00    -0.027 A 
ATOM     20  C   UNL     1       0.080  -0.899  -2.458  0.00  0.00    +0.005 A 
ATOM     21  C   UNL     1       0.622  -1.359  -3.643  0.00  0.00    +0.000 A 
ATOM     22  C   UNL     1       1.836  -2.020  -3.638  0.00  0.00    +0.000 A 
ATOM     23  C   UNL     1       2.508  -2.220  -2.447  0.00  0.00    +0.000 A 
ATOM     24  C   UNL     1       1.968  -1.757  -1.262  0.00  0.00    +0.005 A 
ENDBRANCH  18  19
ENDBRANCH  13  18
ENDBRANCH   1  14
BRANCH   1  25
ATOM     25  C   UNL     1      -4.110  -1.297  -0.048  0.00  0.00    +0.104 C 
ATOM     26  N   UNL     1      -4.672  -1.380  -1.032  0.00  0.00    -0.191 NA
ENDBRANCH   1  25
TORSDOF 6
