REMARK  Name = ZINC43668521
REMARK  5 active torsions:
REMARK  status: ('A' for Active; 'I' for Inactive)
REMARK    1  A    between atoms: C_1  and  C_2
REMARK    2  A    between atoms: C_4  and  N_20
REMARK    3  A    between atoms: N_5  and  C_7
REMARK    4  A    between atoms: C_16  and  O_18
REMARK    5  A    between atoms: O_18  and  C_19
REMARK                            x       y       z     vdW  Elec       q    Type
REMARK                         _______ _______ _______ _____ _____    ______ ____
ROOT
ATOM      1  C   UNL     1       0.053  -3.291   1.500  0.00  0.00    +0.139 C 
ATOM      2  C   UNL     1       1.313  -3.260   2.364  0.00  0.00    +0.032 C 
ATOM      3  C   UNL     1       1.209  -4.378   3.409  0.00  0.00    +0.007 C 
ATOM      4  C   UNL     1       0.123  -4.000   4.413  0.00  0.00    +0.035 C 
ATOM      5  C   UNL     1      -1.150  -3.624   3.700  0.00  0.00    -0.039 A 
ATOM      6  C   UNL     1      -1.181  -3.295   2.364  0.00  0.00    -0.020 A 
ATOM      7  C   UNL     1      -2.387  -2.950   1.767  0.00  0.00    +0.009 A 
ATOM      8  C   UNL     1      -3.555  -2.939   2.500  0.00  0.00    +0.046 A 
ATOM      9  C   UNL     1      -3.526  -3.274   3.845  0.00  0.00    +0.120 A 
ATOM     10  C   UNL     1      -2.325  -3.616   4.439  0.00  0.00    +0.049 A 
ENDROOT
BRANCH   1  15
ATOM     11  C   UNL     1      -0.018   1.503   0.010  0.00  0.00    +0.069 C 
ATOM     12  C   UNL     1       0.002  -0.004   0.002  0.00  0.00    +0.076 A 
ATOM     13  C   UNL     1       0.008  -0.815  -1.136  0.00  0.00    +0.080 A 
ATOM     14  C   UNL     1       0.027  -2.113  -0.724  0.00  0.00    +0.129 A 
ATOM     15  N   UNL     1       0.034  -2.109   0.634  0.00  0.00    -0.242 N 
ATOM     16  N   UNL     1       0.023  -0.775   1.059  0.00  0.00    -0.173 NA
ATOM     17 BR   UNL     1      -0.009  -0.216  -2.930  0.00  0.00    -0.045 Br
BRANCH  14  18
ATOM     18  N   UNL     1       0.039  -3.238  -1.545  0.00  0.00    -0.342 N 
ATOM     19  H   UNL     1       0.033  -3.135  -2.510  0.00  0.00    +0.144 HD
ATOM     20  H   UNL     1       0.052  -4.125  -1.152  0.00  0.00    +0.144 HD
ENDBRANCH  14  18
ENDBRANCH   1  15
BRANCH   9  21
ATOM     21  O   UNL     1      -4.672  -3.268   4.576  0.00  0.00    -0.495 OA
ATOM     22  C   UNL     1      -5.874  -2.905   3.894  0.00  0.00    +0.277 C 
ENDBRANCH   9  21
TORSDOF 3
