REMARK  Name = ZINC04150861
REMARK  5 active torsions:
REMARK  status: ('A' for Active; 'I' for Inactive)
REMARK    1  A    between atoms: C_1  and  C_2
REMARK    2  A    between atoms: C_7  and  C_17
REMARK    3  A    between atoms: C_28  and  C_30
REMARK    4  A    between atoms: C_30  and  O_32
REMARK    5  A    between atoms: O_32  and  C_33
REMARK                            x       y       z     vdW  Elec       q    Type
REMARK                         _______ _______ _______ _____ _____    ______ ____
ROOT
ATOM      1  C   UNL     1      -0.088   5.532   2.443  0.00  0.00    +0.009 C 
ATOM      2  C   UNL     1      -1.533   5.048   2.586  0.00  0.00    +0.013 C 
ATOM      3  C   UNL     1      -2.122   5.556   3.901  0.00  0.00    +0.055 C 
ATOM      4  C   UNL     1      -1.297   5.041   5.069  0.00  0.00    +0.017 C 
ATOM      5  C   UNL     1      -0.708   3.835   5.005  0.00  0.00    +0.037 C 
ATOM      6  C   UNL     1       0.117   3.192   6.095  0.00  0.00    +0.136 C 
ATOM      7  N   UNL     1       0.475   4.083   7.178  0.00  0.00    -0.331 N 
ATOM      8  C   UNL     1      -0.498   4.636   8.008  0.00  0.00    +0.049 A 
ATOM      9  C   UNL     1      -0.565   4.321   9.356  0.00  0.00    +0.025 A 
ATOM     10  C   UNL     1      -1.577   4.859  10.132  0.00  0.00    +0.002 A 
ATOM     11  C   UNL     1      -2.518   5.702   9.568  0.00  0.00    +0.002 A 
ATOM     12  C   UNL     1      -2.444   6.032   8.226  0.00  0.00    +0.025 A 
ATOM     13  C   UNL     1      -1.420   5.511   7.454  0.00  0.00    +0.052 A 
ATOM     14  N   UNL     1      -1.226   5.885   6.129  0.00  0.00    -0.316 N 
ATOM     15  C   UNL     1      -0.821   3.048   3.835  0.00  0.00    +0.177 C 
ATOM     16  O   UNL     1      -0.295   1.952   3.813  0.00  0.00    -0.291 OA
ATOM     17  C   UNL     1      -1.566   3.515   2.621  0.00  0.00    +0.171 C 
ATOM     18  H   UNL     1       1.409   4.299   7.329  0.00  0.00    +0.147 HD
ATOM     19  H   UNL     1      -1.026   6.817   5.949  0.00  0.00    +0.152 HD
ENDROOT
BRANCH   6  20
ATOM     20  C   UNL     1      -0.665   2.038   6.668  0.00  0.00    -0.019 A 
ATOM     21  C   UNL     1      -0.178   0.750   6.551  0.00  0.00    +0.009 A 
ATOM     22  C   UNL     1      -0.891  -0.312   7.075  0.00  0.00    +0.050 A 
ATOM     23  C   UNL     1      -2.097  -0.087   7.720  0.00  0.00    +0.166 A 
ATOM     24  C   UNL     1      -2.587   1.211   7.838  0.00  0.00    +0.167 A 
ATOM     25  C   UNL     1      -1.864   2.271   7.315  0.00  0.00    +0.055 A 
ATOM     26  O   UNL     1      -3.776   1.169   8.507  0.00  0.00    -0.453 OA
ATOM     27  C   UNL     1      -3.808  -0.117   9.153  0.00  0.00    +0.466 C 
ATOM     28  O   UNL     1      -2.979  -0.942   8.315  0.00  0.00    -0.453 OA
ENDBRANCH   6  20
BRANCH  17  29
ATOM     29  C   UNL     1      -0.908   2.967   1.381  0.00  0.00    +0.318 C 
ATOM     30  O   UNL     1      -0.457   3.721   0.552  0.00  0.00    -0.250 OA
BRANCH  29  31
ATOM     31  O   UNL     1      -0.822   1.640   1.198  0.00  0.00    -0.467 OA
ATOM     32  C   UNL     1      -0.175   1.183  -0.019  0.00  0.00    +0.280 C 
ENDBRANCH  29  31
ENDBRANCH  17  29
TORSDOF 3
