REMARK  Name = ZINC38025650
REMARK  5 active torsions:
REMARK  status: ('A' for Active; 'I' for Inactive)
REMARK    1  A    between atoms: C_1  and  O_2
REMARK    2  A    between atoms: O_2  and  C_3
REMARK    3  A    between atoms: C_3  and  C_5
REMARK    4  A    between atoms: C_5  and  C_6
REMARK    5  A    between atoms: C_13  and  C_15
REMARK                            x       y       z     vdW  Elec       q    Type
REMARK                         _______ _______ _______ _____ _____    ______ ____
ROOT
ATOM      1  C   UNL     1      -2.863  -2.260  -0.094  0.00  0.00    +0.087 C 
ATOM      2  C   UNL     1      -3.435  -3.611  -0.533  0.00  0.00    +0.023 C 
ATOM      3  C   UNL     1      -4.964  -3.548  -0.501  0.00  0.00    +0.003 C 
ATOM      4  C   UNL     1      -5.434  -3.266   0.927  0.00  0.00    +0.019 C 
ATOM      5  C   UNL     1      -4.885  -1.910   1.383  0.00  0.00    +0.108 C 
ATOM      6  N   UNL     1      -3.425  -1.909   1.218  0.00  0.00    -0.293 N 
ATOM      7  C   UNL     1      -2.616  -1.595   2.249  0.00  0.00    +0.263 C 
ATOM      8  O   UNL     1      -1.419  -1.470   2.068  0.00  0.00    -0.268 OA
ENDROOT
BRANCH   7   9
ATOM      9  C   UNL     1      -3.179  -1.404   3.589  0.00  0.00    +0.104 A 
ATOM     10  C   UNL     1      -2.642  -0.629   4.596  0.00  0.00    +0.053 A 
ATOM     11  C   UNL     1      -3.498  -0.732   5.696  0.00  0.00    +0.078 A 
ATOM     12  C   UNL     1      -4.523  -1.552   5.351  0.00  0.00    +0.126 A 
ATOM     13  N   UNL     1      -4.343  -1.962   4.070  0.00  0.00    -0.341 N 
ATOM     14  H   UNL     1      -4.935  -2.552   3.576  0.00  0.00    +0.167 HD
ATOM     15 CL   UNL     1      -5.851  -1.997   6.377  0.00  0.00    -0.063 Cl
ATOM     16 CL   UNL     1      -3.287   0.049   7.232  0.00  0.00    -0.080 Cl
ENDBRANCH   7   9
BRANCH   1  17
ATOM     17  C   UNL     1      -1.339  -2.357   0.010  0.00  0.00    +0.143 C 
BRANCH  17  18
ATOM     18  C   UNL     1      -0.748  -0.971   0.036  0.00  0.00    +0.309 C 
ATOM     19  O   UNL     1      -1.471  -0.004  -0.022  0.00  0.00    -0.251 OA
BRANCH  18  21
ATOM     20  C   UNL     1       1.073   0.532   0.144  0.00  0.00    +0.280 C 
ATOM     21  O   UNL     1       0.581  -0.810   0.125  0.00  0.00    -0.468 OA
ENDBRANCH  18  21
ENDBRANCH  17  18
ENDBRANCH   1  17
TORSDOF 4
