REMARK  Name = ZINC39557540
REMARK  4 active torsions:
REMARK  status: ('A' for Active; 'I' for Inactive)
REMARK    1  A    between atoms: C_1  and  C_2
REMARK    2  A    between atoms: C_6  and  C_8
REMARK    3  A    between atoms: N_9  and  N_10
REMARK    4  A    between atoms: N_10  and  C_11
REMARK                            x       y       z     vdW  Elec       q    Type
REMARK                         _______ _______ _______ _____ _____    ______ ____
ROOT
ATOM      1  C   UNL     1       0.056  -1.922   5.992  0.00  0.00    +0.067 A 
ATOM      2  C   UNL     1       0.445  -0.568   6.007  0.00  0.00    +0.024 A 
ATOM      3  C   UNL     1       0.850   0.080   4.828  0.00  0.00    +0.012 A 
ATOM      4  C   UNL     1       1.220   1.389   4.871  0.00  0.00    +0.001 A 
ATOM      5  C   UNL     1       1.203   2.098   6.072  0.00  0.00    +0.002 A 
ATOM      6  C   UNL     1       0.818   1.504   7.233  0.00  0.00    +0.028 A 
ATOM      7  C   UNL     1       0.426   0.150   7.232  0.00  0.00    +0.073 A 
ATOM      8  N   UNL     1       0.046  -0.443   8.363  0.00  0.00    -0.247 NA
ATOM      9  C   UNL     1      -0.330  -1.720   8.396  0.00  0.00    +0.073 A 
ATOM     10  C   UNL     1      -0.344  -2.504   7.213  0.00  0.00    +0.024 A 
ATOM     11  C   UNL     1      -0.749  -3.848   7.273  0.00  0.00    +0.012 A 
ATOM     12  C   UNL     1      -1.129  -4.384   8.464  0.00  0.00    +0.001 A 
ATOM     13  C   UNL     1      -1.122  -3.616   9.629  0.00  0.00    +0.002 A 
ATOM     14  C   UNL     1      -0.727  -2.316   9.611  0.00  0.00    +0.028 A 
ENDROOT
BRANCH   1  15
ATOM     15  N   UNL     1       0.060  -2.652   4.824  0.00  0.00    -0.236 N 
ATOM     16  H   UNL     1      -0.625  -3.321   4.667  0.00  0.00    +0.174 HD
BRANCH  15  18
ATOM     17  C   UNL     1       1.058  -3.115   2.759  0.00  0.00    +0.158 C 
ATOM     18  N   UNL     1       1.054  -2.427   3.861  0.00  0.00    -0.188 NA
BRANCH  17  24
ATOM     19  C   UNL     1       5.027  -0.669   1.384  0.00  0.00    +0.065 C 
ATOM     20  C   UNL     1       3.989  -1.720   1.088  0.00  0.00    +0.039 A 
ATOM     21  C   UNL     1       4.048  -2.419  -0.104  0.00  0.00    +0.023 A 
ATOM     22  C   UNL     1       3.090  -3.387  -0.375  0.00  0.00    +0.004 A 
ATOM     23  C   UNL     1       2.102  -3.621   0.564  0.00  0.00    +0.029 A 
ATOM     24  C   UNL     1       2.103  -2.879   1.748  0.00  0.00    +0.084 A 
ATOM     25  N   UNL     1       3.042  -1.964   1.970  0.00  0.00    -0.251 NA
ENDBRANCH  17  24
ENDBRANCH  15  18
ENDBRANCH   1  15
TORSDOF 3
