REMARK  Name = ZINC08748879
REMARK  11 active torsions:
REMARK  status: ('A' for Active; 'I' for Inactive)
REMARK    1  A    between atoms: C_1  and  C_2
REMARK    2  A    between atoms: C_2  and  C_3
REMARK    3  A    between atoms: C_2  and  C_4
REMARK    4  A    between atoms: C_4  and  C_6
REMARK    5  A    between atoms: C_4  and  N_46
REMARK    6  A    between atoms: C_13  and  C_14
REMARK    7  A    between atoms: C_13  and  N_46
REMARK    8  A    between atoms: N_19  and  C_20
REMARK    9  A    between atoms: C_20  and  C_21
REMARK   10  A    between atoms: C_21  and  O_22
REMARK   11  A    between atoms: O_22  and  C_23
REMARK                            x       y       z     vdW  Elec       q    Type
REMARK                         _______ _______ _______ _____ _____    ______ ____
ROOT
ATOM      1  N   UNL     1       0.080   1.263  -0.241  0.00  0.00    +0.389 N 
ATOM      2  H   UNL     1       0.058   0.253  -0.060  0.00  0.00    -0.084 HD
ATOM      3  H   UNL     1      -0.254   1.767   0.589  0.00  0.00    -0.084 HD
ENDROOT
BRANCH   1   4
ATOM      4  C   UNL     1      -0.801   1.572  -1.384  0.00  0.00    -0.038 C 
BRANCH   4   5
ATOM      5  C   UNL     1      -1.298   2.990  -1.267  0.00  0.00    -0.061 A 
ATOM      6  C   UNL     1      -1.658   3.496  -0.032  0.00  0.00    +0.003 A 
ATOM      7  C   UNL     1      -2.108   4.798   0.076  0.00  0.00    +0.020 A 
ATOM      8  C   UNL     1      -2.209   5.591  -1.053  0.00  0.00    +0.041 A 
ATOM      9  C   UNL     1      -1.854   5.082  -2.289  0.00  0.00    +0.020 A 
ATOM     10  C   UNL     1      -1.398   3.781  -2.396  0.00  0.00    +0.003 A 
ATOM     11 CL   UNL     1      -2.782   7.224  -0.919  0.00  0.00    -0.084 Cl
ENDBRANCH   4   5
BRANCH   4  13
ATOM     12  C   UNL     1      -2.964   0.992  -2.492  0.00  0.00    +0.006 C 
ATOM     13  C   UNL     1      -1.992   0.611  -1.374  0.00  0.00    -0.027 C 
ATOM     14  C   UNL     1      -1.496  -0.819  -1.594  0.00  0.00    +0.006 C 
ENDBRANCH   4  13
ENDBRANCH   1   4
BRANCH   1  15
ATOM     15  C   UNL     1       1.465   1.675  -0.537  0.00  0.00    +0.016 C 
BRANCH  15  16
ATOM     16  C   UNL     1       2.314   1.467   0.690  0.00  0.00    +0.203 C 
ATOM     17  O   UNL     1       1.817   1.024   1.704  0.00  0.00    -0.277 OA
ATOM     18  N   UNL     1       3.626   1.774   0.662  0.00  0.00    -0.242 N 
ATOM     19  C   UNL     1       4.386   1.589   1.760  0.00  0.00    +0.306 C 
ATOM     20  O   UNL     1       3.888   1.145   2.775  0.00  0.00    -0.252 OA
ATOM     21  N   UNL     1       5.698   1.896   1.731  0.00  0.00    -0.297 N 
ATOM     22  H   UNL     1       4.024   2.129  -0.149  0.00  0.00    +0.159 HD
ATOM     23  H   UNL     1       6.096   2.250   0.920  0.00  0.00    +0.150 HD
BRANCH  21  24
ATOM     24  C   UNL     1       6.524   1.694   2.924  0.00  0.00    +0.133 C 
BRANCH  24  25
ATOM     25  C   UNL     1       7.963   2.118   2.626  0.00  0.00    +0.178 C 
BRANCH  25  26
ATOM     26  O   UNL     1       8.003   3.524   2.372  0.00  0.00    -0.381 OA
ATOM     27  C   UNL     1       9.309   4.025   2.081  0.00  0.00    +0.194 C 
ENDBRANCH  25  26
ENDBRANCH  24  25
ENDBRANCH  21  24
ENDBRANCH  15  16
ENDBRANCH   1  15
TORSDOF 8
