REMARK  Name = ZINC16994518
REMARK  1 active torsions:
REMARK  status: ('A' for Active; 'I' for Inactive)
REMARK    1  A    between atoms: C_6  and  C_7
REMARK                            x       y       z     vdW  Elec       q    Type
REMARK                         _______ _______ _______ _____ _____    ______ ____
ROOT
ATOM      1  C   UNL     1      -1.226   3.223  -0.791  0.00  0.00    +0.066 C 
ATOM      2  C   UNL     1      -1.333   1.933   0.019  0.00  0.00    +0.109 C 
ATOM      3  C   UNL     1      -0.014   1.208   0.009  0.00  0.00    +0.219 C 
ATOM      4  O   UNL     1       0.002  -0.004   0.002  0.00  0.00    -0.275 OA
ATOM      5  N   UNL     1       1.147   1.888   0.001  0.00  0.00    -0.270 N 
ATOM      6  C   UNL     1       1.153   3.273  -0.011  0.00  0.00    +0.137 A 
ATOM      7  C   UNL     1       0.018   3.967  -0.392  0.00  0.00    +0.065 A 
ATOM      8  C   UNL     1       0.046   5.365  -0.399  0.00  0.00    +0.258 A 
ATOM      9  O   UNL     1      -0.939   6.006  -0.730  0.00  0.00    -0.267 OA
ATOM     10  N   UNL     1       1.185   5.991  -0.032  0.00  0.00    -0.295 N 
ATOM     11  H   UNL     1       1.232   7.090  -0.029  0.00  0.00    +0.172 HD
ATOM     12  C   UNL     1       2.275   5.264   0.336  0.00  0.00    +0.195 A 
ATOM     13  N   UNL     1       2.253   3.947   0.343  0.00  0.00    -0.201 NA
ATOM     14  N   UNL     1       3.421   5.916   0.705  0.00  0.00    -0.329 N 
ATOM     15  H   UNL     1       2.103   1.344   0.005  0.00  0.00    +0.156 HD
ATOM     16  H   UNL     1       4.310   5.340   1.004  0.00  0.00    +0.145 HD
ATOM     17  H   UNL     1       3.453   7.015   0.703  0.00  0.00    +0.145 HD
ENDROOT
BRANCH   1  23
ATOM     18  C   UNL     1      -0.127   2.101  -2.740  0.00  0.00    +0.007 A 
ATOM     19  C   UNL     1      -0.068   1.785  -4.084  0.00  0.00    +0.038 A 
ATOM     20  C   UNL     1      -1.038   2.262  -4.950  0.00  0.00    +0.123 A 
ATOM     21  C   UNL     1      -2.068   3.050  -4.467  0.00  0.00    +0.038 A 
ATOM     22  C   UNL     1      -2.128   3.360  -3.122  0.00  0.00    +0.007 A 
ATOM     23  C   UNL     1      -1.160   2.883  -2.258  0.00  0.00    -0.039 A 
ATOM     24  F   UNL     1      -0.978   1.958  -6.265  0.00  0.00    -0.205 F 
ENDBRANCH   1  23
TORSDOF 1
