REMARK  Name = ZINC00108508
REMARK  2 active torsions:
REMARK  status: ('A' for Active; 'I' for Inactive)
REMARK    1  A    between atoms: C_4  and  N_8
REMARK    2  A    between atoms: C_16  and  N_22
REMARK                            x       y       z     vdW  Elec       q    Type
REMARK                         _______ _______ _______ _____ _____    ______ ____
ROOT
ATOM      1  C   UNL     1       0.568   0.457  -1.163  0.00  0.00    +0.225 A 
ATOM      2  N   UNL     1       1.696   1.139  -1.152  0.00  0.00    -0.219 NA
ATOM      3  C   UNL     1       2.266   1.494  -0.005  0.00  0.00    +0.147 A 
ATOM      4  C   UNL     1       1.648   1.130   1.198  0.00  0.00    +0.102 A 
ATOM      5  C   UNL     1       0.462   0.412   1.136  0.00  0.00    +0.155 A 
ATOM      6  N   UNL     1      -0.041   0.098  -0.051  0.00  0.00    -0.222 NA
ATOM      7 CL   UNL     1      -0.353  -0.069   2.591  0.00  0.00    -0.060 Cl
ATOM      8  N   UNL     1       3.454   2.212   0.000  0.00  0.00    -0.311 N 
ATOM      9  C   UNL     1       4.747   1.518   0.078  0.00  0.00    +0.125 C 
ATOM     10  C   UNL     1       5.612   1.957  -1.110  0.00  0.00    +0.125 C 
ATOM     11  N   UNL     1       5.599   3.425  -1.183  0.00  0.00    -0.311 N 
ATOM     12  C   UNL     1       4.306   4.119  -1.261  0.00  0.00    +0.125 C 
ATOM     13  C   UNL     1       3.442   3.679  -0.078  0.00  0.00    +0.125 C 
ATOM     14  C   UNL     1       6.787   4.143  -1.177  0.00  0.00    +0.147 A 
ATOM     15  C   UNL     1       7.403   4.511  -2.381  0.00  0.00    +0.102 A 
ATOM     16  C   UNL     1       8.589   5.228  -2.319  0.00  0.00    +0.155 A 
ATOM     17  N   UNL     1       9.094   5.538  -1.131  0.00  0.00    -0.222 NA
ATOM     18  C   UNL     1       8.488   5.176  -0.020  0.00  0.00    +0.225 A 
ATOM     19  N   UNL     1       7.356   4.498  -0.031  0.00  0.00    -0.219 NA
ATOM     20 CL   UNL     1       9.402   5.713  -3.774  0.00  0.00    -0.060 Cl
ENDROOT
BRANCH   4  21
ATOM     21  N   UNL     1       2.212   1.481   2.432  0.00  0.00    -0.353 N 
ATOM     22  H   UNL     1       2.993   2.057   2.462  0.00  0.00    +0.143 HD
ATOM     23  H   UNL     1       1.823   1.149   3.256  0.00  0.00    +0.143 HD
ENDBRANCH   4  21
BRANCH  15  24
ATOM     24  N   UNL     1       6.836   4.163  -3.615  0.00  0.00    -0.353 N 
ATOM     25  H   UNL     1       6.056   3.588  -3.645  0.00  0.00    +0.143 HD
ATOM     26  H   UNL     1       7.224   4.498  -4.438  0.00  0.00    +0.143 HD
ENDBRANCH  15  24
TORSDOF 2
