REMARK  Name = ZINC40784317
REMARK  9 active torsions:
REMARK  status: ('A' for Active; 'I' for Inactive)
REMARK    1  A    between atoms: C_1  and  C_2
REMARK    2  A    between atoms: C_2  and  C_4
REMARK    3  A    between atoms: C_2  and  N_7
REMARK    4  A    between atoms: C_4  and  O_5
REMARK    5  A    between atoms: O_5  and  C_6
REMARK    6  A    between atoms: C_9  and  N_26
REMARK    7  A    between atoms: C_10  and  N_14
REMARK    8  A    between atoms: C_20  and  O_24
REMARK    9  A    between atoms: O_24  and  C_25
REMARK                            x       y       z     vdW  Elec       q    Type
REMARK                         _______ _______ _______ _____ _____    ______ ____
ROOT
ATOM      1  N   UNL     1       0.711  -0.489   1.189  0.00  0.00    -0.323 N 
ATOM      2  C   UNL     1       0.031  -0.638   2.392  0.00  0.00    +0.145 A 
ATOM      3  C   UNL     1       0.697  -1.094   3.531  0.00  0.00    +0.106 A 
ATOM      4  C   UNL     1      -0.033  -1.225   4.713  0.00  0.00    +0.150 A 
ATOM      5  N   UNL     1      -1.327  -0.912   4.710  0.00  0.00    -0.219 NA
ATOM      6  C   UNL     1      -1.917  -0.485   3.612  0.00  0.00    +0.225 A 
ATOM      7  N   UNL     1      -1.264  -0.343   2.477  0.00  0.00    -0.219 NA
ATOM      8  H   UNL     1       1.654  -0.707   1.135  0.00  0.00    +0.148 HD
ENDROOT
BRANCH   4   9
ATOM      9  N   UNL     1       0.582  -1.676   5.878  0.00  0.00    -0.277 N 
ATOM     10  C   UNL     1      -0.152  -1.801   7.043  0.00  0.00    +0.165 A 
ATOM     11  N   UNL     1      -1.425  -1.552   7.245  0.00  0.00    -0.225 NA
ATOM     12  C   UNL     1      -2.016  -1.722   8.449  0.00  0.00    +0.081 A 
ATOM     13  C   UNL     1      -3.366  -1.492   8.798  0.00  0.00    +0.032 A 
ATOM     14  C   UNL     1      -3.809  -1.715  10.075  0.00  0.00    +0.048 A 
ATOM     15  C   UNL     1      -2.952  -2.173  11.071  0.00  0.00    +0.121 A 
ATOM     16  C   UNL     1      -1.620  -2.409  10.762  0.00  0.00    +0.063 A 
ATOM     17  C   UNL     1      -1.173  -2.187   9.484  0.00  0.00    +0.044 A 
ATOM     18  S   UNL     1       0.390  -2.350   8.655  0.00  0.00    -0.052 S 
ATOM     19  H   UNL     1       1.525  -1.902   5.872  0.00  0.00    +0.156 HD
BRANCH  15  20
ATOM     20  O   UNL     1      -3.414  -2.386  12.332  0.00  0.00    -0.495 OA
ATOM     21  C   UNL     1      -4.798  -2.120  12.570  0.00  0.00    +0.277 C 
ENDBRANCH  15  20
ENDBRANCH   4   9
BRANCH   3  22
ATOM     22  N   UNL     1       2.063  -1.413   3.489  0.00  0.00    -0.353 N 
ATOM     23  H   UNL     1       2.558  -1.318   2.660  0.00  0.00    +0.143 HD
ATOM     24  H   UNL     1       2.513  -1.729   4.288  0.00  0.00    +0.143 HD
ENDBRANCH   3  22
BRANCH   1  26
ATOM     25  C   UNL     1      -0.019   1.526   0.010  0.00  0.00    +0.030 C 
ATOM     26  C   UNL     1       0.002  -0.004   0.002  0.00  0.00    +0.094 C 
BRANCH  26  27
ATOM     27  C   UNL     1       0.718  -0.497  -1.257  0.00  0.00    +0.181 C 
BRANCH  27  28
ATOM     28  O   UNL     1       2.019   0.090  -1.326  0.00  0.00    -0.381 OA
ATOM     29  C   UNL     1       2.776  -0.307  -2.471  0.00  0.00    +0.194 C 
ENDBRANCH  27  28
ENDBRANCH  26  27
ENDBRANCH   1  26
TORSDOF 6
