REMARK  Name = ZINC66684488
REMARK  11 active torsions:
REMARK  status: ('A' for Active; 'I' for Inactive)
REMARK    1  A    between atoms: C_1  and  C_2
REMARK    2  A    between atoms: C_5  and  N_14
REMARK    3  A    between atoms: C_7  and  C_8
REMARK    4  A    between atoms: N_10  and  C_11
REMARK    5  A    between atoms: C_11  and  C_12
REMARK    6  A    between atoms: C_11  and  C_13
REMARK    7  A    between atoms: N_17  and  C_18
REMARK    8  A    between atoms: C_18  and  C_19
REMARK    9  A    between atoms: C_19  and  N_20
REMARK   10  A    between atoms: N_20  and  C_21
REMARK   11  A    between atoms: C_26  and  N_27
REMARK                            x       y       z     vdW  Elec       q    Type
REMARK                         _______ _______ _______ _____ _____    ______ ____
ROOT
ATOM      1  N   UNL     1       1.663  -5.123  -0.572  0.00  0.00    -0.269 N 
ATOM      2  C   UNL     1       1.369  -5.806  -1.696  0.00  0.00    +0.304 C 
ATOM      3  O   UNL     1       1.334  -5.229  -2.766  0.00  0.00    -0.253 OA
ATOM      4  N   UNL     1       1.113  -7.128  -1.634  0.00  0.00    -0.298 N 
ATOM      5  H   UNL     1       1.614  -5.564   0.290  0.00  0.00    +0.156 HD
ATOM      6  H   UNL     1       1.141  -7.587  -0.781  0.00  0.00    +0.150 HD
ENDROOT
BRANCH   1  11
ATOM      7  C   UNL     1       3.211   0.338  -0.864  0.00  0.00    +0.044 C 
ATOM      8  C   UNL     1       2.798  -1.110  -0.789  0.00  0.00    -0.038 A 
ATOM      9  C   UNL     1       3.375  -1.944   0.147  0.00  0.00    +0.006 A 
ATOM     10  C   UNL     1       2.999  -3.272   0.220  0.00  0.00    +0.023 A 
ATOM     11  C   UNL     1       2.039  -3.777  -0.650  0.00  0.00    +0.035 A 
ATOM     12  C   UNL     1       1.454  -2.947  -1.593  0.00  0.00    +0.036 A 
ATOM     13  C   UNL     1       1.829  -1.605  -1.663  0.00  0.00    +0.041 A 
BRANCH  13  14
ATOM     14  C   UNL     1       1.206  -0.712  -2.663  0.00  0.00    +0.245 C 
ATOM     15  O   UNL     1       1.544   0.454  -2.731  0.00  0.00    -0.270 OA
ATOM     16  N   UNL     1       0.262  -1.190  -3.498  0.00  0.00    -0.309 N 
ATOM     17  H   UNL     1      -0.008  -2.120  -3.443  0.00  0.00    +0.149 HD
BRANCH  16  18
ATOM     18  C   UNL     1      -0.356  -0.304  -4.489  0.00  0.00    +0.067 C 
ATOM     19  C   UNL     1       0.519  -0.253  -5.742  0.00  0.00    +0.027 C 
ATOM     20  C   UNL     1      -1.742  -0.838  -4.856  0.00  0.00    +0.027 C 
ENDBRANCH  16  18
ENDBRANCH  13  14
ENDBRANCH   1  11
BRANCH   4  21
ATOM     21  C   UNL     1       0.793  -7.870  -2.856  0.00  0.00    +0.124 C 
BRANCH  21  22
ATOM     22  C   UNL     1       0.548  -9.340  -2.510  0.00  0.00    +0.120 C 
BRANCH  22  23
ATOM     23  N   UNL     1       0.229 -10.082  -3.732  0.00  0.00    -0.341 N 
ATOM     24  H   UNL     1       0.201  -9.623  -4.586  0.00  0.00    +0.146 HD
BRANCH  23  25
ATOM     25  C   UNL     1      -0.036 -11.452  -3.668  0.00  0.00    +0.058 A 
ATOM     26  C   UNL     1      -0.066 -12.099  -2.438  0.00  0.00    +0.025 A 
ATOM     27  C   UNL     1      -0.328 -13.453  -2.378  0.00  0.00    +0.002 A 
ATOM     28  C   UNL     1      -0.561 -14.166  -3.540  0.00  0.00    +0.002 A 
ATOM     29  C   UNL     1      -0.532 -13.526  -4.766  0.00  0.00    +0.034 A 
ATOM     30  C   UNL     1      -0.276 -12.170  -4.832  0.00  0.00    +0.147 A 
BRANCH  30  31
ATOM     31  N   UNL     1      -0.250 -11.485  -6.144  0.00  0.00    +0.058 N 
ATOM     32  O   UNL     1      -0.720 -10.376  -6.256  0.00  0.00    -0.126 OA
ATOM     33  O   UNL     1       0.240 -12.033  -7.103  0.00  0.00    -0.126 OA
ENDBRANCH  30  31
ENDBRANCH  23  25
ENDBRANCH  22  23
ENDBRANCH  21  22
ENDBRANCH   4  21
TORSDOF 8
