REMARK  Name = ZINC67129316
REMARK  7 active torsions:
REMARK  status: ('A' for Active; 'I' for Inactive)
REMARK    1  A    between atoms: C_1  and  C_2
REMARK    2  A    between atoms: C_7  and  N_12
REMARK    3  A    between atoms: C_9  and  C_11
REMARK    4  A    between atoms: C_13  and  C_15
REMARK    5  A    between atoms: C_15  and  N_16
REMARK    6  A    between atoms: C_18  and  O_26
REMARK    7  A    between atoms: C_21  and  C_23
REMARK                            x       y       z     vdW  Elec       q    Type
REMARK                         _______ _______ _______ _____ _____    ______ ____
ROOT
ATOM      1  C   UNL     1       1.936  -4.254   4.128  0.00  0.00    +0.020 C 
ENDROOT
BRANCH   1   2
ATOM      2  N   UNL     1       1.472  -5.609   4.456  0.00  0.00    +0.395 N 
ATOM      3  C   UNL     1       1.918  -6.565   3.419  0.00  0.00    -0.045 C 
ATOM      4  C   UNL     1       2.241  -7.889   4.135  0.00  0.00    +0.097 C 
ATOM      5  C   UNL     1       1.980  -7.612   5.634  0.00  0.00    +0.023 C 
ATOM      6  C   UNL     1       2.091  -6.069   5.725  0.00  0.00    +0.022 C 
ATOM      7  H   UNL     1       0.466  -5.623   4.534  0.00  0.00    -0.080 HD
BRANCH   6   8
ATOM      8  C   UNL     1       1.321  -5.550   6.911  0.00  0.00    +0.197 C 
ATOM      9  O   UNL     1       0.340  -4.856   6.742  0.00  0.00    -0.278 OA
ATOM     10  N   UNL     1       1.721  -5.856   8.161  0.00  0.00    -0.331 N 
ATOM     11  H   UNL     1       2.505  -6.411   8.297  0.00  0.00    +0.145 HD
ATOM     12  H   UNL     1       1.225  -5.522   8.925  0.00  0.00    +0.145 HD
ENDBRANCH   6   8
BRANCH   4  13
ATOM     13  O   UNL     1       1.381  -8.929   3.665  0.00  0.00    -0.394 OA
ATOM     14  H   UNL     1       1.539  -9.788   4.081  0.00  0.00    +0.210 HD
ENDBRANCH   4  13
ENDBRANCH   1   2
BRANCH   1  16
ATOM     15  N   UNL     1       1.471  -2.526   2.420  0.00  0.00    -0.314 N 
ATOM     16  C   UNL     1       1.207  -3.754   2.907  0.00  0.00    +0.197 C 
ATOM     17  O   UNL     1       0.382  -4.458   2.364  0.00  0.00    -0.278 OA
ATOM     18  H   UNL     1       2.131  -1.963   2.855  0.00  0.00    +0.149 HD
BRANCH  15  24
ATOM     19  C   UNL     1      -0.019   1.526   0.010  0.00  0.00    +0.008 C 
ATOM     20  C   UNL     1       0.002  -0.004   0.002  0.00  0.00    -0.009 C 
ATOM     21  C   UNL     1       0.718  -0.497  -1.257  0.00  0.00    +0.003 C 
ATOM     22  C   UNL     1       0.739  -2.027  -1.265  0.00  0.00    +0.002 C 
ATOM     23  C   UNL     1       1.479  -2.534  -0.026  0.00  0.00    +0.022 C 
ATOM     24  C   UNL     1       0.763  -2.041   1.233  0.00  0.00    +0.076 C 
ATOM     25  C   UNL     1       0.742  -0.511   1.242  0.00  0.00    +0.009 C 
ATOM     26  C   UNL     1       0.026  -0.018   2.500  0.00  0.00    +0.009 C 
ENDBRANCH  15  24
ENDBRANCH   1  16
TORSDOF 5
