REMARK  Name = ZINC15105912
REMARK  4 active torsions:
REMARK  status: ('A' for Active; 'I' for Inactive)
REMARK    1  A    between atoms: C_1  and  C_2
REMARK    2  A    between atoms: C_2  and  C_3
REMARK    3  A    between atoms: C_3  and  N_4
REMARK    4  A    between atoms: C_17  and  C_19
REMARK                            x       y       z     vdW  Elec       q    Type
REMARK                         _______ _______ _______ _____ _____    ______ ____
ROOT
ATOM      1  N   UNL     1       0.738  -1.962  -1.265  0.00  0.00    -0.267 N 
ATOM      2  C   UNL     1       1.738  -2.765  -0.704  0.00  0.00    +0.037 C 
ATOM      3  C   UNL     1       2.840  -2.333  -0.069  0.00  0.00    +0.034 C 
ATOM      4  C   UNL     1       1.366  -4.156  -0.935  0.00  0.00    +0.029 C 
ATOM      5  C   UNL     1       0.180  -4.146  -1.608  0.00  0.00    +0.104 C 
ATOM      6  C   UNL     1      -0.208  -2.756  -1.809  0.00  0.00    +0.265 C 
ATOM      7  O   UNL     1      -1.216  -2.375  -2.375  0.00  0.00    -0.268 OA
ATOM      8  N   UNL     1      -0.487  -5.321  -1.994  0.00  0.00    -0.278 N 
ATOM      9  C   UNL     1       0.040  -6.495  -1.462  0.00  0.00    +0.240 A 
ATOM     10  N   UNL     1      -0.447  -7.706  -1.490  0.00  0.00    -0.092 NA
ATOM     11  N   UNL     1       0.342  -8.518  -0.875  0.00  0.00    -0.021 NA
ATOM     12  N   UNL     1       1.375  -7.887  -0.422  0.00  0.00    -0.042 NA
ATOM     13  N   UNL     1       1.217  -6.549  -0.790  0.00  0.00    -0.201 N 
ATOM     14  C   UNL     1       2.102  -5.411  -0.537  0.00  0.00    +0.176 C 
ATOM     15  H   UNL     1      -1.256  -5.315  -2.585  0.00  0.00    +0.155 HD
ENDROOT
BRANCH  14  16
ATOM     16  C   UNL     1       3.358  -5.548  -1.358  0.00  0.00    -0.018 A 
ATOM     17  C   UNL     1       3.277  -5.631  -2.736  0.00  0.00    +0.007 A 
ATOM     18  C   UNL     1       4.429  -5.756  -3.489  0.00  0.00    +0.020 A 
ATOM     19  C   UNL     1       5.662  -5.799  -2.865  0.00  0.00    +0.041 A 
ATOM     20  C   UNL     1       5.743  -5.716  -1.486  0.00  0.00    +0.020 A 
ATOM     21  C   UNL     1       4.591  -5.585  -0.734  0.00  0.00    +0.007 A 
ATOM     22 CL   UNL     1       7.109  -5.957  -3.811  0.00  0.00    -0.084 Cl
ENDBRANCH  14  16
BRANCH   1  23
ATOM     23  C   UNL     1       0.718  -0.497  -1.257  0.00  0.00    +0.114 C 
BRANCH  23  25
ATOM     24  C   UNL     1      -0.019   1.526   0.010  0.00  0.00    +0.005 C 
ATOM     25  C   UNL     1       0.002  -0.004   0.002  0.00  0.00    +0.016 C 
ENDBRANCH  23  25
ENDBRANCH   1  23
TORSDOF 3
