REMARK  Name = ZINC03374346
REMARK  12 active torsions:
REMARK  status: ('A' for Active; 'I' for Inactive)
REMARK    1  A    between atoms: C_1  and  C_2
REMARK    2  A    between atoms: C_4  and  C_18
REMARK    3  A    between atoms: C_5  and  C_17
REMARK    4  A    between atoms: N_6  and  C_7
REMARK    5  A    between atoms: C_11  and  C_13
REMARK    6  A    between atoms: C_18  and  C_20
REMARK    7  A    between atoms: C_20  and  O_21
REMARK    8  A    between atoms: O_21  and  C_22
REMARK    9  A    between atoms: C_22  and  C_24
REMARK   10  A    between atoms: C_24  and  C_25
REMARK   11  A    between atoms: C_25  and  C_27
REMARK   12  A    between atoms: C_25  and  N_34
REMARK                            x       y       z     vdW  Elec       q    Type
REMARK                         _______ _______ _______ _____ _____    ______ ____
ROOT
ATOM      1  C   UNL     1       0.028  -4.303  -2.242  0.00  0.00    +0.311 C 
ENDROOT
BRANCH   1   2
ATOM      2  C   UNL     1      -0.236  -4.992  -3.556  0.00  0.00    +0.202 C 
ATOM      3  O   UNL     1      -0.604  -4.348  -4.516  0.00  0.00    -0.288 OA
BRANCH   2   7
ATOM      4  C   UNL     1       0.813  -9.859  -2.468  0.00  0.00    +0.064 C 
ATOM      5  C   UNL     1       0.420  -8.587  -3.175  0.00  0.00    +0.022 A 
ATOM      6  C   UNL     1       0.389  -7.365  -2.619  0.00  0.00    +0.034 A 
ATOM      7  C   UNL     1      -0.048  -6.440  -3.674  0.00  0.00    +0.042 A 
ATOM      8  C   UNL     1      -0.251  -7.217  -4.799  0.00  0.00    +0.032 A 
ATOM      9  N   UNL     1       0.038  -8.494  -4.485  0.00  0.00    -0.317 N 
ATOM     10  C   UNL     1      -0.713  -6.720  -6.145  0.00  0.00    +0.064 C 
BRANCH   9  11
ATOM     11  C   UNL     1      -0.047  -9.576  -5.372  0.00  0.00    +0.047 A 
ATOM     12  C   UNL     1      -1.278  -9.956  -5.890  0.00  0.00    +0.026 A 
ATOM     13  C   UNL     1      -1.358 -11.022  -6.764  0.00  0.00    +0.003 A 
ATOM     14  C   UNL     1      -0.214 -11.711  -7.124  0.00  0.00    +0.012 A 
ATOM     15  C   UNL     1       1.013 -11.335  -6.610  0.00  0.00    +0.057 A 
ATOM     16  C   UNL     1       1.100 -10.265  -5.740  0.00  0.00    +0.038 A 
BRANCH  15  17
ATOM     17  C   UNL     1       2.257 -12.088  -7.005  0.00  0.00    +0.417 C 
ATOM     18  F   UNL     1       1.919 -13.115  -7.892  0.00  0.00    -0.166 F 
ATOM     19  F   UNL     1       3.155 -11.212  -7.626  0.00  0.00    -0.166 F 
ATOM     20  F   UNL     1       2.853 -12.634  -5.863  0.00  0.00    -0.166 F 
ENDBRANCH  15  17
ENDBRANCH   9  11
ENDBRANCH   2   7
ENDBRANCH   1   2
BRANCH   1  21
ATOM     21  O   UNL     1      -0.228  -2.881  -2.382  0.00  0.00    -0.457 OA
BRANCH  21  22
ATOM     22  C   UNL     1      -0.039  -2.118  -1.294  0.00  0.00    +0.310 C 
ATOM     23  O   UNL     1       0.329  -2.622  -0.259  0.00  0.00    -0.251 OA
BRANCH  22  24
ATOM     24  C   UNL     1      -0.285  -0.633  -1.363  0.00  0.00    +0.147 C 
BRANCH  24  25
ATOM     25  C   UNL     1       0.002  -0.004   0.002  0.00  0.00    +0.115 C 
BRANCH  25  26
ATOM     26  C   UNL     1      -0.125   1.494  -0.098  0.00  0.00    -0.027 A 
ATOM     27  C   UNL     1      -1.375   2.077  -0.196  0.00  0.00    +0.007 A 
ATOM     28  C   UNL     1      -1.492   3.451  -0.282  0.00  0.00    +0.020 A 
ATOM     29  C   UNL     1      -0.358   4.243  -0.282  0.00  0.00    +0.041 A 
ATOM     30  C   UNL     1       0.893   3.659  -0.190  0.00  0.00    +0.020 A 
ATOM     31  C   UNL     1       1.009   2.285  -0.098  0.00  0.00    +0.007 A 
ATOM     32 CL   UNL     1      -0.504   5.969  -0.398  0.00  0.00    -0.084 Cl
ENDBRANCH  25  26
BRANCH  25  33
ATOM     33  N   UNL     1      -0.959  -0.511   0.985  0.00  0.00    -0.292 N 
ATOM     34  C   UNL     1      -0.630  -0.547   2.292  0.00  0.00    +0.298 C 
ATOM     35  O   UNL     1       0.427  -0.076   2.666  0.00  0.00    -0.253 OA
ATOM     36  N   UNL     1      -1.472  -1.106   3.183  0.00  0.00    -0.313 N 
ATOM     37  H   UNL     1      -1.831  -0.820   0.696  0.00  0.00    +0.151 HD
ATOM     38  H   UNL     1      -2.315  -1.481   2.885  0.00  0.00    +0.146 HD
ATOM     39  H   UNL     1      -1.236  -1.132   4.124  0.00  0.00    +0.146 HD
ENDBRANCH  25  33
ENDBRANCH  24  25
ENDBRANCH  22  24
ENDBRANCH  21  22
ENDBRANCH   1  21
TORSDOF 10
