REMARK  Name = ZINC16949340
REMARK  6 active torsions:
REMARK  status: ('A' for Active; 'I' for Inactive)
REMARK    1  A    between atoms: C_1  and  N_2
REMARK    2  A    between atoms: C_3  and  C_5
REMARK    3  A    between atoms: C_6  and  N_11
REMARK    4  A    between atoms: N_13  and  C_25
REMARK    5  A    between atoms: C_14  and  C_17
REMARK    6  A    between atoms: C_14  and  O_24
REMARK                            x       y       z     vdW  Elec       q    Type
REMARK                         _______ _______ _______ _____ _____    ______ ____
ROOT
ATOM      1  N   UNL     1       1.512  -2.679   3.239  0.00  0.00    -0.206 NA
ATOM      2  C   UNL     1       2.104  -3.536   4.049  0.00  0.00    +0.166 C 
ATOM      3  N   UNL     1       2.834  -3.263   5.179  0.00  0.00    -0.246 N 
ATOM      4  C   UNL     1       3.704  -4.284   5.730  0.00  0.00    +0.176 C 
ATOM      5  C   UNL     1       3.651  -5.612   4.939  0.00  0.00    +0.138 C 
ATOM      6  S   UNL     1       2.133  -5.319   3.931  0.00  0.00    -0.085 S 
ENDROOT
BRANCH   4   7
ATOM      7  C   UNL     1       5.121  -3.770   5.723  0.00  0.00    +0.022 A 
ATOM      8  C   UNL     1       5.410  -2.547   5.149  0.00  0.00    +0.009 A 
ATOM      9  C   UNL     1       6.709  -2.075   5.142  0.00  0.00    +0.000 A 
ATOM     10  C   UNL     1       7.721  -2.828   5.710  0.00  0.00    +0.001 A 
ATOM     11  C   UNL     1       7.433  -4.051   6.284  0.00  0.00    +0.020 A 
ATOM     12  C   UNL     1       6.132  -4.521   6.296  0.00  0.00    +0.049 A 
ATOM     13 CL   UNL     1       5.769  -6.055   7.024  0.00  0.00    -0.083 Cl
ENDBRANCH   4   7
BRANCH   1  15
ATOM     14  C   UNL     1       0.778  -2.711   0.895  0.00  0.00    +0.169 A 
ATOM     15  C   UNL     1       0.743  -3.129   2.228  0.00  0.00    +0.165 A 
ATOM     16  N   UNL     1      -0.233  -4.090   2.299  0.00  0.00    -0.329 N 
ATOM     17  H   UNL     1      -0.500  -4.577   3.094  0.00  0.00    +0.168 HD
ATOM     18  C   UNL     1      -0.759  -4.236   1.048  0.00  0.00    +0.198 A 
ATOM     19  N   UNL     1      -0.169  -3.422   0.226  0.00  0.00    -0.229 NA
BRANCH  14  22
ATOM     20  C   UNL     1       2.468  -0.367  -1.550  0.00  0.00    +0.128 C 
ATOM     21  N   UNL     1       1.582  -1.386  -0.982  0.00  0.00    -0.313 N 
ATOM     22  C   UNL     1       1.663  -1.694   0.328  0.00  0.00    +0.266 C 
ATOM     23  O   UNL     1       2.472  -1.126   1.038  0.00  0.00    -0.268 OA
ATOM     24  H   UNL     1       0.937  -1.838  -1.548  0.00  0.00    +0.149 HD
ENDBRANCH  14  22
ENDBRANCH   1  15
BRANCH   3  25
ATOM     25  C   UNL     1       2.740  -2.010   5.793  0.00  0.00    +0.039 A 
ATOM     26  C   UNL     1       1.969  -1.009   5.217  0.00  0.00    +0.023 A 
ATOM     27  C   UNL     1       1.878   0.227   5.826  0.00  0.00    +0.002 A 
ATOM     28  C   UNL     1       2.553   0.469   7.008  0.00  0.00    +0.000 A 
ATOM     29  C   UNL     1       3.322  -0.526   7.585  0.00  0.00    +0.002 A 
ATOM     30  C   UNL     1       3.412  -1.766   6.984  0.00  0.00    +0.023 A 
ENDBRANCH   3  25
BRANCH   4  31
ATOM     31  O   UNL     1       3.317  -4.538   7.082  0.00  0.00    -0.366 OA
ATOM     32  H   UNL     1       3.852  -5.211   7.525  0.00  0.00    +0.212 HD
ENDBRANCH   4  31
TORSDOF 5
