REMARK  Name = ZINC12051998
REMARK  9 active torsions:
REMARK  status: ('A' for Active; 'I' for Inactive)
REMARK    1  A    between atoms: C_1  and  O_2
REMARK    2  A    between atoms: O_2  and  C_3
REMARK    3  A    between atoms: C_5  and  C_11
REMARK    4  A    between atoms: C_8  and  O_9
REMARK    5  A    between atoms: C_11  and  N_64
REMARK    6  A    between atoms: C_23  and  N_29
REMARK    7  A    between atoms: C_25  and  O_27
REMARK    8  A    between atoms: O_27  and  C_28
REMARK    9  A    between atoms: C_30  and  C_32
REMARK                            x       y       z     vdW  Elec       q    Type
REMARK                         _______ _______ _______ _____ _____    ______ ____
ROOT
ATOM      1  C   UNL     1      -0.443   7.535   0.999  0.00  0.00    -0.077 C 
ATOM      2  C   UNL     1      -0.706   6.027   1.034  0.00  0.00    -0.005 C 
ATOM      3  C   UNL     1       0.208   5.333   0.028  0.00  0.00    +0.021 C 
ATOM      4  C   UNL     1      -0.004   5.915  -1.367  0.00  0.00    -0.005 C 
ATOM      5  C   UNL     1       0.237   7.427  -1.326  0.00  0.00    -0.077 C 
ATOM      6  C   UNL     1      -0.047   3.845   0.022  0.00  0.00    -0.034 A 
ATOM      7  C   UNL     1      -1.235   3.132   0.029  0.00  0.00    +0.004 A 
ATOM      8  C   UNL     1      -1.219   1.752   0.017  0.00  0.00    +0.000 A 
ATOM      9  C   UNL     1      -0.013   1.076   0.008  0.00  0.00    +0.000 A 
ATOM     10  C   UNL     1       1.173   1.784   0.000  0.00  0.00    +0.006 A 
ATOM     11  C   UNL     1       1.160   3.168   0.007  0.00  0.00    -0.021 A 
ATOM     12  C   UNL     1       2.303   4.160   0.001  0.00  0.00    +0.133 C 
ATOM     13  C   UNL     1       1.679   5.500   0.449  0.00  0.00    +0.153 C 
ATOM     14  N   UNL     1      -0.710   8.036  -0.367  0.00  0.00    +0.382 N 
ATOM     15  H   UNL     1      -1.667   7.778  -0.635  0.00  0.00    -0.081 HD
ENDROOT
BRANCH  12  16
ATOM     16  N   UNL     1       2.860   4.285  -1.348  0.00  0.00    -0.299 N 
ATOM     17  C   UNL     1       3.817   3.433  -1.764  0.00  0.00    +0.280 C 
ATOM     18  O   UNL     1       4.219   2.559  -1.018  0.00  0.00    -0.267 OA
ATOM     19  H   UNL     1       2.540   4.982  -1.943  0.00  0.00    +0.150 HD
BRANCH  17  20
ATOM     20  C   UNL     1       4.375   3.558  -3.115  0.00  0.00    +0.189 A 
ATOM     21  C   UNL     1       5.348   2.768  -3.658  0.00  0.00    +0.054 A 
ATOM     22  C   UNL     1       5.570   3.240  -4.961  0.00  0.00    +0.042 A 
ATOM     23  C   UNL     1       4.739   4.289  -5.151  0.00  0.00    +0.196 A 
ATOM     24  O   UNL     1       4.021   4.477  -4.036  0.00  0.00    -0.458 OA
ENDBRANCH  17  20
ENDBRANCH  12  16
BRANCH  13  25
ATOM     25  O   UNL     1       1.787   5.663   1.865  0.00  0.00    -0.377 OA
ATOM     26  C   UNL     1       2.970   6.348   2.283  0.00  0.00    +0.194 C 
ENDBRANCH  13  25
BRANCH  14  27
ATOM     27  C   UNL     1      -0.583   9.507  -0.398  0.00  0.00    -0.043 C 
BRANCH  27  30
ATOM     28  C   UNL     1      -2.854  10.783  -3.135  0.00  0.00    +0.163 A 
ATOM     29  C   UNL     1      -2.405  10.322  -1.907  0.00  0.00    +0.051 A 
ATOM     30  C   UNL     1      -1.070  10.007  -1.734  0.00  0.00    -0.059 A 
ATOM     31  C   UNL     1      -0.180  10.156  -2.781  0.00  0.00    +0.025 A 
ATOM     32  C   UNL     1      -0.623  10.610  -4.010  0.00  0.00    +0.086 A 
ATOM     33  C   UNL     1      -1.960  10.928  -4.191  0.00  0.00    +0.177 A 
ATOM     34 CL   UNL     1       0.497  10.789  -5.325  0.00  0.00    -0.080 Cl
BRANCH  28  36
ATOM     35  C   UNL     1      -5.028  10.921  -2.179  0.00  0.00    +0.277 C 
ATOM     36  O   UNL     1      -4.167  11.094  -3.307  0.00  0.00    -0.491 OA
ENDBRANCH  28  36
BRANCH  33  37
ATOM     37  O   UNL     1      -2.397  11.379  -5.397  0.00  0.00    -0.502 OA
ATOM     38  H   UNL     1      -2.360  12.340  -5.494  0.00  0.00    +0.292 HD
ENDBRANCH  33  37
ENDBRANCH  27  30
ENDBRANCH  14  27
TORSDOF 7
