REMARK  Name = ZINC63426639
REMARK  6 active torsions:
REMARK  status: ('A' for Active; 'I' for Inactive)
REMARK    1  A    between atoms: C_1  and  O_2
REMARK    2  A    between atoms: O_2  and  C_3
REMARK    3  A    between atoms: C_6  and  C_18
REMARK    4  A    between atoms: C_8  and  C_9
REMARK    5  A    between atoms: C_9  and  N_10
REMARK    6  A    between atoms: C_12  and  N_15
REMARK                            x       y       z     vdW  Elec       q    Type
REMARK                         _______ _______ _______ _____ _____    ______ ____
ROOT
ATOM      1  C   UNL     1      -1.200  -0.637   0.010  0.00  0.00    +0.125 A 
ATOM      2  C   UNL     1      -2.375   0.101   0.019  0.00  0.00    +0.046 A 
ATOM      3  C   UNL     1      -3.596  -0.545   0.027  0.00  0.00    +0.009 A 
ATOM      4  C   UNL     1      -3.648  -1.927   0.026  0.00  0.00    -0.028 A 
ATOM      5  C   UNL     1      -2.479  -2.665   0.017  0.00  0.00    +0.013 A 
ATOM      6  C   UNL     1      -1.255  -2.023   0.003  0.00  0.00    +0.010 A 
ENDROOT
BRANCH   4   7
ATOM      7  C   UNL     1      -4.981  -2.629   0.034  0.00  0.00    +0.111 C 
ATOM      8  C   UNL     1      -5.570  -2.634  -1.379  0.00  0.00    +0.128 C 
ATOM      9  C   UNL     1      -6.979  -3.203  -1.251  0.00  0.00    -0.035 C 
ATOM     10  C   UNL     1      -7.054  -4.213  -2.106  0.00  0.00    -0.001 A 
ATOM     11  C   UNL     1      -8.172  -5.088  -2.496  0.00  0.00    +0.010 A 
ATOM     12  C   UNL     1      -7.888  -6.052  -3.411  0.00  0.00    +0.001 A 
ATOM     13  C   UNL     1      -6.620  -6.231  -3.972  0.00  0.00    +0.002 A 
ATOM     14  C   UNL     1      -5.536  -5.469  -3.676  0.00  0.00    +0.026 A 
ATOM     15  C   UNL     1      -5.711  -4.418  -2.729  0.00  0.00    +0.043 A 
ATOM     16  N   UNL     1      -4.848  -3.524  -2.286  0.00  0.00    -0.376 N 
ATOM     17  C   UNL     1      -7.955  -2.677  -0.227  0.00  0.00    +0.048 C 
ATOM     18  C   UNL     1      -7.187  -2.614   1.106  0.00  0.00    +0.086 C 
ATOM     19  N   UNL     1      -5.912  -1.915   0.922  0.00  0.00    -0.307 NA
ATOM     20  H   UNL     1      -5.480  -1.711   1.810  0.00  0.00    +0.123 HD
ATOM     21  H   UNL     1      -3.907  -3.464  -2.511  0.00  0.00    +0.160 HD
ENDBRANCH   4   7
BRANCH   1  23
ATOM     22  C   UNL     1      -0.017   1.425   0.010  0.00  0.00    +0.277 C 
ATOM     23  O   UNL     1       0.002  -0.004   0.002  0.00  0.00    -0.495 OA
ENDBRANCH   1  23
BRANCH   6  24
ATOM     24  C   UNL     1       0.018  -2.829  -0.013  0.00  0.00    +0.144 C 
BRANCH  24  25
ATOM     25  N   UNL     1       0.611  -2.780  -1.356  0.00  0.00    -0.219 NA
ATOM     26  C   UNL     1       1.830  -3.611  -1.427  0.00  0.00    +0.167 C 
ATOM     27  C   UNL     1       2.921  -2.640  -1.820  0.00  0.00    +0.134 C 
ATOM     28  C   UNL     1       2.353  -1.457  -1.940  0.00  0.00    +0.114 C 
ATOM     29  N   UNL     1       1.000  -1.510  -1.674  0.00  0.00    -0.282 N 
ATOM     30  H   UNL     1       0.403  -0.746  -1.708  0.00  0.00    +0.166 HD
BRANCH  27  31
ATOM     31  N   UNL     1       4.352  -2.957  -2.029  0.00  0.00    +0.055 N 
ATOM     32  O   UNL     1       5.126  -2.082  -2.344  0.00  0.00    -0.126 OA
ATOM     33  O   UNL     1       4.747  -4.090  -1.885  0.00  0.00    -0.126 OA
ENDBRANCH  27  31
ENDBRANCH  24  25
ENDBRANCH   6  24
TORSDOF 5
