REMARK  Name = ZINC20301508
REMARK  9 active torsions:
REMARK  status: ('A' for Active; 'I' for Inactive)
REMARK    1  A    between atoms: C_1  and  C_2
REMARK    2  A    between atoms: C_2  and  C_4
REMARK    3  A    between atoms: C_2  and  N_11
REMARK    4  A    between atoms: N_9  and  C_10
REMARK    5  A    between atoms: N_11  and  C_12
REMARK    6  A    between atoms: C_15  and  O_20
REMARK    7  A    between atoms: C_17  and  O_18
REMARK    8  A    between atoms: O_18  and  C_19
REMARK    9  A    between atoms: O_20  and  C_21
REMARK                            x       y       z     vdW  Elec       q    Type
REMARK                         _______ _______ _______ _____ _____    ______ ____
ROOT
ATOM      1  N   UNL     1       1.482   0.066   6.058  0.00  0.00    -0.330 N 
ATOM      2  H   UNL     1       2.388  -0.557   6.092  0.00  0.00    +0.147 HD
ENDROOT
BRANCH   1   3
ATOM      3  C   UNL     1       0.935   0.441   4.823  0.00  0.00    +0.072 A 
ATOM      4  C   UNL     1      -0.208   1.226   4.780  0.00  0.00    +0.050 A 
ATOM      5  C   UNL     1      -0.745   1.600   3.562  0.00  0.00    +0.084 A 
ATOM      6  C   UNL     1      -0.148   1.182   2.381  0.00  0.00    +0.142 A 
ATOM      7  C   UNL     1       0.994   0.397   2.420  0.00  0.00    +0.094 A 
ATOM      8  C   UNL     1       1.537   0.025   3.638  0.00  0.00    +0.144 A 
ATOM      9 CL   UNL     1      -2.171   2.588   3.510  0.00  0.00    -0.080 Cl
BRANCH   8  10
ATOM     10  O   UNL     1       2.658  -0.744   3.678  0.00  0.00    -0.493 OA
ATOM     11  C   UNL     1       3.223  -1.133   2.424  0.00  0.00    +0.277 C 
ENDBRANCH   8  10
BRANCH   6  12
ATOM     12  O   UNL     1      -0.682   1.547   1.184  0.00  0.00    -0.494 OA
ATOM     13  C   UNL     1      -0.013   1.086   0.008  0.00  0.00    +0.277 C 
ENDBRANCH   6  12
ENDBRANCH   1   3
BRANCH   1  15
ATOM     14  C   UNL     1      -0.276  -0.469   7.673  0.00  0.00    +0.038 C 
ATOM     15  C   UNL     1       0.848   0.503   7.304  0.00  0.00    +0.154 C 
BRANCH  15  16
ATOM     16  C   UNL     1       1.873   0.528   8.408  0.00  0.00    +0.240 C 
ATOM     17  O   UNL     1       3.020   0.211   8.177  0.00  0.00    -0.273 OA
ATOM     18  N   UNL     1       1.514   0.902   9.652  0.00  0.00    -0.239 N 
ATOM     19  C   UNL     1       2.431   0.924  10.640  0.00  0.00    +0.306 C 
ATOM     20  O   UNL     1       3.582   0.607  10.409  0.00  0.00    -0.252 OA
ATOM     21  N   UNL     1       2.073   1.298  11.884  0.00  0.00    -0.302 N 
ATOM     22  C   UNL     1       3.069   1.322  12.958  0.00  0.00    +0.129 C 
ATOM     23  H   UNL     1       0.473   1.189   9.862  0.00  0.00    +0.159 HD
ATOM     24  H   UNL     1       1.032   1.585  12.094  0.00  0.00    +0.150 HD
ENDBRANCH  15  16
ENDBRANCH   1  15
TORSDOF 5
