REMARK  Name = ZINC04895081
REMARK  10 active torsions:
REMARK  status: ('A' for Active; 'I' for Inactive)
REMARK    1  A    between atoms: C_1  and  C_2
REMARK    2  A    between atoms: C_5  and  C_8
REMARK    3  A    between atoms: C_16  and  S_18
REMARK    4  A    between atoms: S_18  and  C_19
REMARK    5  A    between atoms: C_19  and  C_20
REMARK    6  A    between atoms: N_22  and  C_23
REMARK    7  A    between atoms: C_23  and  C_24
REMARK    8  A    between atoms: C_24  and  C_25
REMARK    9  A    between atoms: C_25  and  C_26
REMARK   10  A    between atoms: C_25  and  C_27
REMARK                            x       y       z     vdW  Elec       q    Type
REMARK                         _______ _______ _______ _____ _____    ______ ____
ROOT
ATOM      1  C   UNL     1       2.292   1.415  -0.012  0.00  0.00    +0.161 A 
ATOM      2  N   UNL     1       1.148   2.074   0.002  0.00  0.00    -0.227 NA
ATOM      3  C   UNL     1      -0.017   1.413   0.010  0.00  0.00    +0.076 A 
ATOM      4  C   UNL     1      -1.249   2.082   0.031  0.00  0.00    +0.028 A 
ATOM      5  C   UNL     1      -2.406   1.361   0.033  0.00  0.00    +0.002 A 
ATOM      6  C   UNL     1      -2.385  -0.030   0.026  0.00  0.00    +0.001 A 
ATOM      7  C   UNL     1      -1.203  -0.713   0.010  0.00  0.00    +0.012 A 
ATOM      8  C   UNL     1       0.002  -0.004   0.002  0.00  0.00    +0.032 A 
ATOM      9  C   UNL     1       1.259  -0.659  -0.013  0.00  0.00    +0.109 A 
ATOM     10  N   UNL     1       2.356   0.085  -0.020  0.00  0.00    -0.220 NA
ENDROOT
BRANCH   1  15
ATOM     11  C   UNL     1       7.207   4.415  -0.045  0.00  0.00    +0.044 C 
ATOM     12  C   UNL     1       5.920   3.630  -0.036  0.00  0.00    -0.050 A 
ATOM     13  C   UNL     1       5.957   2.247  -0.043  0.00  0.00    +0.004 A 
ATOM     14  C   UNL     1       4.782   1.523  -0.035  0.00  0.00    +0.012 A 
ATOM     15  C   UNL     1       3.557   2.187  -0.020  0.00  0.00    +0.019 A 
ATOM     16  C   UNL     1       3.526   3.581  -0.018  0.00  0.00    +0.012 A 
ATOM     17  C   UNL     1       4.707   4.295  -0.021  0.00  0.00    +0.004 A 
ENDBRANCH   1  15
BRANCH   9  18
ATOM     18  S   UNL     1       1.361  -2.418  -0.025  0.00  0.00    -0.096 S 
BRANCH  18  19
ATOM     19  C   UNL     1       3.159  -2.629  -0.043  0.00  0.00    +0.171 C 
BRANCH  19  20
ATOM     20  C   UNL     1       3.493  -4.099  -0.054  0.00  0.00    +0.223 C 
ATOM     21  O   UNL     1       2.603  -4.923  -0.050  0.00  0.00    -0.275 OA
ATOM     22  N   UNL     1       4.780  -4.497  -0.068  0.00  0.00    -0.315 N 
ATOM     23  H   UNL     1       5.492  -3.838  -0.071  0.00  0.00    +0.149 HD
BRANCH  22  24
ATOM     24  C   UNL     1       5.104  -5.926  -0.080  0.00  0.00    +0.104 C 
BRANCH  24  25
ATOM     25  C   UNL     1       6.624  -6.104  -0.095  0.00  0.00    +0.022 C 
BRANCH  25  26
ATOM     26  C   UNL     1       6.962  -7.596  -0.106  0.00  0.00    -0.016 C 
ATOM     27  C   UNL     1       8.475  -7.774  -0.247  0.00  0.00    +0.007 C 
ATOM     28  C   UNL     1       6.493  -8.236   1.202  0.00  0.00    +0.007 C 
ENDBRANCH  25  26
ENDBRANCH  24  25
ENDBRANCH  22  24
ENDBRANCH  19  20
ENDBRANCH  18  19
ENDBRANCH   9  18
TORSDOF 7
