REMARK  Name = ZINC39671278
REMARK  7 active torsions:
REMARK  status: ('A' for Active; 'I' for Inactive)
REMARK    1  A    between atoms: C_1  and  C_2
REMARK    2  A    between atoms: C_5  and  C_7
REMARK    3  A    between atoms: C_7  and  N_8
REMARK    4  A    between atoms: C_9  and  C_11
REMARK    5  A    between atoms: C_22  and  C_24
REMARK    6  A    between atoms: C_29  and  O_30
REMARK    7  A    between atoms: O_30  and  C_31
REMARK                            x       y       z     vdW  Elec       q    Type
REMARK                         _______ _______ _______ _____ _____    ______ ____
ROOT
ATOM      1  C   UNL     1       3.509  -4.949   3.041  0.00  0.00    +0.100 C 
ATOM      2  C   UNL     1       4.002  -5.449   1.665  0.00  0.00    +0.121 C 
ATOM      3  N   UNL     1       4.790  -6.666   1.969  0.00  0.00    -0.296 N 
ATOM      4  C   UNL     1       4.024  -7.342   3.043  0.00  0.00    +0.115 C 
ATOM      5  C   UNL     1       3.523  -6.195   3.942  0.00  0.00    -0.004 C 
ATOM      6  C   UNL     1       2.116  -6.497   4.449  0.00  0.00    -0.010 C 
ATOM      7  C   UNL     1       2.166  -7.705   5.389  0.00  0.00    -0.082 C 
ATOM      8  N   UNL     1       3.061  -7.414   6.515  0.00  0.00    +0.379 N 
ATOM      9  C   UNL     1       4.431  -7.216   6.028  0.00  0.00    -0.082 C 
ATOM     10  C   UNL     1       4.478  -5.988   5.114  0.00  0.00    -0.010 C 
ATOM     11  C   UNL     1       5.944  -7.067   1.399  0.00  0.00    +0.252 C 
ATOM     12  O   UNL     1       6.425  -8.145   1.693  0.00  0.00    -0.270 OA
ATOM     13  H   UNL     1       2.748  -6.577   6.984  0.00  0.00    -0.086 HD
ATOM     14  H   UNL     1       3.045  -8.186   7.164  0.00  0.00    -0.086 HD
ENDROOT
BRANCH  11  15
ATOM     15  C   UNL     1       6.623  -6.199   0.419  0.00  0.00    +0.099 A 
ATOM     16  C   UNL     1       5.882  -5.401  -0.460  0.00  0.00    +0.020 A 
ATOM     17  C   UNL     1       6.567  -4.604  -1.360  0.00  0.00    +0.021 A 
ATOM     18  C   UNL     1       7.950  -4.619  -1.367  0.00  0.00    +0.114 A 
ATOM     19  N   UNL     1       8.629  -5.379  -0.530  0.00  0.00    -0.220 NA
ATOM     20  C   UNL     1       8.024  -6.155   0.354  0.00  0.00    +0.233 A 
BRANCH  20  21
ATOM     21  O   UNL     1       8.761  -6.915   1.198  0.00  0.00    -0.437 OA
BRANCH  21  22
ATOM     22  C   UNL     1      10.111  -6.918   1.041  0.00  0.00    +0.130 A 
ATOM     23  C   UNL     1      10.869  -5.861   1.524  0.00  0.00    +0.048 A 
ATOM     24  C   UNL     1      12.241  -5.866   1.363  0.00  0.00    +0.023 A 
ATOM     25  C   UNL     1      12.860  -6.924   0.720  0.00  0.00    +0.041 A 
ATOM     26  C   UNL     1      12.105  -7.979   0.237  0.00  0.00    +0.023 A 
ATOM     27  C   UNL     1      10.734  -7.980   0.402  0.00  0.00    +0.048 A 
ATOM     28 CL   UNL     1      14.584  -6.927   0.519  0.00  0.00    -0.084 Cl
ENDBRANCH  21  22
ENDBRANCH  20  21
ENDBRANCH  11  15
BRANCH   1  30
ATOM     29  N   UNL     1       1.683  -3.461   3.798  0.00  0.00    -0.306 N 
ATOM     30  C   UNL     1       2.110  -4.399   2.929  0.00  0.00    +0.219 C 
ATOM     31  O   UNL     1       1.369  -4.800   2.056  0.00  0.00    -0.275 OA
ATOM     32  H   UNL     1       2.275  -3.141   4.495  0.00  0.00    +0.149 HD
BRANCH  29  33
ATOM     33  C   UNL     1       0.323  -2.927   3.688  0.00  0.00    +0.202 C 
BRANCH  33  38
ATOM     34  C   UNL     1      -0.881  -0.702   8.042  0.00  0.00    +0.111 C 
ATOM     35  C   UNL     1      -0.417  -0.951   6.630  0.00  0.00    +0.214 A 
ATOM     36  N   UNL     1       0.023  -0.055   5.793  0.00  0.00    -0.113 NA
ATOM     37  N   UNL     1       0.331  -0.623   4.681  0.00  0.00    -0.111 NA
ATOM     38  C   UNL     1       0.098  -1.902   4.770  0.00  0.00    +0.234 A 
ATOM     39  O   UNL     1      -0.375  -2.140   6.005  0.00  0.00    -0.423 OA
ENDBRANCH  33  38
ENDBRANCH  29  33
ENDBRANCH   1  30
TORSDOF 6
