REMARK  Name = ZINC37349905
REMARK  3 active torsions:
REMARK  status: ('A' for Active; 'I' for Inactive)
REMARK    1  A    between atoms: C_3  and  C_8
REMARK    2  A    between atoms: C_9  and  C_14
REMARK    3  A    between atoms: C_12  and  N_13
REMARK                            x       y       z     vdW  Elec       q    Type
REMARK                         _______ _______ _______ _____ _____    ______ ____
ROOT
ATOM      1  C   UNL     1       3.659   2.164  -0.022  0.00  0.00    +0.071 A 
ATOM      2  C   UNL     1       4.651   2.194  -1.099  0.00  0.00    +0.124 A 
ATOM      3  N   UNL     1       5.625   2.980  -0.706  0.00  0.00    -0.075 NA
ATOM      4  O   UNL     1       5.322   3.474   0.583  0.00  0.00    -0.339 OA
ATOM      5  C   UNL     1       4.138   2.983   0.981  0.00  0.00    +0.224 A 
ENDROOT
BRANCH   2   6
ATOM      6  C   UNL     1       4.571   1.469  -2.390  0.00  0.00    +0.018 A 
ATOM      7  C   UNL     1       3.466   0.668  -2.675  0.00  0.00    +0.014 A 
ATOM      8  C   UNL     1       3.396  -0.004  -3.877  0.00  0.00    +0.039 A 
ATOM      9  C   UNL     1       4.420   0.117  -4.803  0.00  0.00    +0.124 A 
ATOM     10  C   UNL     1       5.520   0.912  -4.525  0.00  0.00    +0.054 A 
ATOM     11  C   UNL     1       5.597   1.593  -3.326  0.00  0.00    +0.030 A 
ATOM     12 BR   UNL     1       7.095   2.684  -2.951  0.00  0.00    -0.050 Br
ATOM     13  F   UNL     1       4.347  -0.543  -5.979  0.00  0.00    -0.205 F 
ENDBRANCH   2   6
BRANCH   1  16
ATOM     14  C   UNL     1      -0.017   1.379   0.010  0.00  0.00    +0.002 A 
ATOM     15  C   UNL     1       1.167   2.088   0.002  0.00  0.00    +0.009 A 
ATOM     16  C   UNL     1       2.385   1.408  -0.013  0.00  0.00    -0.009 A 
ATOM     17  C   UNL     1       2.398   0.014  -0.021  0.00  0.00    +0.028 A 
ATOM     18  C   UNL     1       1.208  -0.685  -0.013  0.00  0.00    +0.042 A 
ATOM     19  C   UNL     1       0.002  -0.004   0.002  0.00  0.00    +0.020 A 
ATOM     20 CL   UNL     1       1.222  -2.421  -0.022  0.00  0.00    -0.084 Cl
ENDBRANCH   1  16
BRANCH   5  21
ATOM     21  N   UNL     1       3.513   3.247   2.182  0.00  0.00    -0.327 N 
ATOM     22  H   UNL     1       2.655   2.840   2.381  0.00  0.00    +0.145 HD
ATOM     23  H   UNL     1       3.931   3.838   2.827  0.00  0.00    +0.145 HD
ENDBRANCH   5  21
TORSDOF 3
