REMARK  Name = ZINC09614645
REMARK  2 active torsions:
REMARK  status: ('A' for Active; 'I' for Inactive)
REMARK    1  A    between atoms: C_5  and  N_7
REMARK    2  A    between atoms: C_19  and  C_21
REMARK                            x       y       z     vdW  Elec       q    Type
REMARK                         _______ _______ _______ _____ _____    ______ ____
ROOT
ATOM      1  N   UNL     1       3.105  -4.866  -1.158  0.00  0.00    -0.325 N 
ATOM      2  C   UNL     1       2.263  -4.333  -0.078  0.00  0.00    +0.124 C 
ATOM      3  C   UNL     1       2.249  -2.805  -0.153  0.00  0.00    +0.127 C 
ATOM      4  N   UNL     1       3.624  -2.298  -0.044  0.00  0.00    -0.298 N 
ATOM      5  C   UNL     1       4.466  -2.831  -1.124  0.00  0.00    +0.127 C 
ATOM      6  C   UNL     1       4.480  -4.360  -1.049  0.00  0.00    +0.124 C 
ATOM      7  C   UNL     1       3.643  -0.929  -0.037  0.00  0.00    +0.199 A 
ATOM      8  N   UNL     1       4.840  -0.280  -0.044  0.00  0.00    -0.295 N 
ATOM      9  H   UNL     1       5.666  -0.788  -0.054  0.00  0.00    +0.172 HD
ATOM     10  C   UNL     1       4.880   1.069  -0.038  0.00  0.00    +0.253 A 
ATOM     11  O   UNL     1       5.948   1.659  -0.045  0.00  0.00    -0.268 OA
ATOM     12  C   UNL     1       3.672   1.782  -0.023  0.00  0.00    +0.098 A 
ATOM     13  C   UNL     1       2.480   1.071  -0.015  0.00  0.00    +0.080 A 
ATOM     14  N   UNL     1       2.505  -0.269  -0.017  0.00  0.00    -0.216 NA
ENDROOT
BRANCH   1  19
ATOM     15  C   UNL     1       1.870  -8.324  -1.346  0.00  0.00    +0.002 A 
ATOM     16  C   UNL     1       3.045  -9.033  -1.179  0.00  0.00    +0.003 A 
ATOM     17  C   UNL     1       4.242  -8.362  -1.004  0.00  0.00    +0.040 A 
ATOM     18  C   UNL     1       4.266  -6.979  -0.997  0.00  0.00    +0.144 A 
ATOM     19  C   UNL     1       3.085  -6.264  -1.165  0.00  0.00    +0.065 A 
ATOM     20  C   UNL     1       1.886  -6.942  -1.336  0.00  0.00    +0.026 A 
ATOM     21  F   UNL     1       5.435  -6.324  -0.825  0.00  0.00    -0.204 F 
ENDBRANCH   1  19
BRANCH  13  22
ATOM     22  C   UNL     1       1.185   1.791   0.000  0.00  0.00    +0.001 A 
ATOM     23  C   UNL     1      -0.013   1.076   0.008  0.00  0.00    +0.013 A 
ATOM     24  C   UNL     1      -1.215   1.750   0.017  0.00  0.00    +0.039 A 
ATOM     25  C   UNL     1      -1.236   3.136   0.031  0.00  0.00    +0.123 A 
ATOM     26  C   UNL     1      -0.048   3.851   0.023  0.00  0.00    +0.039 A 
ATOM     27  C   UNL     1       1.160   3.186   0.008  0.00  0.00    +0.013 A 
ATOM     28  F   UNL     1      -2.416   3.792   0.045  0.00  0.00    -0.205 F 
ENDBRANCH  13  22
TORSDOF 2
