REMARK  Name = ZINC40486683
REMARK  5 active torsions:
REMARK  status: ('A' for Active; 'I' for Inactive)
REMARK    1  A    between atoms: C_4  and  C_7
REMARK    2  A    between atoms: C_7  and  C_9
REMARK    3  A    between atoms: C_7  and  N_12
REMARK    4  A    between atoms: C_13  and  C_15
REMARK    5  A    between atoms: C_18  and  O_22
REMARK                            x       y       z     vdW  Elec       q    Type
REMARK                         _______ _______ _______ _____ _____    ______ ____
ROOT
ATOM      1  N   UNK     1       2.890  -1.926  -2.534  0.00  0.00    -0.303 N 
ATOM      2  C   UNK     1       2.989  -2.592  -3.702  0.00  0.00    +0.200 C 
ATOM      3  O   UNK     1       3.063  -1.979  -4.746  0.00  0.00    -0.278 OA
ATOM      4  H   UNK     1       2.831  -2.417  -1.700  0.00  0.00    +0.149 HD
ENDROOT
BRANCH   2   5
ATOM      5  C   UNK     1       3.010  -4.099  -3.710  0.00  0.00    +0.018 C 
ATOM      6  C   UNK     1       4.424  -4.607  -3.359  0.00  0.00    +0.023 C 
ATOM      7  C   UNK     1       4.597  -5.834  -4.293  0.00  0.00    +0.097 C 
ATOM      8  C   UNK     1       3.847  -5.367  -5.565  0.00  0.00    -0.050 C 
ATOM      9  N   UNK     1       2.686  -4.598  -5.059  0.00  0.00    +0.388 N 
ATOM     10  H   UNK     1       1.874  -5.195  -5.014  0.00  0.00    -0.085 HD
ATOM     11  H   UNK     1       2.499  -3.819  -5.673  0.00  0.00    -0.085 HD
BRANCH   7  12
ATOM     12  O   UNK     1       5.978  -6.075  -4.571  0.00  0.00    -0.394 OA
ATOM     13  H   UNK     1       6.136  -6.832  -5.151  0.00  0.00    +0.210 HD
ENDBRANCH   7  12
ENDBRANCH   2   5
BRANCH   1  14
ATOM     14  C   UNK     1       2.870  -0.461  -2.526  0.00  0.00    +0.189 C 
BRANCH  14  18
ATOM     15  C   UNK     1      -0.019   1.526   0.010  0.00  0.00    +0.000 C 
ATOM     16  C   UNK     1       1.417   2.055  -0.000  0.00  0.00    +0.000 C 
ATOM     17  C   UNK     1       2.133   1.562  -1.259  0.00  0.00    +0.006 C 
ATOM     18  C   UNK     1       2.154   0.032  -1.268  0.00  0.00    +0.020 C 
ATOM     19  C   UNK     1       0.718  -0.497  -1.257  0.00  0.00    +0.006 C 
ATOM     20  C   UNK     1       0.002  -0.004   0.002  0.00  0.00    +0.000 C 
ENDBRANCH  14  18
BRANCH  14  21
ATOM     21  C   UNK     1       4.284   0.060  -2.537  0.00  0.00    +0.376 C 
ATOM     22  O   UNK     1       5.217  -0.705  -2.367  0.00  0.00    -0.244 OA
ATOM     23  O   UNK     1       4.494   1.248  -2.716  0.00  0.00    -0.244 OA
ENDBRANCH  14  21
ENDBRANCH   1  14
TORSDOF 5
