REMARK  Name = ZINC51351564
REMARK  7 active torsions:
REMARK  status: ('A' for Active; 'I' for Inactive)
REMARK    1  A    between atoms: C_1  and  C_2
REMARK    2  A    between atoms: C_2  and  C_4
REMARK    3  A    between atoms: C_2  and  N_13
REMARK    4  A    between atoms: C_6  and  C_7
REMARK    5  A    between atoms: C_6  and  C_9
REMARK    6  A    between atoms: N_11  and  C_12
REMARK    7  A    between atoms: C_14  and  C_16
REMARK                            x       y       z     vdW  Elec       q    Type
REMARK                         _______ _______ _______ _____ _____    ______ ____
ROOT
ATOM      1  C   UNL     1       0.175   1.263   0.584  0.00  0.00    +0.036 C 
ATOM      2  C   UNL     1       0.044  -0.119  -0.061  0.00  0.00    +0.142 C 
ENDROOT
BRANCH   2   3
ATOM      3  N   UNL     1       0.483  -0.049  -1.457  0.00  0.00    -0.301 N 
ATOM      4  C   UNL     1       1.790  -0.175  -1.759  0.00  0.00    +0.251 C 
ATOM      5  O   UNL     1       2.606  -0.346  -0.872  0.00  0.00    -0.270 OA
ATOM      6  H   UNL     1      -0.167   0.087  -2.163  0.00  0.00    +0.150 HD
BRANCH   4   7
ATOM      7  C   UNL     1       2.230  -0.106  -3.155  0.00  0.00    +0.075 A 
ATOM      8  C   UNL     1       3.511  -0.215  -3.674  0.00  0.00    +0.022 A 
ATOM      9  C   UNL     1       3.612  -0.108  -5.040  0.00  0.00    +0.024 A 
ATOM     10  C   UNL     1       2.486   0.093  -5.771  0.00  0.00    +0.056 A 
ATOM     11  S   UNL     1       1.256   0.134  -4.628  0.00  0.00    -0.077 S 
ATOM     12 BR   UNL     1       2.336   0.276  -7.647  0.00  0.00    -0.043 Br
ENDBRANCH   4   7
ENDBRANCH   2   3
BRANCH   2  13
ATOM     13  C   UNL     1      -1.395  -0.563  -0.008  0.00  0.00    +0.198 C 
ATOM     14  O   UNL     1      -2.243  -0.211  -0.990  0.00  0.00    -0.289 OA
ATOM     15  C   UNL     1      -1.837  -1.321   1.035  0.00  0.00    +0.157 C 
BRANCH  15  16
ATOM     16  C   UNL     1      -0.954  -1.580   2.181  0.00  0.00    +0.258 C 
ATOM     17  O   UNL     1       0.120  -1.014   2.262  0.00  0.00    -0.269 OA
ATOM     18  N   UNL     1      -1.333  -2.445   3.142  0.00  0.00    -0.314 N 
ATOM     19  C   UNL     1      -0.453  -2.704   4.285  0.00  0.00    +0.128 C 
ATOM     20  H   UNL     1      -2.189  -2.897   3.078  0.00  0.00    +0.149 HD
ENDBRANCH  15  16
BRANCH  15  21
ATOM     21  C   UNL     1      -3.162  -1.865   1.014  0.00  0.00    +0.108 C 
ATOM     22  N   UNL     1      -4.212  -2.296   0.998  0.00  0.00    -0.191 NA
ENDBRANCH  15  21
ENDBRANCH   2  13
TORSDOF 5
