REMARK  Name = ZINC15860510
REMARK  7 active torsions:
REMARK  status: ('A' for Active; 'I' for Inactive)
REMARK    1  A    between atoms: C_1  and  C_2
REMARK    2  A    between atoms: C_5  and  C_7
REMARK    3  A    between atoms: C_7  and  C_9
REMARK    4  A    between atoms: C_7  and  N_55
REMARK    5  A    between atoms: C_9  and  N_10
REMARK    6  A    between atoms: C_11  and  C_13
REMARK    7  A    between atoms: C_27  and  C_30
REMARK                            x       y       z     vdW  Elec       q    Type
REMARK                         _______ _______ _______ _____ _____    ______ ____
ROOT
ATOM      1  C   UNL     1       1.516  -2.285   1.434  0.00  0.00    +0.097 C 
ENDROOT
BRANCH   1   2
ATOM      2  N   UNL     1       0.122  -2.047   1.820  0.00  0.00    -0.310 N 
ATOM      3  C   UNL     1      -0.266  -2.241   3.095  0.00  0.00    +0.279 C 
ATOM      4  O   UNL     1       0.539  -2.613   3.926  0.00  0.00    -0.267 OA
ATOM      5  H   UNL     1      -0.520  -1.750   1.157  0.00  0.00    +0.149 HD
BRANCH   3   6
ATOM      6  C   UNL     1      -1.676  -2.000   3.486  0.00  0.00    +0.193 A 
ATOM      7  C   UNL     1      -2.039  -2.208   4.774  0.00  0.00    +0.103 A 
ATOM      8  C   UNL     1      -3.436  -1.964   5.163  0.00  0.00    +0.193 A 
ATOM      9  O   UNL     1      -3.818  -2.130   6.309  0.00  0.00    -0.287 OA
ATOM     10  C   UNL     1      -4.355  -1.514   4.101  0.00  0.00    +0.064 A 
ATOM     11  C   UNL     1      -5.700  -1.260   4.365  0.00  0.00    +0.016 A 
ATOM     12  C   UNL     1      -6.522  -0.844   3.354  0.00  0.00    +0.016 A 
ATOM     13  C   UNL     1      -6.024  -0.674   2.068  0.00  0.00    +0.021 A 
ATOM     14  C   UNL     1      -4.696  -0.921   1.789  0.00  0.00    +0.062 A 
ATOM     15  C   UNL     1      -3.842  -1.344   2.803  0.00  0.00    +0.141 A 
ATOM     16  O   UNL     1      -2.542  -1.590   2.548  0.00  0.00    -0.450 OA
ATOM     17 BR   UNL     1      -7.179  -0.099   0.686  0.00  0.00    -0.050 Br
ENDBRANCH   3   6
ENDBRANCH   1   2
BRANCH   1  18
ATOM     18  C   UNL     1       1.719  -1.872  -0.025  0.00  0.00    +0.016 C 
BRANCH  18  25
ATOM     19  C   UNL     1       0.871  -4.020  -0.752  0.00  0.00    -0.078 C 
ATOM     20  C   UNL     1      -0.257  -4.703  -1.529  0.00  0.00    -0.015 C 
ATOM     21  C   UNL     1      -0.184  -4.283  -3.000  0.00  0.00    -0.018 C 
ATOM     22  C   UNL     1      -0.279  -2.757  -3.092  0.00  0.00    -0.015 C 
ATOM     23  C   UNL     1       0.850  -2.131  -2.270  0.00  0.00    -0.078 C 
ATOM     24  C   UNL     1      -1.346  -4.915  -3.770  0.00  0.00    +0.007 C 
ATOM     25  N   UNL     1       0.709  -2.554  -0.860  0.00  0.00    +0.387 N 
ATOM     26  H   UNL     1      -0.228  -2.298  -0.527  0.00  0.00    -0.081 HD
ENDBRANCH  18  25
BRANCH  18  31
ATOM     27  C   UNL     1      -0.488   2.644  -0.447  0.00  0.00    +0.086 C 
ATOM     28  C   UNL     1       0.576   1.582  -0.337  0.00  0.00    +0.102 A 
ATOM     29  C   UNL     1       1.904   1.795  -0.339  0.00  0.00    +0.044 A 
ATOM     30  C   UNL     1       2.522   0.529  -0.222  0.00  0.00    +0.043 A 
ATOM     31  C   UNL     1       1.535  -0.382  -0.155  0.00  0.00    +0.093 A 
ATOM     32  O   UNL     1       0.358   0.261  -0.225  0.00  0.00    -0.466 OA
ENDBRANCH  18  31
ENDBRANCH   1  18
TORSDOF 5
