REMARK  Name = ZINC41840384
REMARK  7 active torsions:
REMARK  status: ('A' for Active; 'I' for Inactive)
REMARK    1  A    between atoms: C_1  and  C_2
REMARK    2  A    between atoms: C_5  and  C_9
REMARK    3  A    between atoms: C_6  and  C_8
REMARK    4  A    between atoms: C_9  and  C_10
REMARK    5  A    between atoms: C_9  and  C_11
REMARK    6  A    between atoms: C_9  and  N_14
REMARK    7  A    between atoms: C_17  and  C_20
REMARK                            x       y       z     vdW  Elec       q    Type
REMARK                         _______ _______ _______ _____ _____    ______ ____
ROOT
ATOM      1  C   UNL     1       0.035  -4.268  -0.076  0.00  0.00    +0.061 C 
ATOM      2  C   UNL     1       1.304  -4.817   0.578  0.00  0.00    +0.007 C 
ENDROOT
BRANCH   1   7
ATOM      3  C   UNL     1       0.065   1.504   0.208  0.00  0.00    +0.044 C 
ATOM      4  C   UNL     1       0.057  -0.002   0.134  0.00  0.00    -0.050 A 
ATOM      5  C   UNL     1       1.182  -0.717   0.498  0.00  0.00    +0.003 A 
ATOM      6  C   UNL     1       1.175  -2.098   0.431  0.00  0.00    +0.003 A 
ATOM      7  C   UNL     1       0.042  -2.763  -0.001  0.00  0.00    -0.045 A 
ATOM      8  C   UNL     1      -1.083  -2.047  -0.364  0.00  0.00    -0.048 A 
ATOM      9  C   UNL     1      -1.077  -0.667  -0.292  0.00  0.00    +0.007 A 
ATOM     10  C   UNL     1      -2.317  -2.772  -0.836  0.00  0.00    +0.044 C 
ENDBRANCH   1   7
BRANCH   1  11
ATOM     11  N   UNL     1      -0.012  -4.688  -1.483  0.00  0.00    +0.393 N 
ATOM     12  C   UNL     1       0.138  -6.146  -1.562  0.00  0.00    -0.077 C 
ATOM     13  C   UNL     1       0.009  -6.598  -3.018  0.00  0.00    -0.015 C 
ATOM     14  C   UNL     1       1.100  -5.924  -3.855  0.00  0.00    -0.018 C 
ATOM     15  C   UNL     1       0.979  -4.404  -3.706  0.00  0.00    -0.015 C 
ATOM     16  C   UNL     1       1.073  -4.034  -2.224  0.00  0.00    -0.077 C 
ATOM     17  C   UNL     1       0.928  -6.309  -5.326  0.00  0.00    +0.007 C 
ATOM     18  H   UNL     1      -0.900  -4.421  -1.883  0.00  0.00    -0.080 HD
ENDBRANCH   1  11
BRANCH   1  19
ATOM     19  C   UNL     1      -1.174  -4.801   0.648  0.00  0.00    +0.350 C 
ATOM     20  O   UNL     1      -1.958  -5.534   0.069  0.00  0.00    -0.248 OA
ATOM     21  O   UNL     1      -1.369  -4.499   1.813  0.00  0.00    -0.248 OA
ENDBRANCH   1  19
TORSDOF 3
