REMARK  Name = ZINC13574725
REMARK  2 active torsions:
REMARK  status: ('A' for Active; 'I' for Inactive)
REMARK    1  A    between atoms: N_11  and  O_12
REMARK    2  A    between atoms: C_15  and  C_19
REMARK                            x       y       z     vdW  Elec       q    Type
REMARK                         _______ _______ _______ _____ _____    ______ ____
ROOT
ATOM      1  C   UNL     1      -0.608   0.408  -1.098  0.00  0.00    +0.002 A 
ATOM      2  C   UNL     1      -0.060   0.078  -2.324  0.00  0.00    +0.002 A 
ATOM      3  C   UNL     1       1.132  -0.620  -2.389  0.00  0.00    +0.031 A 
ATOM      4  C   UNL     1       1.777  -0.990  -1.220  0.00  0.00    +0.108 A 
ATOM      5  C   UNL     1       1.224  -0.658   0.017  0.00  0.00    +0.062 A 
ATOM      6  C   UNL     1       0.030   0.042   0.073  0.00  0.00    +0.025 A 
ATOM      7  N   UNL     1       1.887  -1.039   1.191  0.00  0.00    -0.266 N 
ATOM      8  C   UNL     1       3.047  -1.719   1.129  0.00  0.00    +0.332 C 
ATOM      9  O   UNL     1       3.604  -2.039   2.161  0.00  0.00    -0.250 OA
ATOM     10  N   UNL     1       3.603  -2.052  -0.050  0.00  0.00    -0.120 N 
ATOM     11  N   UNL     1       2.984  -1.698  -1.257  0.00  0.00    -0.156 N 
ATOM     12  C   UNL     1       4.812  -2.761  -0.071  0.00  0.00    +0.172 A 
ATOM     13  C   UNL     1       4.947  -4.152   0.012  0.00  0.00    +0.075 A 
ATOM     14  C   UNL     1       6.279  -4.447  -0.043  0.00  0.00    +0.068 A 
ATOM     15  N   UNL     1       6.954  -3.267  -0.157  0.00  0.00    -0.275 N 
ATOM     16  H   UNL     1       7.916  -3.163  -0.218  0.00  0.00    +0.189 HD
ATOM     17  N   UNL     1       6.009  -2.233  -0.177  0.00  0.00    -0.156 NA
ATOM     18  H   UNL     1       1.508  -0.811   2.054  0.00  0.00    +0.157 HD
ENDROOT
BRANCH  14  19
ATOM     19  C   UNL     1       6.881  -5.797   0.011  0.00  0.00    -0.000 A 
ATOM     20  C   UNL     1       6.065  -6.923   0.124  0.00  0.00    +0.011 A 
ATOM     21  C   UNL     1       6.631  -8.180   0.174  0.00  0.00    +0.020 A 
ATOM     22  C   UNL     1       8.007  -8.325   0.113  0.00  0.00    +0.041 A 
ATOM     23  C   UNL     1       8.822  -7.212   0.001  0.00  0.00    +0.020 A 
ATOM     24  C   UNL     1       8.266  -5.950  -0.057  0.00  0.00    +0.011 A 
ATOM     25 CL   UNL     1       8.713  -9.910   0.177  0.00  0.00    -0.084 Cl
ENDBRANCH  14  19
BRANCH  11  26
ATOM     26  O   UNL     1       3.572  -2.051  -2.496  0.00  0.00    -0.268 OA
ATOM     27  H   UNL     1       4.361  -2.604  -2.413  0.00  0.00    +0.246 HD
ENDBRANCH  11  26
TORSDOF 2
