REMARK  Name = ZINC55189400
REMARK  1 active torsions:
REMARK  status: ('A' for Active; 'I' for Inactive)
REMARK    1  A    between atoms: C_7  and  C_10
REMARK                            x       y       z     vdW  Elec       q    Type
REMARK                         _______ _______ _______ _____ _____    ______ ____
ROOT
ATOM      1  C   UNL     1      -0.016   1.351   0.009  0.00  0.00    +0.038 A 
ATOM      2  C   UNL     1       1.197   2.057   0.002  0.00  0.00    +0.116 A 
ATOM      3  N   UNL     1       2.341   1.413  -0.013  0.00  0.00    -0.219 NA
ATOM      4  C   UNL     1       2.375   0.074  -0.020  0.00  0.00    +0.256 A 
ATOM      5  N   UNL     1       3.365  -0.804  -0.035  0.00  0.00    -0.108 NA
ATOM      6  N   UNL     1       2.891  -1.999  -0.037  0.00  0.00    -0.125 NA
ATOM      7  C   UNL     1       1.574  -1.966  -0.024  0.00  0.00    +0.189 A 
ATOM      8  N   UNL     1       1.204  -0.648  -0.013  0.00  0.00    -0.265 N 
ATOM      9  C   UNL     1       0.002  -0.004   0.002  0.00  0.00    +0.098 A 
ENDROOT
BRANCH   7  10
ATOM     10  C   UNL     1       0.666  -3.132  -0.022  0.00  0.00    +0.118 A 
ATOM     11  C   UNL     1       1.173  -4.403  -0.028  0.00  0.00    +0.080 A 
ATOM     12  S   UNL     1      -0.335  -5.363  -0.022  0.00  0.00    -0.060 S 
ATOM     13  C   UNL     1      -1.478  -3.990  -0.011  0.00  0.00    +0.156 A 
ATOM     14  N   UNL     1      -0.655  -2.958  -0.008  0.00  0.00    -0.222 NA
ATOM     15  N   UNL     1      -2.864  -4.003  -0.003  0.00  0.00    -0.338 N 
ATOM     16  H   UNL     1      -3.340  -4.848  -0.003  0.00  0.00    +0.144 HD
ATOM     17  H   UNL     1      -3.357  -3.168   0.002  0.00  0.00    +0.144 HD
ENDBRANCH   7  10
TORSDOF 1
