REMARK  Name = ZINC63873704
REMARK  7 active torsions:
REMARK  status: ('A' for Active; 'I' for Inactive)
REMARK    1  A    between atoms: C_4  and  N_7
REMARK    2  A    between atoms: C_8  and  C_10
REMARK    3  A    between atoms: C_10  and  C_11
REMARK    4  A    between atoms: N_15  and  C_25
REMARK    5  A    between atoms: N_17  and  C_18
REMARK    6  A    between atoms: C_25  and  C_26
REMARK    7  A    between atoms: C_26  and  C_27
REMARK                            x       y       z     vdW  Elec       q    Type
REMARK                         _______ _______ _______ _____ _____    ______ ____
ROOT
ATOM      1  C   UNL     1       4.708  -4.227   0.249  0.00  0.00    +0.149 C 
ATOM      2  C   UNL     1       6.014  -5.002   0.319  0.00  0.00    +0.235 C 
ATOM      3  O   UNL     1       6.826  -4.980  -0.582  0.00  0.00    -0.274 OA
ATOM      4  N   UNL     1       6.210  -5.701   1.423  0.00  0.00    -0.249 N 
ATOM      5  C   UNL     1       5.293  -5.732   2.453  0.00  0.00    +0.164 C 
ATOM      6  N   UNL     1       5.372  -6.382   3.590  0.00  0.00    -0.224 NA
ATOM      7  S   UNL     1       3.970  -4.677   1.874  0.00  0.00    -0.077 S 
ENDROOT
BRANCH   6   8
ATOM      8  C   UNL     1       4.354  -6.293   4.502  0.00  0.00    +0.085 A 
ATOM      9  C   UNL     1       3.873  -7.439   5.147  0.00  0.00    +0.031 A 
ATOM     10  C   UNL     1       2.843  -7.295   6.059  0.00  0.00    +0.022 A 
ATOM     11  C   UNL     1       2.326  -6.035   6.303  0.00  0.00    +0.111 A 
ATOM     12  N   UNL     1       2.798  -4.973   5.681  0.00  0.00    -0.261 NA
ATOM     13  C   UNL     1       3.781  -5.057   4.808  0.00  0.00    +0.138 A 
ENDBRANCH   6   8
BRANCH   1  14
ATOM     14  C   UNL     1       4.962  -2.721   0.153  0.00  0.00    +0.120 C 
BRANCH  14  16
ATOM     15  N   UNL     1       3.622  -0.651  -0.037  0.00  0.00    -0.285 N 
ATOM     16  C   UNL     1       3.645  -1.995   0.057  0.00  0.00    +0.219 C 
ATOM     17  O   UNL     1       2.606  -2.620   0.064  0.00  0.00    -0.275 OA
ATOM     18  H   UNL     1       4.452  -0.156  -0.121  0.00  0.00    +0.155 HD
BRANCH  15  22
ATOM     19  C   UNL     1      -0.015   1.381   0.029  0.00  0.00    +0.000 A 
ATOM     20  C   UNL     1       0.140   0.218   0.763  0.00  0.00    +0.002 A 
ATOM     21  C   UNL     1       1.344  -0.457   0.743  0.00  0.00    +0.023 A 
ATOM     22  C   UNL     1       2.400   0.031  -0.015  0.00  0.00    +0.033 A 
ATOM     23  C   UNL     1       2.241   1.198  -0.751  0.00  0.00    +0.023 A 
ATOM     24  C   UNL     1       1.034   1.870  -0.727  0.00  0.00    +0.002 A 
ENDBRANCH  15  22
ENDBRANCH  14  16
ENDBRANCH   1  14
BRANCH   4  25
ATOM     25  C   UNL     1       7.447  -6.474   1.559  0.00  0.00    +0.120 C 
BRANCH  25  26
ATOM     26  C   UNL     1       8.522  -5.604   2.213  0.00  0.00    +0.052 C 
BRANCH  26  27
ATOM     27  C   UNL     1       9.795  -6.398   2.353  0.00  0.00    -0.040 C 
ATOM     28  C   UNL     1      10.844  -6.410   1.499  0.00  0.00    -0.001 A 
ATOM     29  C   UNL     1      11.103  -5.714   0.233  0.00  0.00    +0.010 A 
ATOM     30  C   UNL     1      12.273  -5.934  -0.409  0.00  0.00    +0.001 A 
ATOM     31  C   UNL     1      13.242  -6.808   0.103  0.00  0.00    +0.002 A 
ATOM     32  C   UNL     1      13.076  -7.483   1.260  0.00  0.00    +0.026 A 
ATOM     33  C   UNL     1      11.883  -7.327   2.019  0.00  0.00    +0.043 A 
ATOM     34  N   UNL     1      11.492  -7.861   3.150  0.00  0.00    -0.380 N 
ATOM     35  C   UNL     1      10.162  -7.338   3.479  0.00  0.00    +0.144 C 
ATOM     36  H   UNL     1      11.999  -8.494   3.683  0.00  0.00    +0.160 HD
ENDBRANCH  26  27
ENDBRANCH  25  26
ENDBRANCH   4  25
TORSDOF 7
