REMARK  Name = ZINC64517578
REMARK  8 active torsions:
REMARK  status: ('A' for Active; 'I' for Inactive)
REMARK    1  A    between atoms: C_1  and  C_2
REMARK    2  A    between atoms: C_2  and  C_3
REMARK    3  A    between atoms: C_5  and  C_10
REMARK    4  A    between atoms: C_6  and  C_9
REMARK    5  A    between atoms: N_15  and  C_16
REMARK    6  A    between atoms: C_16  and  C_17
REMARK    7  A    between atoms: C_22  and  C_23
REMARK    8  A    between atoms: C_26  and  C_29
REMARK                            x       y       z     vdW  Elec       q    Type
REMARK                         _______ _______ _______ _____ _____    ______ ____
ROOT
ATOM      1  C   UNL     1       1.551  -2.832  -0.210  0.00  0.00    +0.087 C 
ATOM      2  C   UNL     1       3.062  -2.490  -0.206  0.00  0.00    +0.025 C 
ATOM      3  C   UNL     1       3.473  -2.907   1.231  0.00  0.00    +0.017 C 
ATOM      4  C   UNL     1       2.232  -2.536   2.070  0.00  0.00    +0.085 C 
ATOM      5  N   UNL     1       1.079  -2.489   1.149  0.00  0.00    -0.295 NA
ENDROOT
BRANCH   1   7
ATOM      6  C   UNL     1       0.718  -0.497  -1.257  0.00  0.00    +0.177 C 
ATOM      7  C   UNL     1       0.828  -2.005  -1.241  0.00  0.00    -0.001 C 
ATOM      8  C   UNL     1       0.179  -2.465  -2.290  0.00  0.00    +0.039 C 
ATOM      9  N   UNL     1      -0.368  -1.432  -3.030  0.00  0.00    -0.269 N 
ATOM     10  O   UNL     1      -0.057  -0.188  -2.425  0.00  0.00    -0.267 OA
ATOM     11  C   UNL     1       0.050  -3.925  -2.639  0.00  0.00    +0.065 C 
ATOM     12  H   UNL     1      -0.887  -1.542  -3.842  0.00  0.00    +0.194 HD
BRANCH   6  14
ATOM     13  C   UNL     1      -0.019   1.526   0.010  0.00  0.00    +0.007 C 
ATOM     14  C   UNL     1       0.002  -0.004   0.002  0.00  0.00    +0.035 C 
ENDBRANCH   6  14
ENDBRANCH   1   7
BRANCH   5  15
ATOM     15  C   UNL     1       0.016  -3.404   1.585  0.00  0.00    +0.100 C 
BRANCH  15  16
ATOM     16  C   UNL     1      -0.615  -2.875   2.874  0.00  0.00    +0.097 C 
ATOM     17  C   UNL     1       0.365  -2.968   4.026  0.00  0.00    +0.118 C 
ATOM     18  N   UNL     1      -0.176  -3.760   4.894  0.00  0.00    -0.161 NA
ATOM     19  N   UNL     1      -1.419  -4.231   4.484  0.00  0.00    -0.153 NA
ATOM     20  C   UNL     1      -1.763  -3.764   3.311  0.00  0.00    +0.080 C 
BRANCH  20  21
ATOM     21  C   UNL     1      -3.002  -4.043   2.568  0.00  0.00    -0.001 A 
ATOM     22  C   UNL     1      -3.215  -3.464   1.313  0.00  0.00    +0.010 A 
ATOM     23  C   UNL     1      -4.379  -3.730   0.624  0.00  0.00    +0.004 A 
ATOM     24  C   UNL     1      -5.336  -4.567   1.171  0.00  0.00    -0.050 A 
ATOM     25  C   UNL     1      -5.133  -5.143   2.413  0.00  0.00    +0.004 A 
ATOM     26  C   UNL     1      -3.971  -4.892   3.112  0.00  0.00    +0.010 A 
ATOM     27  C   UNL     1      -6.606  -4.852   0.411  0.00  0.00    +0.044 C 
ENDBRANCH  20  21
ENDBRANCH  15  16
ENDBRANCH   5  15
TORSDOF 5
