REMARK  Name = ZINC36556995
REMARK  13 active torsions:
REMARK  status: ('A' for Active; 'I' for Inactive)
REMARK    1  A    between atoms: C_1  and  C_2
REMARK    2  A    between atoms: C_5  and  C_7
REMARK    3  A    between atoms: C_7  and  N_8
REMARK    4  A    between atoms: N_8  and  C_9
REMARK    5  A    between atoms: C_9  and  C_11
REMARK    6  A    between atoms: C_9  and  C_20
REMARK    7  A    between atoms: C_12  and  O_19
REMARK    8  A    between atoms: C_14  and  O_18
REMARK    9  A    between atoms: C_16  and  O_17
REMARK   10  A    between atoms: N_22  and  C_23
REMARK   11  A    between atoms: C_29  and  C_31
REMARK   12  A    between atoms: C_31  and  C_32
REMARK   13  A    between atoms: C_32  and  C_33
REMARK                            x       y       z     vdW  Elec       q    Type
REMARK                         _______ _______ _______ _____ _____    ______ ____
ROOT
ATOM      1  C   UNL     1       3.041  -3.213  -2.166  0.00  0.00    +0.200 C 
ENDROOT
BRANCH   1   2
ATOM      2  C   UNL     1       3.915  -4.350  -2.627  0.00  0.00    +0.065 A 
ATOM      3  C   UNL     1       4.288  -4.443  -3.959  0.00  0.00    +0.129 A 
ATOM      4  C   UNL     1       5.093  -5.489  -4.383  0.00  0.00    +0.091 A 
ATOM      5  C   UNL     1       5.525  -6.444  -3.474  0.00  0.00    +0.124 A 
ATOM      6  C   UNL     1       5.153  -6.351  -2.142  0.00  0.00    +0.091 A 
ATOM      7  C   UNL     1       4.351  -5.302  -1.717  0.00  0.00    +0.129 A 
BRANCH   7   8
ATOM      8  O   UNL     1       3.990  -5.208  -0.410  0.00  0.00    -0.506 OA
ATOM      9  H   UNL     1       3.167  -5.668  -0.196  0.00  0.00    +0.292 HD
ENDBRANCH   7   8
BRANCH   5  10
ATOM     10  O   UNL     1       6.313  -7.470  -3.890  0.00  0.00    -0.507 OA
ATOM     11  H   UNL     1       7.261  -7.282  -3.843  0.00  0.00    +0.292 HD
ENDBRANCH   5  10
BRANCH   3  12
ATOM     12  O   UNL     1       3.865  -3.507  -4.850  0.00  0.00    -0.506 OA
ATOM     13  H   UNL     1       4.497  -2.790  -4.997  0.00  0.00    +0.292 HD
ENDBRANCH   3  12
ENDBRANCH   1   2
BRANCH   1  14
ATOM     14  C   UNL     1       3.872  -2.220  -1.395  0.00  0.00    +0.239 C 
ATOM     15  O   UNL     1       3.631  -2.006  -0.226  0.00  0.00    -0.273 OA
ATOM     16  N   UNL     1       4.884  -1.571  -2.005  0.00  0.00    -0.311 N 
ATOM     17  H   UNL     1       5.077  -1.742  -2.940  0.00  0.00    +0.149 HD
BRANCH  16  18
ATOM     18  C   UNL     1       5.692  -0.606  -1.255  0.00  0.00    +0.073 C 
ATOM     19  C   UNL     1       5.001   0.759  -1.270  0.00  0.00    +0.022 C 
ATOM     20  C   UNL     1       5.845   1.767  -0.487  0.00  0.00    +0.002 C 
ATOM     21  C   UNL     1       7.226   1.887  -1.134  0.00  0.00    +0.000 C 
ATOM     22  C   UNL     1       7.917   0.521  -1.119  0.00  0.00    +0.002 C 
ATOM     23  C   UNL     1       7.073  -0.486  -1.902  0.00  0.00    +0.022 C 
ENDBRANCH  16  18
ENDBRANCH   1  14
BRANCH   1  24
ATOM     24  N   UNL     1       1.977  -3.733  -1.304  0.00  0.00    -0.278 N 
ATOM     25  C   UNL     1       0.976  -4.464  -1.834  0.00  0.00    +0.217 C 
ATOM     26  O   UNL     1       0.957  -4.691  -3.026  0.00  0.00    -0.276 OA
BRANCH  24  27
ATOM     27  C   UNL     1       2.000  -3.458   0.135  0.00  0.00    +0.183 C 
BRANCH  27  32
ATOM     28  C   UNL     1       1.267   1.453   1.019  0.00  0.00    +0.086 C 
ATOM     29  C   UNL     1       0.991  -0.011   0.792  0.00  0.00    +0.102 A 
ATOM     30  C   UNL     1      -0.222  -0.591   0.784  0.00  0.00    +0.045 A 
ATOM     31  C   UNL     1      -0.017  -1.968   0.536  0.00  0.00    +0.046 A 
ATOM     32  C   UNL     1       1.310  -2.147   0.407  0.00  0.00    +0.122 A 
ATOM     33  O   UNL     1       1.915  -0.957   0.557  0.00  0.00    -0.463 OA
ENDBRANCH  27  32
ENDBRANCH  24  27
BRANCH  25  34
ATOM     34  C   UNL     1      -0.118  -4.999  -0.947  0.00  0.00    +0.096 C 
BRANCH  34  35
ATOM     35  C   UNL     1      -1.120  -5.788  -1.793  0.00  0.00    +0.013 C 
BRANCH  35  36
ATOM     36  C   UNL     1      -2.231  -6.331  -0.892  0.00  0.00    -0.011 C 
ATOM     37  C   UNL     1      -1.642  -7.347   0.089  0.00  0.00    +0.003 C 
ATOM     38  C   UNL     1      -2.753  -7.890   0.990  0.00  0.00    +0.000 C 
ATOM     39  C   UNL     1      -3.819  -8.572   0.129  0.00  0.00    +0.000 C 
ATOM     40  C   UNL     1      -4.408  -7.556  -0.852  0.00  0.00    +0.000 C 
ATOM     41  C   UNL     1      -3.297  -7.013  -1.752  0.00  0.00    +0.003 C 
ENDBRANCH  35  36
ENDBRANCH  34  35
ENDBRANCH  25  34
ENDBRANCH   1  24
TORSDOF 12
