REMARK  Name = ZINC35683631
REMARK  5 active torsions:
REMARK  status: ('A' for Active; 'I' for Inactive)
REMARK    1  A    between atoms: C_9  and  C_12
REMARK    2  A    between atoms: C_15  and  C_17
REMARK    3  A    between atoms: C_20  and  O_23
REMARK    4  A    between atoms: O_23  and  C_24
REMARK    5  A    between atoms: C_24  and  C_25
REMARK                            x       y       z     vdW  Elec       q    Type
REMARK                         _______ _______ _______ _____ _____    ______ ____
ROOT
ATOM      1  C   UNL     1       3.856  -4.638   0.195  0.00  0.00    +0.002 A 
ATOM      2  C   UNL     1       4.591  -4.357   1.331  0.00  0.00    +0.004 A 
ATOM      3  C   UNL     1       4.143  -3.414   2.236  0.00  0.00    +0.047 A 
ATOM      4  C   UNL     1       2.950  -2.744   2.008  0.00  0.00    +0.143 A 
ATOM      5  C   UNL     1       2.210  -3.031   0.864  0.00  0.00    +0.079 A 
ATOM      6  C   UNL     1       2.665  -3.977  -0.041  0.00  0.00    +0.027 A 
ATOM      7  N   UNL     1       0.998  -2.361   0.632  0.00  0.00    -0.260 N 
ATOM      8  C   UNL     1       0.711  -1.165   1.443  0.00  0.00    +0.168 C 
ATOM      9  C   UNL     1       1.131  -1.472   2.887  0.00  0.00    +0.276 C 
ATOM     10  O   UNL     1       2.519  -1.815   2.901  0.00  0.00    -0.476 OA
ATOM     11  C   UNL     1       0.127  -2.796  -0.300  0.00  0.00    +0.251 C 
ATOM     12  O   UNL     1       0.407  -3.756  -0.992  0.00  0.00    -0.270 OA
ENDROOT
BRANCH  11  13
ATOM     13  C   UNL     1      -1.167  -2.109  -0.480  0.00  0.00    +0.037 A 
ATOM     14  C   UNL     1      -1.224  -0.713  -0.479  0.00  0.00    +0.016 A 
ATOM     15  C   UNL     1      -2.433  -0.075  -0.648  0.00  0.00    +0.046 A 
ATOM     16  C   UNL     1      -3.595  -0.818  -0.818  0.00  0.00    +0.121 A 
ATOM     17  C   UNL     1      -3.542  -2.207  -0.820  0.00  0.00    +0.046 A 
ATOM     18  C   UNL     1      -2.336  -2.852  -0.658  0.00  0.00    +0.016 A 
BRANCH  16  19
ATOM     19  O   UNL     1      -4.784  -0.186  -0.984  0.00  0.00    -0.486 OA
BRANCH  19  20
ATOM     20  C   UNL     1      -5.939  -1.010  -1.154  0.00  0.00    +0.286 C 
BRANCH  20  21
ATOM     21  C   UNL     1      -7.157  -0.140  -1.322  0.00  0.00    +0.097 A 
ATOM     22  C   UNL     1      -7.167   1.211  -1.320  0.00  0.00    +0.119 A 
ATOM     23  N   UNL     1      -8.465   1.606  -1.501  0.00  0.00    -0.306 N 
ATOM     24  C   UNL     1      -9.053   2.835  -1.580  0.00  0.00    +0.092 A 
ATOM     25  C   UNL     1     -10.385   2.949  -1.767  0.00  0.00    +0.018 A 
ATOM     26  C   UNL     1     -11.185   1.800  -1.882  0.00  0.00    +0.005 A 
ATOM     27  C   UNL     1     -10.611   0.569  -1.804  0.00  0.00    +0.047 A 
ATOM     28  C   UNL     1      -9.219   0.467  -1.609  0.00  0.00    +0.138 A 
ATOM     29  N   UNL     1      -8.407  -0.575  -1.503  0.00  0.00    -0.229 NA
ENDBRANCH  20  21
ENDBRANCH  19  20
ENDBRANCH  16  19
ENDBRANCH  11  13
BRANCH   9  30
ATOM     30  C   UNL     1       0.899  -0.258   3.750  0.00  0.00    +0.253 C 
ATOM     31  O   UNL     1       1.841   0.313   4.258  0.00  0.00    -0.272 OA
ATOM     32  N   UNL     1      -0.354   0.193   3.956  0.00  0.00    -0.326 N 
ATOM     33  H   UNL     1      -1.107  -0.264   3.550  0.00  0.00    +0.145 HD
ATOM     34  H   UNL     1      -0.503   0.974   4.511  0.00  0.00    +0.145 HD
ENDBRANCH   9  30
TORSDOF 5
