REMARK  Name = ZINC41069832
REMARK  3 active torsions:
REMARK  status: ('A' for Active; 'I' for Inactive)
REMARK    1  A    between atoms: C_10  and  N_11
REMARK    2  A    between atoms: N_11  and  S_12
REMARK    3  A    between atoms: S_12  and  C_15
REMARK                            x       y       z     vdW  Elec       q    Type
REMARK                         _______ _______ _______ _____ _____    ______ ____
ROOT
ATOM      1  N   UNL     1      -1.202  -0.718   0.010  0.00  0.00    -0.098 NA
ENDROOT
BRANCH   1  11
ATOM      2  C   UNL     1      -0.017   1.390   0.010  0.00  0.00    +0.029 A 
ATOM      3  C   UNL     1       1.159   2.107   0.002  0.00  0.00    +0.028 A 
ATOM      4  C   UNL     1       2.380   1.441  -0.013  0.00  0.00    +0.047 A 
ATOM      5  C   UNL     1       2.403   0.035  -0.021  0.00  0.00    +0.001 A 
ATOM      6  C   UNL     1       3.817  -0.347  -0.037  0.00  0.00    +0.027 A 
ATOM      7  C   UNL     1       4.532   0.790  -0.038  0.00  0.00    +0.083 A 
ATOM      8  N   UNL     1       3.691   1.869  -0.024  0.00  0.00    -0.361 N 
ATOM      9  H   UNL     1       3.975   2.796  -0.022  0.00  0.00    +0.165 HD
ATOM     10  C   UNL     1       1.206  -0.684  -0.013  0.00  0.00    +0.036 A 
ATOM     11  C   UNL     1       0.002  -0.004   0.002  0.00  0.00    +0.075 A 
ENDBRANCH   1  11
BRANCH   1  12
ATOM     12  S   UNL     1      -2.645   0.093   0.029  0.00  0.00    +0.095 S 
ATOM     13  O   UNL     1      -2.717   0.766   1.278  0.00  0.00    -0.148 OA
ATOM     14  O   UNL     1      -2.742   0.779  -1.212  0.00  0.00    -0.148 OA
BRANCH  12  15
ATOM     15  C   UNL     1      -3.924  -1.119   0.035  0.00  0.00    +0.148 A 
ATOM     16  C   UNL     1      -4.774  -1.237   1.123  0.00  0.00    +0.048 A 
ATOM     17  C   UNL     1      -5.767  -2.205   1.084  0.00  0.00    +0.038 A 
ATOM     18  C   UNL     1      -5.875  -3.015  -0.032  0.00  0.00    +0.127 A 
ATOM     19  N   UNL     1      -5.049  -2.875  -1.050  0.00  0.00    -0.240 NA
ATOM     20  C   UNL     1      -4.096  -1.961  -1.049  0.00  0.00    +0.156 A 
ATOM     21 CL   UNL     1      -3.043  -1.819  -2.422  0.00  0.00    -0.060 Cl
ATOM     22 BR   UNL     1      -6.957  -2.416   2.539  0.00  0.00    -0.049 Br
ENDBRANCH  12  15
ENDBRANCH   1  12
TORSDOF 3
