REMARK  Name = ZINC22425071
REMARK  11 active torsions:
REMARK  status: ('A' for Active; 'I' for Inactive)
REMARK    1  A    between atoms: C_1  and  S_2
REMARK    2  A    between atoms: S_2  and  N_5
REMARK    3  A    between atoms: N_5  and  C_6
REMARK    4  A    between atoms: N_5  and  C_20
REMARK    5  A    between atoms: C_6  and  C_7
REMARK    6  A    between atoms: N_9  and  C_10
REMARK    7  A    between atoms: C_10  and  C_11
REMARK    8  A    between atoms: C_11  and  C_12
REMARK    9  A    between atoms: C_12  and  O_13
REMARK   10  A    between atoms: O_13  and  C_14
REMARK   11  A    between atoms: C_23  and  C_26
REMARK                            x       y       z     vdW  Elec       q    Type
REMARK                         _______ _______ _______ _____ _____    ______ ____
ROOT
ATOM      1  N   UNL     1      -4.852   4.104   0.108  0.00  0.00    -0.199 N 
ENDROOT
BRANCH   1   2
ATOM      2  C   UNL     1      -3.664   3.383   0.069  0.00  0.00    +0.051 A 
ATOM      3  C   UNL     1      -2.494   3.944   0.573  0.00  0.00    +0.025 A 
ATOM      4  C   UNL     1      -1.317   3.232   0.537  0.00  0.00    +0.015 A 
ATOM      5  C   UNL     1      -1.297   1.944  -0.007  0.00  0.00    +0.037 A 
ATOM      6  C   UNL     1      -2.473   1.385  -0.517  0.00  0.00    +0.015 A 
ATOM      7  C   UNL     1      -3.648   2.100  -0.472  0.00  0.00    +0.025 A 
BRANCH   5   8
ATOM      8  C   UNL     1      -0.037   1.178  -0.047  0.00  0.00    +0.247 C 
ATOM      9  O   UNL     1       0.782   1.307   0.843  0.00  0.00    -0.270 OA
ATOM     10  N   UNL     1       0.205   0.331  -1.067  0.00  0.00    -0.293 N 
ATOM     11  C   UNL     1      -0.805   0.096  -2.112  0.00  0.00    +0.136 C 
ATOM     12  C   UNL     1      -0.130   0.280  -3.481  0.00  0.00    +0.179 C 
ATOM     13  O   UNL     1       1.043  -0.535  -3.538  0.00  0.00    -0.377 OA
ATOM     14  C   UNL     1       2.045  -0.187  -2.579  0.00  0.00    +0.179 C 
ATOM     15  C   UNL     1       1.483  -0.390  -1.167  0.00  0.00    +0.136 C 
ENDBRANCH   5   8
ENDBRANCH   1   2
BRANCH   1  17
ATOM     16  C   UNL     1      -5.924   4.240   2.639  0.00  0.00    +0.218 C 
ATOM     17  S   UNL     1      -6.139   3.536   0.982  0.00  0.00    +0.043 S 
ATOM     18  O   UNL     1      -7.281   4.102   0.354  0.00  0.00    -0.155 OA
ATOM     19  O   UNL     1      -5.957   2.127   1.021  0.00  0.00    -0.155 OA
ENDBRANCH   1  17
BRANCH   1  20
ATOM     20  C   UNL     1      -4.965   5.368  -0.625  0.00  0.00    +0.226 C 
BRANCH  20  21
ATOM     21  C   UNL     1      -5.351   5.087  -2.055  0.00  0.00    +0.232 C 
ATOM     22  O   UNL     1      -5.514   3.943  -2.425  0.00  0.00    -0.274 OA
ATOM     23  N   UNL     1      -5.513   6.106  -2.922  0.00  0.00    -0.314 N 
ATOM     24  H   UNL     1      -5.364   7.143  -2.586  0.00  0.00    +0.149 HD
BRANCH  23  25
ATOM     25  C   UNL     1      -5.888   5.832  -4.312  0.00  0.00    +0.106 C 
BRANCH  25  26
ATOM     26  C   UNL     1      -6.006   7.152  -5.077  0.00  0.00    +0.047 C 
BRANCH  26  27
ATOM     27  C   UNL     1      -6.397   6.866  -6.528  0.00  0.00    +0.161 C 
BRANCH  27  28
ATOM     28  O   UNL     1      -6.507   8.099  -7.243  0.00  0.00    -0.377 OA
BRANCH  28  29
ATOM     29  C   UNL     1      -6.870   7.943  -8.617  0.00  0.00    +0.118 C 
ATOM     30  C   UNL     1      -5.606   7.804  -9.466  0.00  0.00    +0.031 C 
ATOM     31  C   UNL     1      -5.995   7.638 -10.936  0.00  0.00    +0.003 C 
ATOM     32  C   UNL     1      -6.786   8.864 -11.396  0.00  0.00    +0.000 C 
ATOM     33  C   UNL     1      -8.050   9.003 -10.547  0.00  0.00    +0.003 C 
ATOM     34  C   UNL     1      -7.662   9.170  -9.076  0.00  0.00    +0.031 C 
ENDBRANCH  28  29
ENDBRANCH  27  28
ENDBRANCH  26  27
ENDBRANCH  25  26
ENDBRANCH  23  25
ENDBRANCH  20  21
ENDBRANCH   1  20
TORSDOF 10
