REMARK  Name = ZINC44737551
REMARK  11 active torsions:
REMARK  status: ('A' for Active; 'I' for Inactive)
REMARK    1  A    between atoms: C_1  and  C_2
REMARK    2  A    between atoms: C_9  and  C_11
REMARK    3  A    between atoms: C_11  and  C_13
REMARK    4  A    between atoms: C_11  and  N_14
REMARK    5  A    between atoms: C_15  and  C_17
REMARK    6  A    between atoms: C_28  and  C_30
REMARK    7  A    between atoms: C_30  and  C_32
REMARK    8  A    between atoms: C_30  and  O_35
REMARK    9  A    between atoms: C_32  and  C_33
REMARK   10  A    between atoms: C_32  and  C_34
REMARK   11  A    between atoms: O_35  and  C_36
REMARK                            x       y       z     vdW  Elec       q    Type
REMARK                         _______ _______ _______ _____ _____    ______ ____
ROOT
ATOM      1  C   UNL     1      -1.356  -8.799   1.935  0.00  0.00    +0.100 C 
ATOM      2  C   UNL     1      -0.490  -9.354   0.782  0.00  0.00    +0.121 C 
ATOM      3  N   UNL     1       0.050 -10.633   1.301  0.00  0.00    -0.297 N 
ATOM      4  C   UNL     1      -1.077 -11.229   2.058  0.00  0.00    +0.115 C 
ATOM      5  C   UNL     1      -1.743 -10.033   2.768  0.00  0.00    -0.004 C 
ATOM      6  C   UNL     1      -3.259 -10.205   2.785  0.00  0.00    -0.010 C 
ATOM      7  C   UNL     1      -3.622 -11.403   3.667  0.00  0.00    -0.082 C 
ATOM      8  N   UNL     1      -3.119 -11.182   5.028  0.00  0.00    +0.379 N 
ATOM      9  C   UNL     1      -1.653 -11.110   5.015  0.00  0.00    -0.082 C 
ATOM     10  C   UNL     1      -1.206  -9.900   4.190  0.00  0.00    -0.010 C 
ATOM     11  C   UNL     1       1.286 -11.140   1.125  0.00  0.00    +0.257 C 
ATOM     12  O   UNL     1       1.547 -12.255   1.525  0.00  0.00    -0.272 OA
ATOM     13  H   UNL     1      -3.493 -10.316   5.387  0.00  0.00    -0.086 HD
ATOM     14  H   UNL     1      -3.412 -11.944   5.622  0.00  0.00    -0.086 HD
ENDROOT
BRANCH   1  16
ATOM     15  N   UNL     1      -1.180  -6.811   3.396  0.00  0.00    -0.305 N 
ATOM     16  C   UNL     1      -0.559  -7.831   2.771  0.00  0.00    +0.219 C 
ATOM     17  O   UNL     1       0.641  -7.970   2.881  0.00  0.00    -0.275 OA
ATOM     18  H   UNL     1      -2.147  -6.741   3.369  0.00  0.00    +0.149 HD
BRANCH  15  19
ATOM     19  C   UNL     1      -0.394  -5.806   4.116  0.00  0.00    +0.136 C 
ATOM     20  C   UNL     1       0.010  -4.688   3.153  0.00  0.00    +0.036 C 
BRANCH  19  29
ATOM     21  C   UNL     1      -3.298  -2.691  10.219  0.00  0.00    +0.044 C 
ATOM     22  C   UNL     1      -3.163  -3.367   8.879  0.00  0.00    -0.048 A 
ATOM     23  C   UNL     1      -4.301  -3.710   8.162  0.00  0.00    +0.005 A 
ATOM     24  C   UNL     1      -4.199  -4.324   6.946  0.00  0.00    +0.030 A 
ATOM     25  C   UNL     1      -2.940  -4.611   6.414  0.00  0.00    +0.089 A 
ATOM     26  C   UNL     1      -1.787  -4.263   7.139  0.00  0.00    +0.067 A 
ATOM     27  C   UNL     1      -1.910  -3.636   8.371  0.00  0.00    +0.031 A 
ATOM     28  N   UNL     1      -0.716  -4.668   6.368  0.00  0.00    -0.340 N 
ATOM     29  C   UNL     1      -1.220  -5.230   5.237  0.00  0.00    +0.128 A 
ATOM     30  N   UNL     1      -2.521  -5.197   5.263  0.00  0.00    -0.231 NA
ATOM     31  H   UNL     1       0.223  -4.569   6.592  0.00  0.00    +0.167 HD
ENDBRANCH  19  29
ENDBRANCH  15  19
ENDBRANCH   1  16
BRANCH  11  32
ATOM     32  C   UNL     1       2.344 -10.321   0.431  0.00  0.00    +0.261 C 
BRANCH  32  33
ATOM     33  C   UNL     1       2.198 -10.477  -1.084  0.00  0.00    +0.033 C 
ATOM     34  C   UNL     1       3.306  -9.690  -1.787  0.00  0.00    +0.011 C 
ATOM     35  C   UNL     1       2.308 -11.957  -1.457  0.00  0.00    +0.011 C 
ENDBRANCH  32  33
BRANCH  32  36
ATOM     36  O   UNL     1       2.190  -8.945   0.785  0.00  0.00    -0.479 OA
BRANCH  36  37
ATOM     37  C   UNL     1       3.326  -8.210   0.912  0.00  0.00    +0.122 A 
ATOM     38  C   UNL     1       3.250  -6.865   1.242  0.00  0.00    +0.045 A 
ATOM     39  C   UNL     1       4.407  -6.120   1.371  0.00  0.00    +0.004 A 
ATOM     40  C   UNL     1       5.639  -6.714   1.171  0.00  0.00    +0.000 A 
ATOM     41  C   UNL     1       5.717  -8.055   0.841  0.00  0.00    +0.004 A 
ATOM     42  C   UNL     1       4.564  -8.805   0.717  0.00  0.00    +0.045 A 
ENDBRANCH  36  37
ENDBRANCH  32  36
ENDBRANCH  11  32
TORSDOF 7
