REMARK  Name = ZINC57122059
REMARK  10 active torsions:
REMARK  status: ('A' for Active; 'I' for Inactive)
REMARK    1  A    between atoms: C_1  and  C_2
REMARK    2  A    between atoms: C_2  and  C_3
REMARK    3  A    between atoms: C_2  and  C_4
REMARK    4  A    between atoms: C_4  and  C_5
REMARK    5  A    between atoms: C_8  and  C_22
REMARK    6  A    between atoms: N_24  and  C_25
REMARK    7  A    between atoms: C_27  and  O_33
REMARK    8  A    between atoms: C_30  and  O_31
REMARK    9  A    between atoms: O_31  and  C_32
REMARK   10  A    between atoms: O_33  and  C_34
REMARK                            x       y       z     vdW  Elec       q    Type
REMARK                         _______ _______ _______ _____ _____    ______ ____
ROOT
ATOM      1  C   UNL     1      -2.157  -0.171  -1.271  0.00  0.00    +0.056 C 
ATOM      2  C   UNL     1      -3.583  -0.774  -1.333  0.00  0.00    +0.034 C 
ATOM      3  C   UNL     1      -4.302   0.213  -2.292  0.00  0.00    +0.110 C 
ATOM      4  C   UNL     1      -3.660   1.563  -1.935  0.00  0.00    +0.135 C 
ATOM      5  N   UNL     1      -2.362   1.295  -1.302  0.00  0.00    -0.296 NA
ATOM      6  C   UNL     1      -3.504   2.422  -3.160  0.00  0.00    +0.006 A 
ATOM      7  C   UNL     1      -2.811   2.268  -4.340  0.00  0.00    +0.046 A 
ATOM      8  C   UNL     1      -2.862   3.257  -5.309  0.00  0.00    +0.124 A 
ATOM      9  C   UNL     1      -3.612   4.399  -5.086  0.00  0.00    +0.040 A 
ATOM     10  C   UNL     1      -4.307   4.557  -3.905  0.00  0.00    +0.026 A 
ATOM     11  C   UNL     1      -4.259   3.567  -2.926  0.00  0.00    +0.039 A 
ATOM     12  N   UNL     1      -4.863   3.497  -1.668  0.00  0.00    -0.283 N 
ATOM     13  C   UNL     1      -4.561   2.355  -1.022  0.00  0.00    +0.243 C 
ATOM     14  O   UNL     1      -4.942   2.027   0.082  0.00  0.00    -0.273 OA
ATOM     15  F   UNL     1      -2.182   3.108  -6.466  0.00  0.00    -0.205 F 
ATOM     16  H   UNL     1      -2.326   1.685  -0.371  0.00  0.00    +0.123 HD
ATOM     17  H   UNL     1      -5.434   4.191  -1.302  0.00  0.00    +0.155 HD
ENDROOT
BRANCH   3  18
ATOM     18  C   UNL     1      -4.032  -0.146  -3.730  0.00  0.00    +0.223 C 
ATOM     19  O   UNL     1      -2.957  -0.611  -4.048  0.00  0.00    -0.275 OA
ATOM     20  N   UNL     1      -4.984   0.049  -4.664  0.00  0.00    -0.282 N 
ATOM     21  H   UNL     1      -5.811   0.497  -4.427  0.00  0.00    +0.155 HD
BRANCH  20  22
ATOM     22  C   UNL     1      -4.779  -0.396  -5.977  0.00  0.00    +0.079 A 
ATOM     23  C   UNL     1      -4.054  -1.555  -6.213  0.00  0.00    +0.072 A 
ATOM     24  C   UNL     1      -3.853  -1.992  -7.513  0.00  0.00    +0.122 A 
ATOM     25  C   UNL     1      -4.376  -1.272  -8.577  0.00  0.00    +0.049 A 
ATOM     26  C   UNL     1      -5.099  -0.117  -8.344  0.00  0.00    +0.051 A 
ATOM     27  C   UNL     1      -5.308   0.322  -7.047  0.00  0.00    +0.141 A 
BRANCH  27  28
ATOM     28  O   UNL     1      -6.024   1.456  -6.819  0.00  0.00    -0.493 OA
ATOM     29  C   UNL     1      -6.536   2.141  -7.963  0.00  0.00    +0.277 C 
ENDBRANCH  27  28
BRANCH  24  30
ATOM     30  O   UNL     1      -3.143  -3.128  -7.745  0.00  0.00    -0.495 OA
ATOM     31  C   UNL     1      -2.974  -3.520  -9.109  0.00  0.00    +0.277 C 
ENDBRANCH  24  30
ENDBRANCH  20  22
ENDBRANCH   3  18
BRANCH   1  32
ATOM     32  C   UNL     1      -1.460  -0.584   0.027  0.00  0.00    +0.021 C 
BRANCH  32  34
ATOM     33  C   UNL     1      -0.052   1.480   0.052  0.00  0.00    +0.007 C 
ATOM     34  C   UNL     1      -0.026  -0.050   0.029  0.00  0.00    -0.016 C 
ATOM     35  C   UNL     1       0.709  -0.567   1.266  0.00  0.00    +0.007 C 
ENDBRANCH  32  34
ENDBRANCH   1  32
TORSDOF 6
