REMARK  Name = ZINC65492891
REMARK  7 active torsions:
REMARK  status: ('A' for Active; 'I' for Inactive)
REMARK    1  A    between atoms: C_1  and  C_2
REMARK    2  A    between atoms: C_2  and  C_3
REMARK    3  A    between atoms: C_3  and  C_4
REMARK    4  A    between atoms: C_8  and  N_11
REMARK    5  A    between atoms: C_12  and  C_14
REMARK    6  A    between atoms: C_14  and  N_15
REMARK    7  A    between atoms: C_18  and  N_21
REMARK                            x       y       z     vdW  Elec       q    Type
REMARK                         _______ _______ _______ _____ _____    ______ ____
ROOT
ATOM      1  N   UNL     1      -1.524  -7.105  -6.289  0.00  0.00    -0.290 NA
ATOM      2  C   UNL     1      -2.364  -7.358  -7.471  0.00  0.00    +0.091 C 
ATOM      3  C   UNL     1      -1.799  -8.569  -8.219  0.00  0.00    +0.069 C 
ATOM      4  C   UNL     1      -1.561  -9.695  -7.253  0.00  0.00    +0.027 C 
ATOM      5  C   UNL     1      -1.512  -9.519  -5.958  0.00  0.00    +0.010 C 
ATOM      6  C   UNL     1      -1.697  -8.180  -5.304  0.00  0.00    +0.114 C 
ENDROOT
BRANCH   4   7
ATOM      7  N   UNL     1      -1.385 -10.982  -7.758  0.00  0.00    -0.265 N 
ATOM      8  C   UNL     1      -1.251 -11.319  -9.104  0.00  0.00    +0.074 A 
ATOM      9  C   UNL     1      -1.249 -10.577 -10.275  0.00  0.00    +0.028 A 
ATOM     10  C   UNL     1      -1.093 -11.212 -11.492  0.00  0.00    +0.002 A 
ATOM     11  C   UNL     1      -0.938 -12.586 -11.546  0.00  0.00    +0.002 A 
ATOM     12  C   UNL     1      -0.939 -13.334 -10.385  0.00  0.00    +0.028 A 
ATOM     13  C   UNL     1      -1.096 -12.706  -9.160  0.00  0.00    +0.067 A 
ATOM     14  N   UNL     1      -1.139 -13.168  -7.846  0.00  0.00    -0.306 N 
ATOM     15  H   UNL     1      -1.058 -14.094  -7.568  0.00  0.00    +0.170 HD
ATOM     16  C   UNL     1      -1.308 -12.112  -7.029  0.00  0.00    +0.332 A 
ATOM     17  O   UNL     1      -1.382 -12.169  -5.816  0.00  0.00    -0.246 OA
ENDBRANCH   4   7
BRANCH   1  18
ATOM     18  C   UNL     1      -1.829  -5.795  -5.698  0.00  0.00    +0.180 C 
BRANCH  18  20
ATOM     19  N   UNL     1      -0.890  -4.315  -3.953  0.00  0.00    -0.289 N 
ATOM     20  C   UNL     1      -0.810  -5.474  -4.635  0.00  0.00    +0.229 C 
ATOM     21  O   UNL     1       0.083  -6.259  -4.394  0.00  0.00    -0.274 OA
ATOM     22  H   UNL     1      -1.604  -3.687  -4.146  0.00  0.00    +0.151 HD
BRANCH  19  26
ATOM     23  C   UNL     1       1.257  -1.664  -2.009  0.00  0.00    +0.130 C 
ATOM     24  N   UNL     1       1.740  -2.186  -3.325  0.00  0.00    -0.241 NA
ATOM     25  N   UNL     1       1.383  -3.575  -3.528  0.00  0.00    -0.227 NA
ATOM     26  C   UNL     1       0.101  -4.003  -2.920  0.00  0.00    +0.216 C 
ATOM     27  S   UNL     1      -0.390  -2.503  -1.964  0.00  0.00    -0.102 S 
ATOM     28  H   UNL     1       1.407  -1.612  -4.085  0.00  0.00    +0.142 HD
ATOM     29  H   UNL     1       2.137  -4.186  -3.251  0.00  0.00    +0.143 HD
BRANCH  23  30
ATOM     30  C   UNL     1       1.113  -0.141  -2.026  0.00  0.00    +0.031 C 
BRANCH  30  32
ATOM     31  C   UNL     1       0.482   1.864  -0.675  0.00  0.00    +0.004 C 
ATOM     32  C   UNL     1       0.626   0.341  -0.658  0.00  0.00    -0.001 C 
ENDBRANCH  30  32
ENDBRANCH  23  30
ENDBRANCH  19  26
ENDBRANCH  18  20
ENDBRANCH   1  18
TORSDOF 6
