REMARK  Name = ZINC04473614
REMARK  4 active torsions:
REMARK  status: ('A' for Active; 'I' for Inactive)
REMARK    1  A    between atoms: C_4  and  C_7
REMARK    2  A    between atoms: C_10  and  C_12
REMARK    3  A    between atoms: N_14  and  N_15
REMARK    4  A    between atoms: C_16  and  C_17
REMARK                            x       y       z     vdW  Elec       q    Type
REMARK                         _______ _______ _______ _____ _____    ______ ____
ROOT
ATOM      1  C   UNL     1       4.969  -4.003  -0.067  0.00  0.00    +0.236 C 
ATOM      2  O   UNL     1       3.929  -4.628  -0.061  0.00  0.00    -0.274 OA
ATOM      3  N   UNL     1       4.945  -2.655  -0.060  0.00  0.00    -0.207 N 
ATOM      4  H   UNL     1       5.776  -2.155  -0.065  0.00  0.00    +0.177 HD
ENDROOT
BRANCH   1   7
ATOM      5  C   UNL     1       6.247  -6.262  -0.091  0.00  0.00    +0.032 C 
ATOM      6  C   UNL     1       6.653  -5.501  -1.355  0.00  0.00    +0.022 C 
ATOM      7  C   UNL     1       6.287  -4.733  -0.084  0.00  0.00    +0.085 C 
BRANCH   5  11
ATOM      8  C   UNL     1       2.408  -8.136  -0.064  0.00  0.00    +0.000 A 
ATOM      9  C   UNL     1       3.302  -8.376   0.963  0.00  0.00    +0.000 A 
ATOM     10  C   UNL     1       4.544  -7.770   0.954  0.00  0.00    +0.004 A 
ATOM     11  C   UNL     1       4.893  -6.923  -0.082  0.00  0.00    -0.044 A 
ATOM     12  C   UNL     1       3.997  -6.679  -1.106  0.00  0.00    +0.004 A 
ATOM     13  C   UNL     1       2.756  -7.288  -1.099  0.00  0.00    +0.000 A 
ENDBRANCH   5  11
ENDBRANCH   1   7
BRANCH   3  14
ATOM     14  N   UNL     1       3.719  -1.976  -0.044  0.00  0.00    -0.188 NA
ATOM     15  C   UNL     1       3.696  -0.679  -0.037  0.00  0.00    +0.139 C 
BRANCH  15  16
ATOM     16  C   UNL     1       2.406   0.036  -0.021  0.00  0.00    +0.014 A 
ATOM     17  C   UNL     1       2.378   1.433  -0.013  0.00  0.00    +0.011 A 
ATOM     18  C   UNL     1       1.168   2.095   0.002  0.00  0.00    +0.002 A 
ATOM     19  C   UNL     1      -0.017   1.380   0.010  0.00  0.00    +0.021 A 
ATOM     20  C   UNL     1       0.002  -0.004   0.002  0.00  0.00    +0.060 A 
ATOM     21  C   UNL     1       1.207  -0.681  -0.014  0.00  0.00    +0.068 A 
ATOM     22 CL   UNL     1       1.230  -2.417  -0.024  0.00  0.00    -0.081 Cl
ATOM     23 CL   UNL     1      -1.490  -0.891   0.011  0.00  0.00    -0.082 Cl
ENDBRANCH  15  16
ENDBRANCH   3  14
TORSDOF 4
