REMARK  Name = ZINC36597524
REMARK  16 active torsions:
REMARK  status: ('A' for Active; 'I' for Inactive)
REMARK    1  A    between atoms: C_1  and  C_2
REMARK    2  A    between atoms: C_2  and  C_3
REMARK    3  A    between atoms: C_3  and  C_4
REMARK    4  A    between atoms: C_4  and  N_5
REMARK    5  A    between atoms: C_6  and  C_8
REMARK    6  A    between atoms: C_8  and  C_10
REMARK    7  A    between atoms: C_8  and  N_15
REMARK    8  A    between atoms: C_11  and  C_12
REMARK    9  A    between atoms: C_12  and  C_13
REMARK   10  A    between atoms: C_13  and  C_14
REMARK   11  A    between atoms: N_15  and  C_16
REMARK   12  A    between atoms: C_16  and  C_17
REMARK   13  A    between atoms: C_20  and  C_22
REMARK   14  A    between atoms: C_23  and  C_25
REMARK   15  A    between atoms: C_26  and  O_32
REMARK   16  A    between atoms: C_30  and  O_31
REMARK                            x       y       z     vdW  Elec       q    Type
REMARK                         _______ _______ _______ _____ _____    ______ ____
ROOT
ATOM      1  N   UNL     1      -4.655  -5.824   0.598  0.00  0.00    -0.275 N 
ATOM      2  C   UNL     1      -5.500  -6.454   1.438  0.00  0.00    +0.255 C 
ATOM      3  O   UNL     1      -5.536  -7.669   1.467  0.00  0.00    -0.270 OA
ENDROOT
BRANCH   2   4
ATOM      4  C   UNL     1      -6.381  -5.670   2.320  0.00  0.00    +0.119 A 
ATOM      5  C   UNL     1      -7.685  -5.351   1.914  0.00  0.00    +0.133 A 
ATOM      6  C   UNL     1      -8.505  -4.614   2.752  0.00  0.00    +0.046 A 
ATOM      7  C   UNL     1      -8.043  -4.193   3.985  0.00  0.00    +0.007 A 
ATOM      8  C   UNL     1      -6.759  -4.502   4.396  0.00  0.00    +0.046 A 
ATOM      9  C   UNL     1      -5.924  -5.243   3.575  0.00  0.00    +0.133 A 
BRANCH   9  10
ATOM     10  O   UNL     1      -4.667  -5.550   3.983  0.00  0.00    -0.506 OA
ATOM     11  H   UNL     1      -4.016  -4.857   3.807  0.00  0.00    +0.292 HD
ENDBRANCH   9  10
BRANCH   5  12
ATOM     12  O   UNL     1      -8.141  -5.763   0.704  0.00  0.00    -0.506 OA
ATOM     13  H   UNL     1      -8.570  -6.629   0.720  0.00  0.00    +0.292 HD
ENDBRANCH   5  12
ENDBRANCH   2   4
BRANCH   1  14
ATOM     14  C   UNL     1      -4.534  -4.365   0.638  0.00  0.00    +0.186 C 
BRANCH  14  16
ATOM     15  N   UNL     1      -2.743  -2.706   1.035  0.00  0.00    -0.314 N 
ATOM     16  C   UNL     1      -3.152  -3.988   1.106  0.00  0.00    +0.238 C 
ATOM     17  O   UNL     1      -2.409  -4.839   1.547  0.00  0.00    -0.273 OA
ATOM     18  H   UNL     1      -3.338  -2.026   0.682  0.00  0.00    +0.149 HD
BRANCH  15  19
ATOM     19  C   UNL     1      -1.399  -2.340   1.490  0.00  0.00    +0.104 C 
BRANCH  19  20
ATOM     20  C   UNL     1      -1.189  -0.836   1.302  0.00  0.00    +0.018 C 
BRANCH  20  22
ATOM     21  C   UNL     1       0.424   1.050   1.589  0.00  0.00    +0.004 C 
ATOM     22  C   UNL     1       0.214  -0.454   1.777  0.00  0.00    -0.002 C 
ENDBRANCH  20  22
ENDBRANCH  19  20
ENDBRANCH  15  19
ENDBRANCH  14  16
BRANCH  14  23
ATOM     23  C   UNL     1      -4.768  -3.803  -0.741  0.00  0.00    +0.000 C 
ATOM     24  C   UNL     1      -5.155  -4.592  -1.712  0.00  0.00    -0.029 C 
BRANCH  24  25
ATOM     25  C   UNL     1      -5.363  -4.035  -3.097  0.00  0.00    +0.027 C 
BRANCH  25  26
ATOM     26  C   UNL     1      -4.366  -4.681  -4.062  0.00  0.00    +0.001 C 
ATOM     27  C   UNL     1      -4.494  -4.029  -5.440  0.00  0.00    +0.004 C 
ENDBRANCH  25  26
ENDBRANCH  24  25
ENDBRANCH  14  23
ENDBRANCH   1  14
BRANCH   1  28
ATOM     28  C   UNL     1      -3.858  -6.600  -0.356  0.00  0.00    +0.183 C 
BRANCH  28  29
ATOM     29  C   UNL     1      -2.630  -7.134   0.334  0.00  0.00    +0.122 A 
ATOM     30  C   UNL     1      -2.575  -8.241   1.097  0.00  0.00    +0.046 A 
ATOM     31  C   UNL     1      -1.238  -8.367   1.540  0.00  0.00    +0.045 A 
ATOM     32  C   UNL     1      -0.556  -7.330   1.021  0.00  0.00    +0.102 A 
ATOM     33  O   UNL     1      -1.403  -6.590   0.287  0.00  0.00    -0.463 OA
ATOM     34  C   UNL     1       0.911  -7.049   1.225  0.00  0.00    +0.086 C 
ENDBRANCH  28  29
ENDBRANCH   1  28
TORSDOF 13
