REMARK  Name = ZINC00458741
REMARK  5 active torsions:
REMARK  status: ('A' for Active; 'I' for Inactive)
REMARK    1  A    between atoms: C_4  and  N_21
REMARK    2  A    between atoms: C_5  and  C_7
REMARK    3  A    between atoms: C_7  and  C_9
REMARK    4  A    between atoms: C_9  and  C_10
REMARK    5  A    between atoms: C_10  and  O_20
REMARK                            x       y       z     vdW  Elec       q    Type
REMARK                         _______ _______ _______ _____ _____    ______ ____
ROOT
ATOM      1  C   UNL     1      -2.500   0.998  -0.120  0.00  0.00    +0.175 C 
ATOM      2  C   UNL     1      -3.795   1.693  -0.472  0.00  0.00    +0.014 A 
ATOM      3  C   UNL     1      -4.497   2.721   0.116  0.00  0.00    +0.009 A 
ATOM      4  C   UNL     1      -5.684   3.157  -0.446  0.00  0.00    +0.000 A 
ATOM      5  C   UNL     1      -6.161   2.557  -1.597  0.00  0.00    +0.002 A 
ATOM      6  C   UNL     1      -5.461   1.526  -2.188  0.00  0.00    +0.024 A 
ATOM      7  C   UNL     1      -4.264   1.082  -1.628  0.00  0.00    +0.040 A 
ATOM      8  N   UNL     1      -3.387   0.074  -2.031  0.00  0.00    -0.282 N 
ATOM      9  C   UNL     1      -2.332  -0.041  -1.207  0.00  0.00    +0.254 C 
ATOM     10  O   UNL     1      -1.417  -0.830  -1.315  0.00  0.00    -0.272 OA
ATOM     11  H   UNL     1      -3.523  -0.479  -2.816  0.00  0.00    +0.155 HD
ENDROOT
BRANCH   1  12
ATOM     12  O   UNL     1      -2.597   0.372   1.161  0.00  0.00    -0.374 OA
ATOM     13  H   UNL     1      -1.802  -0.114   1.423  0.00  0.00    +0.211 HD
ENDBRANCH   1  12
BRANCH   1  14
ATOM     14  C   UNL     1      -1.336   1.991  -0.143  0.00  0.00    +0.129 C 
BRANCH  14  15
ATOM     15  C   UNL     1      -0.035   1.243  -0.006  0.00  0.00    +0.169 C 
ATOM     16  O   UNL     1      -0.038   0.035   0.100  0.00  0.00    -0.292 OA
BRANCH  15  21
ATOM     17  C   UNL     1       3.238   2.680  -1.143  0.00  0.00    +0.001 A 
ATOM     18  C   UNL     1       3.639   3.362  -0.008  0.00  0.00    +0.002 A 
ATOM     19  C   UNL     1       2.849   3.357   1.128  0.00  0.00    +0.033 A 
ATOM     20  C   UNL     1       1.650   2.675   1.135  0.00  0.00    +0.137 A 
ATOM     21  C   UNL     1       1.240   1.978  -0.006  0.00  0.00    +0.048 A 
ATOM     22  C   UNL     1       2.045   1.989  -1.150  0.00  0.00    +0.013 A 
BRANCH  20  23
ATOM     23  N   UNL     1       0.803   2.675   2.348  0.00  0.00    +0.057 N 
ATOM     24  O   UNL     1       1.106   3.369   3.302  0.00  0.00    -0.126 OA
ATOM     25  O   UNL     1      -0.197   1.982   2.393  0.00  0.00    -0.126 OA
ENDBRANCH  20  23
ENDBRANCH  15  21
ENDBRANCH  14  15
ENDBRANCH   1  14
TORSDOF 5
