REMARK  Name = ZINC39659309
REMARK  6 active torsions:
REMARK  status: ('A' for Active; 'I' for Inactive)
REMARK    1  A    between atoms: C_1  and  C_2
REMARK    2  A    between atoms: C_2  and  C_31
REMARK    3  A    between atoms: C_5  and  C_8
REMARK    4  A    between atoms: C_8  and  N_9
REMARK    5  A    between atoms: C_10  and  C_12
REMARK    6  A    between atoms: C_23  and  C_25
REMARK                            x       y       z     vdW  Elec       q    Type
REMARK                         _______ _______ _______ _____ _____    ______ ____
ROOT
ATOM      1  C   UNL     1       3.021  -2.674   5.321  0.00  0.00    +0.100 C 
ATOM      2  C   UNL     1       4.199  -1.839   4.769  0.00  0.00    +0.121 C 
ATOM      3  N   UNL     1       5.370  -2.268   5.571  0.00  0.00    -0.295 N 
ATOM      4  C   UNL     1       5.192  -3.731   5.729  0.00  0.00    +0.115 C 
ATOM      5  C   UNL     1       3.677  -3.914   5.949  0.00  0.00    -0.004 C 
ATOM      6  C   UNL     1       3.364  -3.978   7.441  0.00  0.00    -0.010 C 
ATOM      7  C   UNL     1       3.979  -5.250   8.033  0.00  0.00    -0.082 C 
ATOM      8  N   UNL     1       3.430  -6.426   7.346  0.00  0.00    +0.379 N 
ATOM      9  C   UNL     1       3.813  -6.404   5.930  0.00  0.00    -0.082 C 
ATOM     10  C   UNL     1       3.192  -5.181   5.249  0.00  0.00    -0.010 C 
ATOM     11  C   UNL     1       6.370  -1.501   6.048  0.00  0.00    +0.265 C 
ATOM     12  O   UNL     1       7.309  -2.015   6.622  0.00  0.00    -0.268 OA
ATOM     13  H   UNL     1       3.789  -7.264   7.778  0.00  0.00    -0.086 HD
ATOM     14  H   UNL     1       2.423  -6.418   7.421  0.00  0.00    -0.086 HD
ENDROOT
BRANCH  11  15
ATOM     15  C   UNL     1       6.324  -0.030   5.873  0.00  0.00    +0.126 A 
ATOM     16  C   UNL     1       7.411   0.747   6.268  0.00  0.00    +0.033 A 
ATOM     17  C   UNL     1       7.353   2.121   6.098  0.00  0.00    +0.004 A 
ATOM     18  C   UNL     1       6.210   2.670   5.539  0.00  0.00    +0.020 A 
ATOM     19  C   UNL     1       5.166   1.837   5.169  0.00  0.00    +0.111 A 
ATOM     20  N   UNL     1       5.250   0.535   5.337  0.00  0.00    -0.250 NA
ENDBRANCH  11  15
BRANCH   1  22
ATOM     21  N   UNL     1       0.824  -3.432   4.474  0.00  0.00    -0.312 N 
ATOM     22  C   UNL     1       2.096  -3.079   4.202  0.00  0.00    +0.218 C 
ATOM     23  O   UNL     1       2.497  -3.087   3.057  0.00  0.00    -0.275 OA
ATOM     24  H   UNL     1       0.504  -3.425   5.389  0.00  0.00    +0.149 HD
BRANCH  21  25
ATOM     25  C   UNL     1      -0.075  -3.825   3.386  0.00  0.00    +0.138 C 
BRANCH  25  30
ATOM     26  C   UNL     1      -4.385  -3.072   5.302  0.00  0.00    +0.074 C 
ATOM     27  C   UNL     1      -3.510  -3.124   4.048  0.00  0.00    +0.165 C 
ATOM     28  O   UNL     1      -3.691  -4.386   3.385  0.00  0.00    -0.347 OA
ATOM     29  C   UNL     1      -2.386  -4.715   2.853  0.00  0.00    +0.196 C 
ATOM     30  C   UNL     1      -1.449  -4.175   3.962  0.00  0.00    +0.164 C 
ATOM     31  O   UNL     1      -2.131  -2.989   4.417  0.00  0.00    -0.342 OA
ATOM     32  C   UNL     1      -3.902  -1.988   3.101  0.00  0.00    +0.074 C 
ENDBRANCH  25  30
ENDBRANCH  21  25
ENDBRANCH   1  22
TORSDOF 4
