REMARK  Name = ZINC39920291
REMARK  7 active torsions:
REMARK  status: ('A' for Active; 'I' for Inactive)
REMARK    1  A    between atoms: C_1  and  C_2
REMARK    2  A    between atoms: C_2  and  C_4
REMARK    3  A    between atoms: C_2  and  O_26
REMARK    4  A    between atoms: N_6  and  N_7
REMARK    5  A    between atoms: C_8  and  C_19
REMARK    6  A    between atoms: C_22  and  O_25
REMARK    7  A    between atoms: O_26  and  C_27
REMARK                            x       y       z     vdW  Elec       q    Type
REMARK                         _______ _______ _______ _____ _____    ______ ____
ROOT
ATOM      1  N   UNL     1      -3.674  -0.347  -0.761  0.00  0.00    -0.191 N 
ATOM      2  C   UNL     1      -4.229  -1.516  -1.444  0.00  0.00    +0.212 C 
ATOM      3  N   UNL     1      -5.355  -2.066  -0.679  0.00  0.00    -0.320 N 
ATOM      4  C   UNL     1      -6.297  -1.185  -0.159  0.00  0.00    +0.041 A 
ATOM      5  C   UNL     1      -7.619  -1.550   0.023  0.00  0.00    +0.024 A 
ATOM      6  C   UNL     1      -8.516  -0.635   0.541  0.00  0.00    +0.002 A 
ATOM      7  C   UNL     1      -8.101   0.644   0.879  0.00  0.00    +0.001 A 
ATOM      8  C   UNL     1      -6.786   1.023   0.705  0.00  0.00    +0.015 A 
ATOM      9  C   UNL     1      -5.872   0.110   0.186  0.00  0.00    +0.059 A 
ATOM     10  C   UNL     1      -4.452   0.457  -0.008  0.00  0.00    +0.266 C 
ATOM     11  O   UNL     1      -3.989   1.459   0.502  0.00  0.00    -0.268 OA
ATOM     12  H   UNL     1      -5.440  -3.022  -0.540  0.00  0.00    +0.148 HD
ENDROOT
BRANCH   2  13
ATOM     13  C   UNL     1      -4.710  -1.112  -2.813  0.00  0.00    -0.008 A 
ATOM     14  C   UNL     1      -4.086  -0.079  -3.487  0.00  0.00    +0.011 A 
ATOM     15  C   UNL     1      -4.525   0.294  -4.743  0.00  0.00    +0.046 A 
ATOM     16  C   UNL     1      -5.594  -0.370  -5.328  0.00  0.00    +0.117 A 
ATOM     17  C   UNL     1      -6.218  -1.407  -4.650  0.00  0.00    +0.046 A 
ATOM     18  C   UNL     1      -5.772  -1.779  -3.397  0.00  0.00    +0.011 A 
BRANCH  16  19
ATOM     19  O   UNL     1      -6.028  -0.005  -6.562  0.00  0.00    -0.507 OA
ATOM     20  H   UNL     1      -5.595  -0.476  -7.287  0.00  0.00    +0.292 HD
ENDBRANCH  16  19
ENDBRANCH   2  13
BRANCH   1  23
ATOM     21  C   UNL     1      -1.469  -0.320   0.135  0.00  0.00    +0.270 C 
ATOM     22  O   UNL     1      -1.896  -0.799   1.164  0.00  0.00    -0.270 OA
ATOM     23  N   UNL     1      -2.308  -0.061  -0.887  0.00  0.00    -0.227 N 
ATOM     24  H   UNL     1      -1.967   0.323  -1.710  0.00  0.00    +0.173 HD
BRANCH  21  26
ATOM     25  C   UNL     1       0.194   1.500  -0.137  0.00  0.00    +0.062 C 
ATOM     26  C   UNL     1       0.000  -0.012   0.000  0.00  0.00    +0.257 C 
BRANCH  26  27
ATOM     27  O   UNL     1       0.693  -0.477   1.160  0.00  0.00    -0.480 OA
BRANCH  27  28
ATOM     28  C   UNL     1       2.014  -0.764   1.016  0.00  0.00    +0.122 A 
ATOM     29  C   UNL     1       2.721  -1.330   2.067  0.00  0.00    +0.045 A 
ATOM     30  C   UNL     1       4.063  -1.621   1.917  0.00  0.00    +0.004 A 
ATOM     31  C   UNL     1       4.702  -1.348   0.722  0.00  0.00    +0.000 A 
ATOM     32  C   UNL     1       4.000  -0.783  -0.326  0.00  0.00    +0.004 A 
ATOM     33  C   UNL     1       2.656  -0.496  -0.184  0.00  0.00    +0.045 A 
ENDBRANCH  27  28
ENDBRANCH  26  27
ENDBRANCH  21  26
ENDBRANCH   1  23
TORSDOF 6
