REMARK  Name = ZINC14473311
REMARK  7 active torsions:
REMARK  status: ('A' for Active; 'I' for Inactive)
REMARK    1  A    between atoms: C_1  and  C_2
REMARK    2  A    between atoms: C_2  and  C_3
REMARK    3  A    between atoms: C_3  and  C_4
REMARK    4  A    between atoms: C_4  and  O_5
REMARK    5  A    between atoms: O_5  and  C_6
REMARK    6  A    between atoms: C_13  and  C_22
REMARK    7  A    between atoms: C_24  and  N_29
REMARK                            x       y       z     vdW  Elec       q    Type
REMARK                         _______ _______ _______ _____ _____    ______ ____
ROOT
ATOM      1  C   UNL     1       3.547  -2.169  -1.349  0.00  0.00    +0.142 A 
ATOM      2  C   UNL     1       4.691  -2.946  -1.375  0.00  0.00    +0.047 A 
ATOM      3  C   UNL     1       5.740  -2.650  -0.525  0.00  0.00    +0.004 A 
ATOM      4  C   UNL     1       5.645  -1.584   0.345  0.00  0.00    +0.006 A 
ATOM      5  C   UNL     1       4.501  -0.796   0.381  0.00  0.00    -0.016 A 
ATOM      6  C   UNL     1       3.449  -1.089  -0.467  0.00  0.00    +0.074 A 
ATOM      7  N   UNL     1       2.278  -0.320  -0.493  0.00  0.00    -0.334 N 
ATOM      8  C   UNL     1       2.490   1.047  -0.017  0.00  0.00    +0.106 C 
ATOM      9  C   UNL     1       3.072   1.009   1.398  0.00  0.00    +0.029 C 
ATOM     10  C   UNL     1       4.466   0.349   1.350  0.00  0.00    +0.049 C 
ATOM     11  C   UNL     1       5.387   1.464   0.911  0.00  0.00    -0.023 C 
ATOM     12  C   UNL     1       4.841   2.630   1.147  0.00  0.00    -0.030 C 
ATOM     13  C   UNL     1       3.477   2.459   1.786  0.00  0.00    +0.033 C 
ATOM     14  H   UNL     1       1.553  -0.779   0.037  0.00  0.00    +0.147 HD
ENDROOT
BRANCH   8  15
ATOM     15  C   UNL     1       1.175   1.783   0.000  0.00  0.00    -0.007 A 
ATOM     16  C   UNL     1       0.512   1.987   1.196  0.00  0.00    +0.039 A 
ATOM     17  C   UNL     1      -0.697   2.656   1.211  0.00  0.00    +0.127 A 
ATOM     18  C   UNL     1      -1.239   3.132   0.032  0.00  0.00    +0.034 A 
ATOM     19  C   UNL     1      -0.577   2.929  -1.164  0.00  0.00    +0.022 A 
ATOM     20  C   UNL     1       0.631   2.254  -1.181  0.00  0.00    +0.046 A 
ATOM     21 CL   UNL     1       1.462   1.998  -2.683  0.00  0.00    -0.083 Cl
BRANCH  17  22
ATOM     22  N   UNL     1      -1.409   2.868   2.491  0.00  0.00    +0.056 N 
ATOM     23  O   UNL     1      -0.929   2.453   3.531  0.00  0.00    -0.126 OA
ATOM     24  O   UNL     1      -2.475   3.458   2.505  0.00  0.00    -0.126 OA
ENDBRANCH  17  22
ENDBRANCH   8  15
BRANCH   1  25
ATOM     25  O   UNL     1       2.513  -2.458  -2.183  0.00  0.00    -0.490 OA
BRANCH  25  26
ATOM     26  C   UNL     1       2.678  -3.575  -3.059  0.00  0.00    +0.229 C 
BRANCH  26  27
ATOM     27  C   UNL     1       1.421  -3.743  -3.915  0.00  0.00    +0.041 C 
BRANCH  27  29
ATOM     28  C   UNL     1       0.341  -5.106  -5.708  0.00  0.00    +0.004 C 
ATOM     29  C   UNL     1       1.598  -4.939  -4.852  0.00  0.00    -0.000 C 
ENDBRANCH  27  29
ENDBRANCH  26  27
ENDBRANCH  25  26
ENDBRANCH   1  25
TORSDOF 6
