REMARK  Name = ZINC58853125
REMARK  3 active torsions:
REMARK  status: ('A' for Active; 'I' for Inactive)
REMARK    1  A    between atoms: C_10  and  N_12
REMARK    2  A    between atoms: N_15  and  C_16
REMARK    3  A    between atoms: C_20  and  N_22
REMARK                            x       y       z     vdW  Elec       q    Type
REMARK                         _______ _______ _______ _____ _____    ______ ____
ROOT
ATOM      1  N   UNL     1       4.636   0.025  -0.945  0.00  0.00    -0.292 N 
ATOM      2  C   UNL     1       5.320   1.108  -0.526  0.00  0.00    +0.304 C 
ATOM      3  O   UNL     1       5.195   1.501   0.618  0.00  0.00    -0.252 OA
ATOM      4  N   UNL     1       6.144   1.754  -1.374  0.00  0.00    -0.269 N 
ATOM      5  H   UNL     1       4.736  -0.289  -1.857  0.00  0.00    +0.151 HD
ATOM      6  H   UNL     1       6.296   1.402  -2.265  0.00  0.00    +0.156 HD
ENDROOT
BRANCH   1  16
ATOM      7  C   UNL     1      -0.021   1.359  -0.013  0.00  0.00    +0.000 A 
ATOM      8  C   UNL     1       1.167   2.066  -0.019  0.00  0.00    +0.000 A 
ATOM      9  C   UNL     1       2.368   1.387  -0.024  0.00  0.00    +0.006 A 
ATOM     10  C   UNL     1       2.394  -0.002  -0.025  0.00  0.00    -0.024 A 
ATOM     11  C   UNL     1       1.211  -0.706  -0.024  0.00  0.00    -0.042 A 
ATOM     12  C   UNL     1       0.003  -0.021  -0.015  0.00  0.00    +0.004 A 
ATOM     13  C   UNL     1       1.164  -2.211  -0.041  0.00  0.00    +0.035 C 
ATOM     14  C   UNL     1       2.511  -2.796   0.381  0.00  0.00    +0.007 C 
ATOM     15  C   UNL     1       3.610  -2.135  -0.460  0.00  0.00    +0.027 C 
ATOM     16  C   UNL     1       3.740  -0.678  -0.022  0.00  0.00    +0.105 C 
ENDBRANCH   1  16
BRANCH   4  17
ATOM     17  C   UNL     1       6.780   2.934  -0.970  0.00  0.00    +0.037 A 
ATOM     18  C   UNL     1       7.198   3.083   0.346  0.00  0.00    +0.025 A 
ATOM     19  C   UNL     1       7.826   4.247   0.742  0.00  0.00    +0.024 A 
ATOM     20  C   UNL     1       8.037   5.266  -0.170  0.00  0.00    +0.071 A 
ATOM     21  C   UNL     1       7.621   5.120  -1.482  0.00  0.00    +0.146 A 
ATOM     22  C   UNL     1       6.998   3.955  -1.885  0.00  0.00    +0.057 A 
ATOM     23 CL   UNL     1       8.825   6.729   0.331  0.00  0.00    -0.081 Cl
BRANCH  21  24
ATOM     24  N   UNL     1       7.849   6.212  -2.455  0.00  0.00    +0.058 N 
ATOM     25  O   UNL     1       7.486   6.085  -3.602  0.00  0.00    -0.126 OA
ATOM     26  O   UNL     1       8.399   7.230  -2.104  0.00  0.00    -0.126 OA
ENDBRANCH  21  24
ENDBRANCH   4  17
TORSDOF 3
