REMARK  Name = ZINC10864526
REMARK  10 active torsions:
REMARK  status: ('A' for Active; 'I' for Inactive)
REMARK    1  A    between atoms: C_1  and  C_2
REMARK    2  A    between atoms: C_2  and  O_3
REMARK    3  A    between atoms: O_3  and  C_4
REMARK    4  A    between atoms: C_4  and  C_6
REMARK    5  A    between atoms: C_7  and  C_21
REMARK    6  A    between atoms: C_12  and  C_14
REMARK    7  A    between atoms: C_21  and  S_22
REMARK    8  A    between atoms: S_22  and  C_23
REMARK    9  A    between atoms: C_26  and  C_29
REMARK   10  A    between atoms: N_27  and  N_28
REMARK                            x       y       z     vdW  Elec       q    Type
REMARK                         _______ _______ _______ _____ _____    ______ ____
ROOT
ATOM      1  C   UNL     1      -6.273   3.163   1.128  0.00  0.00    +0.079 C 
ATOM      2  C   UNL     1      -5.830   2.037   0.529  0.00  0.00    +0.034 C 
ATOM      3  N   UNL     1      -6.429   0.832   0.761  0.00  0.00    -0.272 N 
ATOM      4  C   UNL     1      -7.481   0.670   1.575  0.00  0.00    +0.304 C 
ATOM      5  O   UNL     1      -7.947  -0.443   1.718  0.00  0.00    -0.252 OA
ATOM      6  N   UNL     1      -8.039   1.702   2.239  0.00  0.00    -0.288 N 
ATOM      7  C   UNL     1      -7.465   3.045   2.057  0.00  0.00    +0.144 C 
ATOM      8  H   UNL     1      -6.074   0.050   0.312  0.00  0.00    +0.156 HD
ATOM      9  H   UNL     1      -8.800   1.562   2.824  0.00  0.00    +0.151 HD
ENDROOT
BRANCH   7  10
ATOM     10  C   UNL     1      -8.554   3.949   1.539  0.00  0.00    -0.022 A 
ATOM     11  C   UNL     1      -9.447   3.483   0.592  0.00  0.00    +0.007 A 
ATOM     12  C   UNL     1     -10.449   4.310   0.121  0.00  0.00    +0.020 A 
ATOM     13  C   UNL     1     -10.552   5.608   0.589  0.00  0.00    +0.041 A 
ATOM     14  C   UNL     1      -9.655   6.075   1.533  0.00  0.00    +0.020 A 
ATOM     15  C   UNL     1      -8.656   5.246   2.007  0.00  0.00    +0.007 A 
ATOM     16 CL   UNL     1     -11.807   6.649  -0.007  0.00  0.00    -0.084 Cl
ENDBRANCH   7  10
BRANCH   1  17
ATOM     17  C   UNL     1      -5.650   4.411   0.893  0.00  0.00    +0.339 C 
ATOM     18  O   UNL     1      -4.795   4.511   0.033  0.00  0.00    -0.245 OA
BRANCH  17  19
ATOM     19  O   UNL     1      -6.003   5.490   1.622  0.00  0.00    -0.462 OA
BRANCH  19  21
ATOM     20  C   UNL     1      -5.862   7.819   2.252  0.00  0.00    +0.048 C 
ATOM     21  C   UNL     1      -5.332   6.718   1.331  0.00  0.00    +0.229 C 
ENDBRANCH  19  21
ENDBRANCH  17  19
ENDBRANCH   1  17
BRANCH   2  22
ATOM     22  C   UNL     1      -4.651   2.110  -0.407  0.00  0.00    +0.128 C 
BRANCH  22  23
ATOM     23  S   UNL     1      -5.240   2.141  -2.118  0.00  0.00    -0.079 S 
BRANCH  23  24
ATOM     24  C   UNL     1      -3.700   2.225  -2.970  0.00  0.00    +0.209 A 
ATOM     25  N   UNL     1      -2.506   2.252  -2.421  0.00  0.00    -0.121 NA
ATOM     26  N   UNL     1      -1.602   2.314  -3.332  0.00  0.00    -0.126 NA
ATOM     27  C   UNL     1      -2.162   2.325  -4.521  0.00  0.00    +0.188 A 
ATOM     28  N   UNL     1      -3.524   2.274  -4.325  0.00  0.00    -0.223 N 
BRANCH  27  29
ATOM     29  C   UNL     1      -1.466   2.382  -5.817  0.00  0.00    +0.058 A 
ATOM     30  C   UNL     1      -0.161   2.714  -6.083  0.00  0.00    +0.019 A 
ATOM     31  C   UNL     1       0.272   2.693  -7.390  0.00  0.00    +0.008 A 
ATOM     32  C   UNL     1      -0.603   2.357  -8.372  0.00  0.00    +0.046 A 
ATOM     33  S   UNL     1      -2.100   2.046  -7.451  0.00  0.00    -0.093 S 
ENDBRANCH  27  29
BRANCH  28  34
ATOM     34  N   UNL     1      -4.497   2.268  -5.284  0.00  0.00    -0.295 N 
ATOM     35  H   UNL     1      -4.789   3.207  -5.509  0.00  0.00    +0.163 HD
ATOM     36  H   UNL     1      -4.187   1.778  -6.110  0.00  0.00    +0.163 HD
ENDBRANCH  28  34
ENDBRANCH  23  24
ENDBRANCH  22  23
ENDBRANCH   2  22
TORSDOF 9
