REMARK  Name = ZINC50060660
REMARK  3 active torsions:
REMARK  status: ('A' for Active; 'I' for Inactive)
REMARK    1  A    between atoms: C_1  and  C_2
REMARK    2  A    between atoms: C_12  and  C_14
REMARK    3  A    between atoms: N_21  and  C_22
REMARK                            x       y       z     vdW  Elec       q    Type
REMARK                         _______ _______ _______ _____ _____    ______ ____
ROOT
ATOM      1  C   UNL     1      -0.018   1.503   0.010  0.00  0.00    +0.061 C 
ATOM      2  C   UNL     1       0.002  -0.004   0.002  0.00  0.00    +0.028 C 
ATOM      3  C   UNL     1      -1.298  -0.765   0.004  0.00  0.00    +0.147 C 
ATOM      4  C   UNL     1      -1.084  -2.124   0.627  0.00  0.00    +0.229 C 
ATOM      5  O   UNL     1      -1.985  -2.683   1.216  0.00  0.00    -0.275 OA
ATOM      6  N   UNL     1       0.124  -2.705   0.514  0.00  0.00    -0.218 N 
ATOM      7  C   UNL     1       1.184  -1.984  -0.001  0.00  0.00    +0.229 C 
ATOM      8  N   UNL     1       1.137  -0.628  -0.012  0.00  0.00    -0.223 NA
ATOM      9  N   UNL     1       2.214  -2.630  -0.505  0.00  0.00    -0.183 NA
ATOM     10  C   UNL     1       2.232  -3.975  -0.539  0.00  0.00    +0.194 C 
ATOM     11  N   UNL     1       1.364  -4.701   0.109  0.00  0.00    -0.339 N 
ATOM     12  C   UNL     1       0.357  -4.076   0.974  0.00  0.00    +0.183 C 
ATOM     13  N   UNL     1       3.204  -4.609  -1.286  0.00  0.00    -0.312 N 
ATOM     14  H   UNL     1       3.233  -5.578  -1.322  0.00  0.00    +0.149 HD
ATOM     15  H   UNL     1       1.384  -5.667   0.018  0.00  0.00    +0.164 HD
ENDROOT
BRANCH  12  16
ATOM     16  C   UNL     1       0.864  -4.054   2.417  0.00  0.00    +0.034 C 
ATOM     17  C   UNL     1      -0.186  -3.396   3.322  0.00  0.00    +0.011 C 
ATOM     18  C   UNL     1       0.417  -3.227   4.718  0.00  0.00    +0.027 C 
ATOM     19  C   UNL     1       1.034  -4.516   5.175  0.00  0.00    -0.031 C 
ATOM     20  C   UNL     1       1.331  -5.498   4.385  0.00  0.00    -0.031 C 
ATOM     21  C   UNL     1       1.097  -5.487   2.902  0.00  0.00    +0.034 C 
ENDBRANCH  12  16
BRANCH  13  22
ATOM     22  C   UNL     1       4.192  -3.819  -2.025  0.00  0.00    +0.073 C 
ATOM     23  C   UNL     1       3.614  -3.421  -3.384  0.00  0.00    +0.022 C 
ATOM     24  C   UNL     1       4.646  -2.596  -4.155  0.00  0.00    +0.002 C 
ATOM     25  C   UNL     1       5.912  -3.428  -4.364  0.00  0.00    +0.000 C 
ATOM     26  C   UNL     1       6.491  -3.826  -3.004  0.00  0.00    +0.002 C 
ATOM     27  C   UNL     1       5.459  -4.652  -2.233  0.00  0.00    +0.022 C 
ENDBRANCH  13  22
TORSDOF 2
