REMARK  Name = ZINC39637043
REMARK  10 active torsions:
REMARK  status: ('A' for Active; 'I' for Inactive)
REMARK    1  A    between atoms: C_1  and  O_2
REMARK    2  A    between atoms: O_2  and  C_3
REMARK    3  A    between atoms: C_5  and  C_13
REMARK    4  A    between atoms: C_7  and  O_11
REMARK    5  A    between atoms: C_8  and  O_9
REMARK    6  A    between atoms: O_9  and  C_10
REMARK    7  A    between atoms: O_11  and  C_12
REMARK    8  A    between atoms: C_13  and  N_14
REMARK    9  A    between atoms: C_15  and  C_17
REMARK   10  A    between atoms: C_28  and  C_30
REMARK                            x       y       z     vdW  Elec       q    Type
REMARK                         _______ _______ _______ _____ _____    ______ ____
ROOT
ATOM      1  C   UNL     1      -7.172   1.204  -3.347  0.00  0.00    +0.100 C 
ATOM      2  C   UNL     1      -6.072   2.161  -3.859  0.00  0.00    +0.121 C 
ATOM      3  N   UNL     1      -6.806   3.200  -4.620  0.00  0.00    -0.296 N 
ATOM      4  C   UNL     1      -8.030   3.447  -3.821  0.00  0.00    +0.115 C 
ATOM      5  C   UNL     1      -8.454   2.052  -3.323  0.00  0.00    -0.004 C 
ATOM      6  C   UNL     1      -9.501   1.453  -4.258  0.00  0.00    -0.010 C 
ATOM      7  C   UNL     1     -10.786   2.281  -4.174  0.00  0.00    -0.082 C 
ATOM      8  N   UNL     1     -11.280   2.283  -2.792  0.00  0.00    +0.379 N 
ATOM      9  C   UNL     1     -10.307   2.944  -1.913  0.00  0.00    -0.082 C 
ATOM     10  C   UNL     1      -9.001   2.144  -1.902  0.00  0.00    -0.010 C 
ATOM     11  C   UNL     1      -6.442   3.787  -5.778  0.00  0.00    +0.248 C 
ATOM     12  O   UNL     1      -7.109   4.696  -6.235  0.00  0.00    -0.270 OA
ATOM     13  H   UNL     1     -12.158   2.778  -2.750  0.00  0.00    -0.086 HD
ATOM     14  H   UNL     1     -11.418   1.332  -2.484  0.00  0.00    -0.086 HD
ENDROOT
BRANCH  11  15
ATOM     15  C   UNL     1      -5.240   3.329  -6.487  0.00  0.00    +0.052 A 
ATOM     16  C   UNL     1      -4.150   2.889  -5.807  0.00  0.00    +0.059 A 
ATOM     17  S   UNL     1      -3.029   2.471  -6.982  0.00  0.00    -0.096 S 
ATOM     18  C   UNL     1      -3.950   2.860  -8.445  0.00  0.00    +0.020 A 
ATOM     19  C   UNL     1      -5.182   3.327  -7.951  0.00  0.00    +0.001 A 
ATOM     20  C   UNL     1      -6.150   3.718  -8.896  0.00  0.00    +0.010 A 
ATOM     21  C   UNL     1      -5.883   3.633 -10.239  0.00  0.00    +0.001 A 
ATOM     22  C   UNL     1      -4.662   3.164 -10.701  0.00  0.00    +0.001 A 
ATOM     23  C   UNL     1      -3.689   2.784  -9.797  0.00  0.00    +0.015 A 
ENDBRANCH  11  15
BRANCH   1  25
ATOM     24  N   UNL     1      -7.272  -0.490  -1.547  0.00  0.00    -0.311 N 
ATOM     25  C   UNL     1      -6.839   0.717  -1.960  0.00  0.00    +0.218 C 
ATOM     26  O   UNL     1      -6.180   1.412  -1.215  0.00  0.00    -0.275 OA
ATOM     27  H   UNL     1      -7.799  -1.046  -2.143  0.00  0.00    +0.149 HD
BRANCH  24  28
ATOM     28  C   UNL     1      -6.949  -0.964  -0.199  0.00  0.00    +0.139 C 
BRANCH  28  31
ATOM     29  C   UNL     1      -7.364  -4.719  -0.119  0.00  0.00    +0.165 A 
ATOM     30  C   UNL     1      -6.817  -3.460  -0.311  0.00  0.00    +0.054 A 
ATOM     31  C   UNL     1      -7.547  -2.331   0.011  0.00  0.00    -0.023 A 
ATOM     32  C   UNL     1      -8.824  -2.453   0.524  0.00  0.00    +0.054 A 
ATOM     33  C   UNL     1      -9.378  -3.709   0.719  0.00  0.00    +0.165 A 
ATOM     34  C   UNL     1      -8.650  -4.846   0.392  0.00  0.00    +0.204 A 
BRANCH  29  36
ATOM     35  C   UNL     1      -5.330  -5.623  -0.957  0.00  0.00    +0.277 C 
ATOM     36  O   UNL     1      -6.644  -5.829  -0.436  0.00  0.00    -0.491 OA
ENDBRANCH  29  36
BRANCH  34  37
ATOM     37  O   UNL     1      -9.192  -6.081   0.576  0.00  0.00    -0.488 OA
ATOM     38  C   UNL     1      -8.978  -6.700   1.846  0.00  0.00    +0.277 C 
ENDBRANCH  34  37
BRANCH  33  39
ATOM     39  O   UNL     1     -10.635  -3.828   1.226  0.00  0.00    -0.491 OA
ATOM     40  C   UNL     1     -11.327  -2.617   1.534  0.00  0.00    +0.277 C 
ENDBRANCH  33  39
ENDBRANCH  28  31
ENDBRANCH  24  28
ENDBRANCH   1  25
TORSDOF 7
