REMARK  Name = ZINC16676567
REMARK  12 active torsions:
REMARK  status: ('A' for Active; 'I' for Inactive)
REMARK    1  A    between atoms: C_1  and  C_2
REMARK    2  A    between atoms: C_2  and  C_32
REMARK    3  A    between atoms: N_7  and  C_10
REMARK    4  A    between atoms: C_13  and  O_30
REMARK    5  A    between atoms: C_14  and  S_16
REMARK    6  A    between atoms: S_16  and  N_19
REMARK    7  A    between atoms: N_19  and  C_20
REMARK    8  A    between atoms: C_25  and  C_26
REMARK    9  A    between atoms: C_26  and  C_27
REMARK   10  A    between atoms: C_26  and  C_28
REMARK   11  A    between atoms: C_26  and  C_29
REMARK   12  A    between atoms: O_30  and  C_31
REMARK                            x       y       z     vdW  Elec       q    Type
REMARK                         _______ _______ _______ _____ _____    ______ ____
ROOT
ATOM      1  C   UNL     1      -0.110   3.574  -0.922  0.00  0.00    +0.061 A 
ATOM      2  C   UNL     1      -1.244   2.773  -0.955  0.00  0.00    +0.029 A 
ATOM      3  C   UNL     1      -1.134   1.413  -0.751  0.00  0.00    +0.049 A 
ATOM      4  C   UNL     1       0.107   0.847  -0.501  0.00  0.00    +0.147 A 
ATOM      5  C   UNL     1       1.240   1.646  -0.467  0.00  0.00    +0.152 A 
ATOM      6  C   UNL     1       1.133   3.006  -0.677  0.00  0.00    +0.057 A 
ENDROOT
BRANCH   1  13
ATOM      7  C   UNL     1       1.608   8.068  -1.313  0.00  0.00    +0.022 C 
ATOM      8  C   UNL     1       0.432   7.214  -1.792  0.00  0.00    +0.064 C 
ATOM      9  C   UNL     1      -0.837   7.565  -0.971  0.00  0.00    +0.205 C 
ATOM     10  S   UNL     1      -1.587   5.886  -0.871  0.00  0.00    +0.053 S 
ATOM     11  O   UNL     1      -2.439   5.642  -1.982  0.00  0.00    -0.155 OA
ATOM     12  O   UNL     1      -2.000   5.595   0.457  0.00  0.00    -0.155 OA
ATOM     13  N   UNL     1      -0.221   4.955  -1.134  0.00  0.00    -0.143 N 
ATOM     14  C   UNL     1       0.748   5.763  -1.591  0.00  0.00    +0.246 C 
ATOM     15  O   UNL     1       1.854   5.329  -1.835  0.00  0.00    -0.273 OA
ATOM     16  C   UNL     1       0.175   7.484  -3.276  0.00  0.00    +0.022 C 
ENDBRANCH   1  13
BRANCH   5  17
ATOM     17  S   UNL     1       2.818   0.925  -0.157  0.00  0.00    +0.076 S 
ATOM     18  O   UNL     1       2.906  -0.230  -0.980  0.00  0.00    -0.150 OA
ATOM     19  O   UNL     1       3.767   1.980  -0.222  0.00  0.00    -0.150 OA
BRANCH  17  20
ATOM     20  N   UNL     1       2.812   0.389   1.410  0.00  0.00    -0.216 N 
ATOM     21  H   UNL     1       3.402   0.796   2.064  0.00  0.00    +0.174 HD
BRANCH  20  22
ATOM     22  C   UNL     1       1.957  -0.648   1.790  0.00  0.00    +0.052 A 
ATOM     23  C   UNL     1       2.042  -1.885   1.164  0.00  0.00    +0.025 A 
ATOM     24  C   UNL     1       1.199  -2.910   1.545  0.00  0.00    +0.002 A 
ATOM     25  C   UNL     1       0.264  -2.703   2.543  0.00  0.00    +0.000 A 
ATOM     26  C   UNL     1       0.173  -1.471   3.165  0.00  0.00    +0.006 A 
ATOM     27  C   UNL     1       1.017  -0.444   2.792  0.00  0.00    -0.020 A 
BRANCH  27  28
ATOM     28  C   UNL     1       0.917   0.898   3.470  0.00  0.00    -0.011 C 
ATOM     29  C   UNL     1      -0.278   0.900   4.425  0.00  0.00    +0.015 C 
ATOM     30  C   UNL     1       2.200   1.168   4.259  0.00  0.00    +0.015 C 
ATOM     31  C   UNL     1       0.729   1.990   2.416  0.00  0.00    +0.015 C 
ENDBRANCH  27  28
ENDBRANCH  20  22
ENDBRANCH  17  20
ENDBRANCH   5  17
BRANCH   4  32
ATOM     32  O   UNL     1       0.214  -0.493  -0.294  0.00  0.00    -0.493 OA
ATOM     33  C   UNL     1      -0.993  -1.256  -0.343  0.00  0.00    +0.277 C 
ENDBRANCH   4  32
TORSDOF 6
