REMARK  Name = ZINC14118355
REMARK  6 active torsions:
REMARK  status: ('A' for Active; 'I' for Inactive)
REMARK    1  A    between atoms: C_3  and  O_9
REMARK    2  A    between atoms: C_6  and  C_7
REMARK    3  A    between atoms: O_9  and  C_10
REMARK    4  A    between atoms: C_10  and  C_11
REMARK    5  A    between atoms: N_13  and  N_14
REMARK    6  A    between atoms: C_15  and  C_17
REMARK                            x       y       z     vdW  Elec       q    Type
REMARK                         _______ _______ _______ _____ _____    ______ ____
ROOT
ATOM      1  N   UNL     1      -2.909  -1.612   1.686  0.00  0.00    -0.234 N 
ATOM      2  C   UNL     1      -1.762  -0.951   1.432  0.00  0.00    +0.237 C 
ATOM      3  O   UNL     1      -1.107  -0.500   2.348  0.00  0.00    -0.274 OA
ATOM      4  H   UNL     1      -3.433  -1.973   0.953  0.00  0.00    +0.173 HD
ENDROOT
BRANCH   2   5
ATOM      5  C   UNL     1      -1.295  -0.771   0.011  0.00  0.00    +0.117 C 
ATOM      6  C   UNL     1      -2.351   0.002  -0.779  0.00  0.00    +0.113 C 
ATOM      7  C   UNL     1      -2.373   1.440  -0.335  0.00  0.00    +0.218 C 
ATOM      8  O   UNL     1      -3.426   2.041  -0.301  0.00  0.00    -0.275 OA
ATOM      9  N   UNL     1      -1.238   2.066   0.031  0.00  0.00    -0.285 N 
ATOM     10  C   UNL     1      -0.017   1.385   0.010  0.00  0.00    +0.040 A 
ATOM     11  C   UNL     1       0.002  -0.004   0.002  0.00  0.00    -0.014 A 
ATOM     12  C   UNL     1       1.207  -0.678  -0.013  0.00  0.00    +0.009 A 
ATOM     13  C   UNL     1       2.396   0.028  -0.021  0.00  0.00    +0.039 A 
ATOM     14  C   UNL     1       2.382   1.413  -0.013  0.00  0.00    +0.125 A 
ATOM     15  C   UNL     1       1.177   2.093   0.002  0.00  0.00    +0.062 A 
ATOM     16  F   UNL     1       3.545   2.100  -0.021  0.00  0.00    -0.205 F 
ATOM     17  H   UNL     1      -1.266   2.997   0.303  0.00  0.00    +0.155 HD
ENDBRANCH   2   5
BRANCH   1  20
ATOM     18  C   UNL     1      -4.490  -2.441   3.261  0.00  0.00    +0.267 C 
ATOM     19  O   UNL     1      -5.146  -2.892   2.345  0.00  0.00    -0.271 OA
ATOM     20  N   UNL     1      -3.344  -1.779   3.007  0.00  0.00    -0.232 N 
ATOM     21  H   UNL     1      -2.819  -1.419   3.739  0.00  0.00    +0.173 HD
BRANCH  18  22
ATOM     22  C   UNL     1      -4.958  -2.620   4.682  0.00  0.00    +0.326 C 
BRANCH  22  23
ATOM     23  O   UNL     1      -6.188  -3.348   4.691  0.00  0.00    -0.483 OA
BRANCH  23  26
ATOM     24  C   UNL     1      -8.516  -4.555   7.207  0.00  0.00    +0.022 A 
ATOM     25  C   UNL     1      -7.944  -4.300   5.980  0.00  0.00    +0.047 A 
ATOM     26  C   UNL     1      -6.748  -3.597   5.902  0.00  0.00    +0.121 A 
ATOM     27  C   UNL     1      -6.121  -3.153   7.060  0.00  0.00    +0.047 A 
ATOM     28  C   UNL     1      -6.689  -3.399   8.290  0.00  0.00    +0.022 A 
ATOM     29  C   UNL     1      -7.892  -4.105   8.374  0.00  0.00    +0.052 A 
BRANCH  29  30
ATOM     30  C   UNL     1      -8.483  -4.368   9.651  0.00  0.00    +0.099 C 
ATOM     31  N   UNL     1      -8.952  -4.577  10.665  0.00  0.00    -0.191 NA
ENDBRANCH  29  30
ENDBRANCH  23  26
ENDBRANCH  22  23
ENDBRANCH  18  22
ENDBRANCH   1  20
TORSDOF 6
