REMARK  Name = ZINC59465877
REMARK  4 active torsions:
REMARK  status: ('A' for Active; 'I' for Inactive)
REMARK    1  A    between atoms: C_3  and  N_20
REMARK    2  A    between atoms: C_5  and  C_6
REMARK    3  A    between atoms: N_7  and  C_8
REMARK    4  A    between atoms: C_9  and  C_17
REMARK                            x       y       z     vdW  Elec       q    Type
REMARK                         _______ _______ _______ _____ _____    ______ ____
ROOT
ATOM      1  C   UNL     1      -1.848  -3.054   0.004  0.00  0.00    +0.114 A 
ATOM      2  C   UNL     1      -1.828  -4.534   0.002  0.00  0.00    +0.072 A 
ATOM      3  C   UNL     1      -3.061  -5.130   0.009  0.00  0.00    -0.023 A 
ATOM      4  C   UNL     1      -4.182  -4.274   0.014  0.00  0.00    -0.004 A 
ATOM      5  S   UNL     1      -3.597  -2.711   0.025  0.00  0.00    -0.073 S 
ATOM      6  C   UNL     1      -5.621  -4.708   0.015  0.00  0.00    +0.043 C 
ATOM      7  C   UNL     1      -5.675  -6.191  -0.374  0.00  0.00    +0.005 C 
ATOM      8  C   UNL     1      -4.663  -6.967   0.471  0.00  0.00    +0.005 C 
ATOM      9  C   UNL     1      -3.240  -6.647   0.011  0.00  0.00    +0.037 C 
ENDROOT
BRANCH   2  10
ATOM     10  C   UNL     1      -0.569  -5.311  -0.006  0.00  0.00    +0.244 C 
ATOM     11  O   UNL     1      -0.046  -5.633   1.042  0.00  0.00    -0.270 OA
ATOM     12  N   UNL     1      -0.003  -5.664  -1.178  0.00  0.00    -0.325 N 
ATOM     13  H   UNL     1      -0.420  -5.407  -2.015  0.00  0.00    +0.145 HD
ATOM     14  H   UNL     1       0.823  -6.174  -1.184  0.00  0.00    +0.145 HD
ENDBRANCH   2  10
BRANCH   1  16
ATOM     15  C   UNL     1      -1.064  -0.893   0.008  0.00  0.00    +0.127 C 
ATOM     16  N   UNL     1      -0.836  -2.210  -0.001  0.00  0.00    -0.247 NA
BRANCH  15  21
ATOM     17  C   UNL     1      -0.017   1.419   0.010  0.00  0.00    +0.019 A 
ATOM     18  C   UNL     1       1.186   2.016   0.002  0.00  0.00    +0.041 A 
ATOM     19  C   UNL     1       2.332   1.229  -0.014  0.00  0.00    +0.164 A 
ATOM     20  S   UNL     1       1.752  -0.348  -0.017  0.00  0.00    -0.064 S 
ATOM     21  C   UNL     1       0.002  -0.004   0.002  0.00  0.00    +0.032 A 
BRANCH  19  22
ATOM     22  N   UNL     1       3.743   1.679  -0.025  0.00  0.00    +0.063 N 
ATOM     23  O   UNL     1       4.024   2.965  -0.021  0.00  0.00    -0.126 OA
ATOM     24  O   UNL     1       4.716   0.792  -0.039  0.00  0.00    -0.126 OA
ENDBRANCH  19  22
ENDBRANCH  15  21
ENDBRANCH   1  16
TORSDOF 4
