REMARK  Name = ZINC67249961
REMARK  4 active torsions:
REMARK  status: ('A' for Active; 'I' for Inactive)
REMARK    1  A    between atoms: C_1  and  C_2
REMARK    2  A    between atoms: C_5  and  N_25
REMARK    3  A    between atoms: C_7  and  N_8
REMARK    4  A    between atoms: C_15  and  C_18
REMARK                            x       y       z     vdW  Elec       q    Type
REMARK                         _______ _______ _______ _____ _____    ______ ____
ROOT
ATOM      1  N   UNL     1       0.025  -0.015   2.417  0.00  0.00    -0.269 N 
ATOM      2  C   UNL     1      -0.056  -0.694   3.578  0.00  0.00    +0.307 C 
ATOM      3  O   UNL     1      -0.040  -1.910   3.573  0.00  0.00    -0.252 OA
ATOM      4  N   UNL     1      -0.156  -0.026   4.745  0.00  0.00    -0.280 N 
ATOM      5  C   UNL     1      -0.294   1.438   4.769  0.00  0.00    +0.137 C 
ATOM      6  C   UNL     1       0.751   2.006   5.737  0.00  0.00    +0.179 C 
ATOM      7  O   UNL     1       0.639   1.337   6.996  0.00  0.00    -0.369 OA
ATOM      8  C   UNL     1       0.905  -0.067   6.938  0.00  0.00    +0.166 C 
ATOM      9  C   UNL     1      -0.137  -0.741   6.031  0.00  0.00    +0.145 C 
ATOM     10  H   UNL     1       0.054   0.955   2.424  0.00  0.00    +0.156 HD
ENDROOT
BRANCH   1  17
ATOM     11  C   UNL     1      -0.943   1.299   0.086  0.00  0.00    +0.045 C 
ATOM     12  C   UNL     1      -0.395  -0.104   0.040  0.00  0.00    -0.029 A 
ATOM     13  C   UNL     1      -0.346  -0.789  -1.159  0.00  0.00    +0.007 A 
ATOM     14  C   UNL     1       0.158  -2.075  -1.201  0.00  0.00    +0.033 A 
ATOM     15  C   UNL     1       0.615  -2.681  -0.045  0.00  0.00    +0.128 A 
ATOM     16  C   UNL     1       0.568  -2.002   1.157  0.00  0.00    +0.056 A 
ATOM     17  C   UNL     1       0.068  -0.708   1.202  0.00  0.00    +0.040 A 
BRANCH  15  18
ATOM     18  N   UNL     1       1.153  -4.059  -0.095  0.00  0.00    +0.056 N 
ATOM     19  O   UNL     1       1.194  -4.654  -1.147  0.00  0.00    -0.126 OA
ATOM     20  O   UNL     1       1.552  -4.589   0.915  0.00  0.00    -0.126 OA
ENDBRANCH  15  18
ENDBRANCH   1  17
BRANCH   8  21
ATOM     21  C   UNL     1       0.820  -0.653   8.323  0.00  0.00    -0.015 A 
ATOM     22  C   UNL     1      -0.172  -0.235   9.191  0.00  0.00    +0.006 A 
ATOM     23  C   UNL     1      -0.252  -0.772  10.462  0.00  0.00    +0.003 A 
ATOM     24  C   UNL     1       0.661  -1.727  10.868  0.00  0.00    +0.038 A 
ATOM     25  C   UNL     1       1.656  -2.146  10.000  0.00  0.00    +0.124 A 
ATOM     26  C   UNL     1       1.730  -1.612   8.725  0.00  0.00    +0.044 A 
ATOM     27  F   UNL     1       2.549  -3.079  10.396  0.00  0.00    -0.205 F 
ENDBRANCH   8  21
TORSDOF 3
