REMARK  Name = ZINC22058780
REMARK  5 active torsions:
REMARK  status: ('A' for Active; 'I' for Inactive)
REMARK    1  A    between atoms: C_1  and  C_2
REMARK    2  A    between atoms: C_2  and  C_3
REMARK    3  A    between atoms: C_25  and  C_26
REMARK    4  A    between atoms: C_25  and  O_28
REMARK    5  A    between atoms: C_26  and  C_27
REMARK                            x       y       z     vdW  Elec       q    Type
REMARK                         _______ _______ _______ _____ _____    ______ ____
ROOT
ATOM      1  C   UNL     1       0.002  -0.004   0.002  0.00  0.00    -0.031 A 
ATOM      2  C   UNL     1       1.254  -0.652  -0.012  0.00  0.00    +0.004 A 
ATOM      3  C   UNL     1       1.350  -2.052  -0.019  0.00  0.00    +0.010 A 
ATOM      4  C   UNL     1       2.578  -2.642  -0.032  0.00  0.00    +0.001 A 
ATOM      5  C   UNL     1       3.741  -1.875  -0.040  0.00  0.00    +0.002 A 
ATOM      6  C   UNL     1       3.685  -0.515  -0.034  0.00  0.00    +0.028 A 
ATOM      7  C   UNL     1       2.435   0.132  -0.020  0.00  0.00    +0.072 A 
ATOM      8  N   UNL     1       2.354   1.463  -0.013  0.00  0.00    -0.245 NA
ATOM      9  C   UNL     1       1.185   2.084   0.002  0.00  0.00    +0.093 A 
ATOM     10  C   UNL     1      -0.016   1.355   0.009  0.00  0.00    +0.003 A 
ATOM     11  C   UNL     1      -1.137   2.363   0.032  0.00  0.00    +0.163 C 
ATOM     12  N   UNL     1      -0.506   3.689   0.029  0.00  0.00    -0.302 N 
ATOM     13  C   UNL     1       0.851   3.528   0.014  0.00  0.00    +0.071 A 
ATOM     14  C   UNL     1       1.673   4.633   0.017  0.00  0.00    +0.035 A 
ATOM     15  C   UNL     1       1.123   5.922   0.025  0.00  0.00    +0.008 A 
ATOM     16  C   UNL     1      -0.229   6.071   0.029  0.00  0.00    +0.061 A 
ATOM     17  C   UNL     1      -1.047   4.922   0.041  0.00  0.00    +0.259 A 
ATOM     18  O   UNL     1      -2.261   5.047   0.063  0.00  0.00    -0.267 OA
ATOM     19  C   UNL     1      -0.892   7.423   0.015  0.00  0.00    +0.273 C 
ATOM     20  O   UNL     1       0.055   8.462   0.376  0.00  0.00    -0.457 OA
ATOM     21  C   UNL     1       1.262   8.364  -0.228  0.00  0.00    +0.344 C 
ATOM     22  O   UNL     1       1.683   9.238  -0.948  0.00  0.00    -0.247 OA
ATOM     23  C   UNL     1       2.056   7.107   0.041  0.00  0.00    +0.188 C 
ENDROOT
BRANCH   1  25
ATOM     24  C   UNL     1      -1.726  -1.056  -1.432  0.00  0.00    +0.009 C 
ATOM     25  C   UNL     1      -1.280  -0.796   0.008  0.00  0.00    +0.033 C 
ENDBRANCH   1  25
BRANCH  23  26
ATOM     26  C   UNL     1       2.730   7.208   1.411  0.00  0.00    +0.048 C 
ATOM     27  C   UNL     1       3.579   8.479   1.468  0.00  0.00    +0.007 C 
ENDBRANCH  23  26
BRANCH  23  28
ATOM     28  O   UNL     1       3.052   6.944  -0.971  0.00  0.00    -0.373 OA
ATOM     29  H   UNL     1       3.825   7.714  -1.110  0.00  0.00    +0.211 HD
ENDBRANCH  23  28
TORSDOF 3
