REMARK  Name = ZINC66227114
REMARK  12 active torsions:
REMARK  status: ('A' for Active; 'I' for Inactive)
REMARK    1  A    between atoms: C_1  and  C_2
REMARK    2  A    between atoms: C_2  and  C_3
REMARK    3  A    between atoms: C_2  and  C_4
REMARK    4  A    between atoms: C_4  and  C_5
REMARK    5  A    between atoms: C_5  and  O_6
REMARK    6  A    between atoms: O_6  and  C_7
REMARK    7  A    between atoms: C_10  and  N_13
REMARK    8  A    between atoms: N_13  and  C_14
REMARK    9  A    between atoms: C_14  and  C_15
REMARK   10  A    between atoms: N_17  and  C_18
REMARK   11  A    between atoms: C_22  and  N_24
REMARK   12  A    between atoms: C_25  and  C_27
REMARK                            x       y       z     vdW  Elec       q    Type
REMARK                         _______ _______ _______ _____ _____    ______ ____
ROOT
ATOM      1  C   UNL     1      -8.626   0.450  -7.056  0.00  0.00    +0.234 C 
ATOM      2  O   UNL     1      -7.979   1.099  -7.851  0.00  0.00    -0.274 OA
ATOM      3  N   UNL     1      -9.902   0.118  -7.337  0.00  0.00    -0.284 N 
ATOM      4  H   UNL     1     -10.398  -0.457  -6.734  0.00  0.00    +0.155 HD
ENDROOT
BRANCH   3   5
ATOM      5  C   UNL     1     -10.511   0.603  -8.500  0.00  0.00    +0.035 A 
ATOM      6  C   UNL     1     -11.861   0.928  -8.493  0.00  0.00    +0.023 A 
ATOM      7  C   UNL     1     -12.464   1.407  -9.641  0.00  0.00    +0.004 A 
ATOM      8  C   UNL     1     -11.726   1.564 -10.798  0.00  0.00    +0.023 A 
ATOM      9  C   UNL     1     -10.374   1.241 -10.811  0.00  0.00    +0.036 A 
ATOM     10  C   UNL     1      -9.765   0.765  -9.659  0.00  0.00    +0.046 A 
BRANCH   9  11
ATOM     11  N   UNL     1      -9.628   1.399 -11.983  0.00  0.00    -0.279 N 
ATOM     12  C   UNL     1      -9.894   2.423 -12.818  0.00  0.00    +0.284 C 
ATOM     13  O   UNL     1     -10.837   3.160 -12.596  0.00  0.00    -0.266 OA
ATOM     14  H   UNL     1      -8.918   0.773 -12.195  0.00  0.00    +0.155 HD
BRANCH  12  15
ATOM     15  C   UNL     1      -9.048   2.650 -13.994  0.00  0.00    +0.189 A 
ATOM     16  C   UNL     1      -9.202   3.647 -14.913  0.00  0.00    +0.054 A 
ATOM     17  C   UNL     1      -8.178   3.485 -15.860  0.00  0.00    +0.042 A 
ATOM     18  C   UNL     1      -7.453   2.409 -15.481  0.00  0.00    +0.196 A 
ATOM     19  O   UNL     1      -7.977   1.912 -14.353  0.00  0.00    -0.458 OA
ENDBRANCH  12  15
ENDBRANCH   9  11
ENDBRANCH   3   5
BRANCH   1  20
ATOM     20  C   UNL     1      -8.003   0.014  -5.755  0.00  0.00    +0.198 C 
BRANCH  20  21
ATOM     21  N   UNL     1      -6.621   0.495  -5.689  0.00  0.00    -0.335 N 
ATOM     22  H   UNL     1      -6.252   1.010  -6.423  0.00  0.00    +0.147 HD
BRANCH  21  26
ATOM     23  C   UNL     1      -4.278  -0.345  -2.346  0.00  0.00    +0.121 A 
ATOM     24  C   UNL     1      -3.749   0.391  -3.396  0.00  0.00    +0.047 A 
ATOM     25  C   UNL     1      -4.524   0.669  -4.504  0.00  0.00    +0.026 A 
ATOM     26  C   UNL     1      -5.834   0.213  -4.567  0.00  0.00    +0.028 A 
ATOM     27  C   UNL     1      -6.363  -0.524  -3.515  0.00  0.00    +0.026 A 
ATOM     28  C   UNL     1      -5.584  -0.806  -2.410  0.00  0.00    +0.047 A 
BRANCH  23  29
ATOM     29  O   UNL     1      -3.513  -0.620  -1.255  0.00  0.00    -0.492 OA
BRANCH  29  30
ATOM     30  C   UNL     1      -2.177  -0.114  -1.256  0.00  0.00    +0.229 C 
BRANCH  30  31
ATOM     31  C   UNL     1      -1.477  -0.519   0.043  0.00  0.00    +0.044 C 
BRANCH  31  33
ATOM     32  C   UNL     1      -0.080   1.552   0.061  0.00  0.00    +0.007 C 
ATOM     33  C   UNL     1      -0.046   0.022   0.042  0.00  0.00    -0.014 C 
ATOM     34  C   UNL     1       0.693  -0.487   1.281  0.00  0.00    +0.007 C 
ENDBRANCH  31  33
ENDBRANCH  30  31
ENDBRANCH  29  30
ENDBRANCH  23  29
ENDBRANCH  21  26
ENDBRANCH  20  21
ENDBRANCH   1  20
TORSDOF 10
