REMARK  Name = ZINC16066724
REMARK  6 active torsions:
REMARK  status: ('A' for Active; 'I' for Inactive)
REMARK    1  A    between atoms: N_9  and  C_10
REMARK    2  A    between atoms: C_10  and  C_11
REMARK    3  A    between atoms: C_14  and  C_17
REMARK    4  A    between atoms: N_19  and  C_20
REMARK    5  A    between atoms: C_20  and  C_21
REMARK    6  A    between atoms: C_21  and  C_22
REMARK                            x       y       z     vdW  Elec       q    Type
REMARK                         _______ _______ _______ _____ _____    ______ ____
ROOT
ATOM      1  C   UNL     1       3.220  -0.390  -1.452  0.00  0.00    -0.026 A 
ATOM      2  C   UNL     1       2.185  -1.047  -2.093  0.00  0.00    +0.006 A 
ATOM      3  C   UNL     1       2.334  -1.466  -3.399  0.00  0.00    +0.013 A 
ATOM      4  C   UNL     1       3.536  -1.234  -4.070  0.00  0.00    +0.037 A 
ATOM      5  C   UNL     1       4.578  -0.575  -3.416  0.00  0.00    +0.013 A 
ATOM      6  C   UNL     1       4.414  -0.157  -2.111  0.00  0.00    +0.006 A 
ENDROOT
BRANCH   4   7
ATOM      7  C   UNL     1       3.704  -1.685  -5.468  0.00  0.00    +0.244 C 
ATOM      8  O   UNL     1       4.752  -1.481  -6.050  0.00  0.00    -0.270 OA
ATOM      9  N   UNL     1       2.696  -2.321  -6.097  0.00  0.00    -0.311 N 
ATOM     10  H   UNL     1       1.861  -2.483  -5.633  0.00  0.00    +0.149 HD
BRANCH   9  11
ATOM     11  C   UNL     1       2.863  -2.768  -7.482  0.00  0.00    +0.109 C 
BRANCH  11  12
ATOM     12  C   UNL     1       1.581  -3.455  -7.955  0.00  0.00    +0.049 C 
BRANCH  12  13
ATOM     13  C   UNL     1       1.752  -3.915  -9.380  0.00  0.00    -0.072 C 
ATOM     14  C   UNL     1       2.129  -5.136  -9.582  0.00  0.00    -0.028 C 
ATOM     15  C   UNL     1       2.351  -5.733 -10.941  0.00  0.00    +0.027 C 
ATOM     16  C   UNL     1       1.680  -4.870 -12.012  0.00  0.00    +0.004 C 
ATOM     17  C   UNL     1       2.094  -3.410 -11.789  0.00  0.00    +0.005 C 
ATOM     18  C   UNL     1       1.470  -2.929 -10.475  0.00  0.00    +0.030 C 
ENDBRANCH  12  13
ENDBRANCH  11  12
ENDBRANCH   9  11
ENDBRANCH   4   7
BRANCH   1  19
ATOM     19  C   UNL     1       3.048   0.070  -0.027  0.00  0.00    +0.181 C 
BRANCH  19  28
ATOM     20  C   UNL     1      -1.235   3.134   0.030  0.00  0.00    +0.002 A 
ATOM     21  C   UNL     1      -1.204   1.745   0.017  0.00  0.00    +0.002 A 
ATOM     22  C   UNL     1      -0.013   1.076   0.008  0.00  0.00    +0.029 A 
ATOM     23  C   UNL     1       1.181   1.790   0.000  0.00  0.00    +0.089 A 
ATOM     24  C   UNL     1       1.157   3.195   0.008  0.00  0.00    +0.113 A 
ATOM     25  C   UNL     1      -0.078   3.857   0.023  0.00  0.00    +0.032 A 
ATOM     26  N   UNL     1       2.434   3.626  -0.002  0.00  0.00    -0.129 NA
ATOM     27  N   UNL     1       3.243   2.626  -0.015  0.00  0.00    -0.064 NA
ATOM     28  N   UNL     1       2.508   1.431  -0.014  0.00  0.00    -0.240 N 
ENDBRANCH  19  28
ENDBRANCH   1  19
TORSDOF 6
