REMARK  Name = ZINC06960371
REMARK  6 active torsions:
REMARK  status: ('A' for Active; 'I' for Inactive)
REMARK    1  A    between atoms: C_1  and  C_2
REMARK    2  A    between atoms: C_3  and  C_26
REMARK    3  A    between atoms: C_9  and  C_18
REMARK    4  A    between atoms: C_21  and  C_24
REMARK    5  A    between atoms: C_26  and  O_28
REMARK    6  A    between atoms: O_28  and  C_29
REMARK                            x       y       z     vdW  Elec       q    Type
REMARK                         _______ _______ _______ _____ _____    ______ ____
ROOT
ATOM      1  C   UNL     1       1.690   3.010  -0.220  0.00  0.00    +0.046 C 
ATOM      2  C   UNL     1       0.251   2.635   0.030  0.00  0.00    -0.015 A 
ATOM      3  C   UNL     1      -0.151   1.307  -0.091  0.00  0.00    +0.064 A 
ATOM      4  C   UNL     1      -1.486   0.970   0.142  0.00  0.00    +0.015 A 
ATOM      5  C   UNL     1      -2.391   1.950   0.484  0.00  0.00    +0.007 A 
ATOM      6  C   UNL     1      -1.993   3.276   0.612  0.00  0.00    -0.019 A 
ATOM      7  C   UNL     1      -0.669   3.617   0.382  0.00  0.00    +0.035 A 
ATOM      8  N   UNL     1      -0.212   4.931   0.488  0.00  0.00    -0.336 N 
ATOM      9  C   UNL     1      -1.030   5.728   1.403  0.00  0.00    +0.105 C 
ATOM     10  C   UNL     1      -2.482   5.725   0.922  0.00  0.00    +0.029 C 
ATOM     11  C   UNL     1      -3.033   4.285   0.999  0.00  0.00    +0.049 C 
ATOM     12  C   UNL     1      -3.426   4.116   2.448  0.00  0.00    -0.023 C 
ATOM     13  C   UNL     1      -3.597   5.284   3.015  0.00  0.00    -0.030 C 
ATOM     14  C   UNL     1      -3.350   6.401   2.021  0.00  0.00    +0.033 C 
ATOM     15  H   UNL     1      -0.156   5.369  -0.420  0.00  0.00    +0.147 HD
ENDROOT
BRANCH   9  16
ATOM     16  C   UNL     1      -0.958   5.134   2.787  0.00  0.00    -0.027 A 
ATOM     17  C   UNL     1      -1.310   5.900   3.884  0.00  0.00    +0.006 A 
ATOM     18  C   UNL     1      -1.252   5.362   5.152  0.00  0.00    +0.015 A 
ATOM     19  C   UNL     1      -0.826   4.044   5.329  0.00  0.00    +0.063 A 
ATOM     20  C   UNL     1      -0.466   3.278   4.218  0.00  0.00    +0.015 A 
ATOM     21  C   UNL     1      -0.535   3.828   2.954  0.00  0.00    +0.006 A 
BRANCH  19  22
ATOM     22  C   UNL     1      -0.755   3.462   6.685  0.00  0.00    +0.387 C 
ATOM     23  O   UNL     1      -0.383   2.315   6.835  0.00  0.00    -0.241 OA
ATOM     24  O   UNL     1      -1.102   4.203   7.755  0.00  0.00    -0.241 OA
ENDBRANCH  19  22
ENDBRANCH   9  16
BRANCH   3  25
ATOM     25  C   UNL     1       0.827   0.264  -0.464  0.00  0.00    +0.339 C 
ATOM     26  O   UNL     1       1.959   0.575  -0.773  0.00  0.00    -0.245 OA
BRANCH  25  27
ATOM     27  O   UNL     1       0.462  -1.033  -0.460  0.00  0.00    -0.464 OA
ATOM     28  C   UNL     1       1.474  -2.004  -0.837  0.00  0.00    +0.280 C 
ENDBRANCH  25  27
ENDBRANCH   3  25
TORSDOF 4
