REMARK  Name = ZINC22899622
REMARK  5 active torsions:
REMARK  status: ('A' for Active; 'I' for Inactive)
REMARK    1  A    between atoms: C_1  and  C_2
REMARK    2  A    between atoms: C_2  and  C_24
REMARK    3  A    between atoms: C_3  and  C_4
REMARK    4  A    between atoms: N_6  and  C_7
REMARK    5  A    between atoms: C_11  and  C_13
REMARK                            x       y       z     vdW  Elec       q    Type
REMARK                         _______ _______ _______ _____ _____    ______ ____
ROOT
ATOM      1  C   UNL     1       0.630  -0.036   4.857  0.00  0.00    +0.034 A 
ATOM      2  C   UNL     1       0.179   1.274   4.964  0.00  0.00    +0.026 A 
ATOM      3  C   UNL     1       0.061   1.870   6.205  0.00  0.00    +0.041 A 
ATOM      4  C   UNL     1       0.391   1.167   7.349  0.00  0.00    +0.134 A 
ATOM      5  C   UNL     1       0.845  -0.151   7.250  0.00  0.00    +0.056 A 
ATOM      6  C   UNL     1       0.958  -0.753   5.997  0.00  0.00    +0.037 A 
ATOM      7  F   UNL     1       0.276   1.753   8.560  0.00  0.00    -0.205 F 
ENDROOT
BRANCH   5   8
ATOM      8  C   UNL     1       1.199  -0.907   8.471  0.00  0.00    +0.167 A 
ATOM      9  N   UNL     1       1.995  -0.506   9.440  0.00  0.00    -0.129 NA
ATOM     10  N   UNL     1       2.069  -1.416  10.347  0.00  0.00    -0.134 NA
ATOM     11  C   UNL     1       1.331  -2.437  10.014  0.00  0.00    +0.134 A 
ATOM     12  N   UNL     1       0.760  -2.153   8.813  0.00  0.00    -0.311 N 
ATOM     13  C   UNL     1      -0.130  -3.023   8.043  0.00  0.00    +0.125 C 
ATOM     14  C   UNL     1      -0.888  -3.947   9.001  0.00  0.00    +0.022 C 
ATOM     15  C   UNL     1      -0.084  -5.226   9.228  0.00  0.00    +0.002 C 
ATOM     16  C   UNL     1       1.263  -4.905   9.867  0.00  0.00    +0.008 C 
ATOM     17  C   UNL     1       1.122  -3.706  10.800  0.00  0.00    +0.076 C 
ENDBRANCH   5   8
BRANCH   1  20
ATOM     18  C   UNL     1       1.144   0.097   2.538  0.00  0.00    +0.241 C 
ATOM     19  O   UNL     1       1.315   1.296   2.656  0.00  0.00    -0.270 OA
ATOM     20  N   UNL     1       0.747  -0.635   3.597  0.00  0.00    -0.282 N 
ATOM     21  H   UNL     1       0.543  -1.577   3.487  0.00  0.00    +0.155 HD
BRANCH  18  24
ATOM     22  C   UNL     1       1.564   1.687   0.242  0.00  0.00    +0.039 C 
ATOM     23  C   UNL     1       1.644   0.184   0.165  0.00  0.00    -0.071 C 
ATOM     24  C   UNL     1       1.369  -0.552   1.238  0.00  0.00    +0.066 C 
ATOM     25  C   UNL     1       2.036  -0.484  -1.128  0.00  0.00    +0.039 C 
ENDBRANCH  18  24
ENDBRANCH   1  20
TORSDOF 3
