REMARK  Name = ZINC34083850
REMARK  4 active torsions:
REMARK  status: ('A' for Active; 'I' for Inactive)
REMARK    1  A    between atoms: C_6  and  C_7
REMARK    2  A    between atoms: C_7  and  C_9
REMARK    3  A    between atoms: C_7  and  O_16
REMARK    4  A    between atoms: C_9  and  C_10
REMARK                            x       y       z     vdW  Elec       q    Type
REMARK                         _______ _______ _______ _____ _____    ______ ____
ROOT
ATOM      1  C   UNL     1      -1.293  -0.775   0.010  0.00  0.00    +0.152 C 
ENDROOT
BRANCH   1   7
ATOM      2  C   UNL     1      -0.017   1.378   0.010  0.00  0.00    +0.009 A 
ATOM      3  C   UNL     1       1.170   2.086   0.002  0.00  0.00    +0.039 A 
ATOM      4  C   UNL     1       2.379   1.410  -0.013  0.00  0.00    +0.123 A 
ATOM      5  C   UNL     1       2.396   0.026  -0.021  0.00  0.00    +0.039 A 
ATOM      6  C   UNL     1       1.208  -0.680  -0.013  0.00  0.00    +0.009 A 
ATOM      7  C   UNL     1       0.002  -0.004   0.002  0.00  0.00    -0.019 A 
ATOM      8  F   UNL     1       3.540   2.101  -0.021  0.00  0.00    -0.205 F 
ENDBRANCH   1   7
BRANCH   1   9
ATOM      9  O   UNL     1      -1.145  -1.962  -0.770  0.00  0.00    -0.387 OA
ATOM     10  H   UNL     1      -0.456  -2.560  -0.451  0.00  0.00    +0.210 HD
ENDBRANCH   1   9
BRANCH   1  11
ATOM     11  C   UNL     1      -1.653  -1.151   1.449  0.00  0.00    +0.110 C 
BRANCH  11  12
ATOM     12  C   UNL     1      -3.007  -1.813   1.471  0.00  0.00    +0.110 A 
ATOM     13  N   UNL     1      -3.282  -3.025   1.999  0.00  0.00    -0.348 N 
ATOM     14  H   UNL     1      -2.650  -3.622   2.430  0.00  0.00    +0.166 HD
ATOM     15  C   UNL     1      -4.618  -3.254   1.814  0.00  0.00    +0.104 A 
ATOM     16  C   UNL     1      -5.114  -2.175   1.179  0.00  0.00    +0.130 A 
ATOM     17  N   UNL     1      -4.109  -1.308   0.987  0.00  0.00    -0.241 NA
ENDBRANCH  11  12
ENDBRANCH   1  11
TORSDOF 4
