REMARK  Name = ZINC09173589
REMARK  7 active torsions:
REMARK  status: ('A' for Active; 'I' for Inactive)
REMARK    1  A    between atoms: C_4  and  C_7
REMARK    2  A    between atoms: C_7  and  N_58
REMARK    3  A    between atoms: C_11  and  C_14
REMARK    4  A    between atoms: C_14  and  N_15
REMARK    5  A    between atoms: C_16  and  C_18
REMARK    6  A    between atoms: C_18  and  S_19
REMARK    7  A    between atoms: S_19  and  C_20
REMARK                            x       y       z     vdW  Elec       q    Type
REMARK                         _______ _______ _______ _____ _____    ______ ____
ROOT
ATOM      1  N   UNL     1      -9.595   0.509   0.091  0.00  0.00    -0.312 N 
ATOM      2  C   UNL     1      -8.375   1.084   0.083  0.00  0.00    +0.223 C 
ATOM      3  O   UNL     1      -8.274   2.292   0.087  0.00  0.00    -0.275 OA
ATOM      4  H   UNL     1      -9.675  -0.457   0.087  0.00  0.00    +0.149 HD
ENDROOT
BRANCH   1   5
ATOM      5  C   UNL     1     -10.798   1.345   0.105  0.00  0.00    +0.133 C 
BRANCH   5   9
ATOM      6  C   UNL     1     -14.459  -0.364  -1.160  0.00  0.00    -0.050 C 
ATOM      7  C   UNL     1     -13.190  -1.219  -1.163  0.00  0.00    +0.142 C 
ATOM      8  O   UNL     1     -12.046  -0.366  -1.061  0.00  0.00    -0.379 OA
ATOM      9  C   UNL     1     -12.039   0.451   0.112  0.00  0.00    +0.119 C 
ATOM     10  C   UNL     1     -13.297   1.323   0.128  0.00  0.00    -0.045 C 
ATOM     11  N   UNL     1     -14.484   0.444   0.077  0.00  0.00    +0.386 N 
ATOM     12  H   UNL     1     -14.468  -0.186   0.888  0.00  0.00    -0.081 HD
BRANCH  11  13
ATOM     13  C   UNL     1     -15.719   1.257   0.126  0.00  0.00    -0.043 C 
BRANCH  13  17
ATOM     14  C   UNL     1     -19.071  -1.346   0.612  0.00  0.00    +0.000 A 
ATOM     15  C   UNL     1     -18.413  -0.851   1.723  0.00  0.00    +0.000 A 
ATOM     16  C   UNL     1     -17.328  -0.008   1.565  0.00  0.00    +0.002 A 
ATOM     17  C   UNL     1     -16.901   0.339   0.297  0.00  0.00    -0.064 A 
ATOM     18  C   UNL     1     -17.562  -0.153  -0.813  0.00  0.00    +0.002 A 
ATOM     19  C   UNL     1     -18.643  -0.999  -0.656  0.00  0.00    +0.000 A 
ENDBRANCH  13  17
ENDBRANCH  11  13
ENDBRANCH   5   9
ENDBRANCH   1   5
BRANCH   2  20
ATOM     20  C   UNL     1      -7.138   0.224   0.068  0.00  0.00    +0.174 C 
BRANCH  20  21
ATOM     21  S   UNL     1      -5.669   1.282   0.059  0.00  0.00    -0.057 S 
BRANCH  21  22
ATOM     22  C   UNL     1      -4.407   0.053   0.042  0.00  0.00    +0.274 C 
ATOM     23  N   UNL     1      -4.605  -1.234   0.038  0.00  0.00    -0.135 NA
ATOM     24  N   UNL     1      -3.349  -1.859   0.018  0.00  0.00    -0.202 N 
ATOM     25  C   UNL     1      -2.426  -0.879   0.020  0.00  0.00    +0.218 C 
ATOM     26  C   UNL     1      -1.029  -1.052   0.006  0.00  0.00    +0.061 C 
ATOM     27  C   UNL     1      -0.317  -2.263  -0.007  0.00  0.00    +0.125 C 
ATOM     28  N   UNL     1       0.972  -2.016  -0.018  0.00  0.00    -0.254 NA
ATOM     29  C   UNL     1       1.235  -0.698  -0.013  0.00  0.00    +0.072 A 
ATOM     30  C   UNL     1       0.002  -0.004   0.002  0.00  0.00    +0.014 A 
ATOM     31  C   UNL     1      -0.017   1.388   0.010  0.00  0.00    +0.011 A 
ATOM     32  C   UNL     1       1.162   2.080   0.002  0.00  0.00    +0.001 A 
ATOM     33  C   UNL     1       2.377   1.406  -0.012  0.00  0.00    +0.002 A 
ATOM     34  C   UNL     1       2.425   0.042  -0.021  0.00  0.00    +0.028 A 
ATOM     35  O   UNL     1      -3.081   0.293   0.032  0.00  0.00    -0.415 OA
ATOM     36  H   UNL     1      -3.179  -2.814   0.007  0.00  0.00    +0.178 HD
ENDBRANCH  21  22
ENDBRANCH  20  21
ENDBRANCH   2  20
TORSDOF 7
