REMARK  Name = ZINC04870382
REMARK  5 active torsions:
REMARK  status: ('A' for Active; 'I' for Inactive)
REMARK    1  A    between atoms: C_3  and  N_10
REMARK    2  A    between atoms: C_5  and  N_7
REMARK    3  A    between atoms: C_11  and  C_13
REMARK    4  A    between atoms: C_13  and  O_14
REMARK    5  A    between atoms: O_14  and  C_15
REMARK                            x       y       z     vdW  Elec       q    Type
REMARK                         _______ _______ _______ _____ _____    ______ ____
ROOT
ATOM      1  N   UNL     1      -4.907   1.194   0.032  0.00  0.00    -0.283 N 
ATOM      2  C   UNL     1      -6.080   1.850   0.143  0.00  0.00    +0.255 C 
ATOM      3  O   UNL     1      -6.098   3.062   0.150  0.00  0.00    -0.272 OA
ATOM      4  H   UNL     1      -4.898   0.228  -0.050  0.00  0.00    +0.155 HD
ENDROOT
BRANCH   1   7
ATOM      5  C   UNL     1      -1.439   2.164  -0.711  0.00  0.00    +0.004 A 
ATOM      6  C   UNL     1      -2.626   1.458  -0.716  0.00  0.00    +0.023 A 
ATOM      7  C   UNL     1      -3.704   1.907   0.036  0.00  0.00    +0.036 A 
ATOM      8  C   UNL     1      -3.584   3.067   0.791  0.00  0.00    +0.056 A 
ATOM      9  C   UNL     1      -2.395   3.769   0.792  0.00  0.00    +0.128 A 
ATOM     10  C   UNL     1      -1.325   3.321   0.037  0.00  0.00    +0.033 A 
BRANCH   9  11
ATOM     11  N   UNL     1      -2.266   5.005   1.596  0.00  0.00    +0.056 N 
ATOM     12  O   UNL     1      -3.209   5.402   2.257  0.00  0.00    -0.126 OA
ATOM     13  O   UNL     1      -1.216   5.622   1.601  0.00  0.00    -0.126 OA
ENDBRANCH   9  11
ENDBRANCH   1   7
BRANCH   2  14
ATOM     14  C   UNL     1      -7.368   1.076   0.259  0.00  0.00    +0.325 C 
BRANCH  14  15
ATOM     15  O   UNL     1      -8.463   1.988   0.364  0.00  0.00    -0.481 OA
BRANCH  15  16
ATOM     16  C   UNL     1      -9.706   1.449   0.476  0.00  0.00    +0.141 A 
ATOM     17  C   UNL     1      -9.867   0.071   0.486  0.00  0.00    +0.047 A 
ATOM     18  C   UNL     1     -11.131  -0.475   0.601  0.00  0.00    +0.005 A 
ATOM     19  C   UNL     1     -12.236   0.350   0.707  0.00  0.00    +0.022 A 
ATOM     20  C   UNL     1     -12.079   1.725   0.697  0.00  0.00    +0.063 A 
ATOM     21  C   UNL     1     -10.815   2.276   0.588  0.00  0.00    +0.101 A 
ATOM     22 CL   UNL     1     -10.616   4.001   0.583  0.00  0.00    -0.078 Cl
ATOM     23 CL   UNL     1     -13.468   2.758   0.830  0.00  0.00    -0.082 Cl
ENDBRANCH  15  16
ENDBRANCH  14  15
ENDBRANCH   2  14
TORSDOF 5
