REMARK  Name = ZINC09374680
REMARK  9 active torsions:
REMARK  status: ('A' for Active; 'I' for Inactive)
REMARK    1  A    between atoms: C_1  and  C_2
REMARK    2  A    between atoms: C_5  and  N_9
REMARK    3  A    between atoms: C_6  and  C_8
REMARK    4  A    between atoms: C_10  and  C_12
REMARK    5  A    between atoms: C_12  and  S_13
REMARK    6  A    between atoms: S_13  and  C_14
REMARK    7  A    between atoms: C_15  and  C_31
REMARK    8  A    between atoms: C_16  and  C_22
REMARK    9  A    between atoms: C_25  and  N_28
REMARK                            x       y       z     vdW  Elec       q    Type
REMARK                         _______ _______ _______ _____ _____    ______ ____
ROOT
ATOM      1  C   UNL     1      -2.038  -0.724   1.229  0.00  0.00    +0.082 C 
ATOM      2  C   UNL     1      -0.687  -0.556   1.223  0.00  0.00    +0.065 C 
ATOM      3  C   UNL     1       0.007  -0.049  -0.015  0.00  0.00    +0.070 C 
ATOM      4  C   UNL     1      -0.721  -0.569  -1.256  0.00  0.00    +0.109 C 
ATOM      5  C   UNL     1      -2.203  -0.343  -1.103  0.00  0.00    +0.218 C 
ATOM      6  O   UNL     1      -2.875  -0.080  -2.077  0.00  0.00    -0.275 OA
ATOM      7  N   UNL     1      -2.785  -0.431   0.107  0.00  0.00    -0.279 N 
ATOM      8  H   UNL     1      -3.869  -0.267   0.196  0.00  0.00    +0.155 HD
ENDROOT
BRANCH   3   9
ATOM      9  C   UNL     1      -0.009   1.458  -0.018  0.00  0.00    -0.039 A 
ATOM     10  C   UNL     1      -1.213   2.137  -0.013  0.00  0.00    +0.006 A 
ATOM     11  C   UNL     1      -1.227   3.519  -0.011  0.00  0.00    +0.033 A 
ATOM     12  C   UNL     1      -0.037   4.223  -0.023  0.00  0.00    +0.126 A 
ATOM     13  C   UNL     1       1.167   3.544  -0.034  0.00  0.00    +0.033 A 
ATOM     14  C   UNL     1       1.181   2.162  -0.031  0.00  0.00    +0.006 A 
BRANCH  12  15
ATOM     15  N   UNL     1      -0.052   5.703  -0.025  0.00  0.00    +0.056 N 
ATOM     16  O   UNL     1       0.996   6.322  -0.035  0.00  0.00    -0.126 OA
ATOM     17  O   UNL     1      -1.113   6.301  -0.016  0.00  0.00    -0.126 OA
ENDBRANCH  12  15
ENDBRANCH   3   9
BRANCH   2  18
ATOM     18  C   UNL     1       0.077  -0.864   2.394  0.00  0.00    +0.098 C 
ATOM     19  N   UNL     1       0.683  -1.108   3.324  0.00  0.00    -0.191 NA
ENDBRANCH   2  18
BRANCH   1  20
ATOM     20  S   UNL     1      -2.839  -1.318   2.682  0.00  0.00    -0.100 S 
BRANCH  20  21
ATOM     21  C   UNL     1      -4.556  -1.332   2.111  0.00  0.00    +0.171 C 
BRANCH  21  23
ATOM     22  N   UNL     1      -6.781  -1.914   3.023  0.00  0.00    -0.285 N 
ATOM     23  C   UNL     1      -5.451  -1.820   3.221  0.00  0.00    +0.227 C 
ATOM     24  O   UNL     1      -4.974  -2.128   4.293  0.00  0.00    -0.275 OA
ATOM     25  H   UNL     1      -7.224  -1.550   2.084  0.00  0.00    +0.155 HD
BRANCH  22  30
ATOM     26  C   UNL     1     -10.091  -4.189   7.029  0.00  0.00    +0.044 C 
ATOM     27  C   UNL     1      -9.212  -3.584   5.965  0.00  0.00    -0.050 A 
ATOM     28  C   UNL     1      -7.872  -3.922   5.903  0.00  0.00    +0.005 A 
ATOM     29  C   UNL     1      -7.065  -3.375   4.925  0.00  0.00    +0.024 A 
ATOM     30  C   UNL     1      -7.597  -2.475   4.011  0.00  0.00    +0.036 A 
ATOM     31  C   UNL     1      -8.943  -2.138   4.075  0.00  0.00    -0.029 A 
ATOM     32  C   UNL     1      -9.746  -2.694   5.052  0.00  0.00    +0.008 A 
ATOM     33  C   UNL     1      -9.525  -1.166   3.082  0.00  0.00    +0.045 C 
ENDBRANCH  22  30
ENDBRANCH  21  23
ENDBRANCH  20  21
ENDBRANCH   1  20
TORSDOF 7
