REMARK  Name = ZINC17878347
REMARK  6 active torsions:
REMARK  status: ('A' for Active; 'I' for Inactive)
REMARK    1  A    between atoms: C_1  and  C_2
REMARK    2  A    between atoms: C_2  and  C_3
REMARK    3  A    between atoms: C_3  and  C_4
REMARK    4  A    between atoms: C_4  and  N_5
REMARK    5  A    between atoms: C_12  and  C_15
REMARK    6  A    between atoms: C_12  and  O_23
REMARK                            x       y       z     vdW  Elec       q    Type
REMARK                         _______ _______ _______ _____ _____    ______ ____
ROOT
ATOM      1  N   UNL     1      -2.787  -2.571   0.015  0.00  0.00    -0.268 N 
ATOM      2  C   UNL     1      -3.508  -2.841   1.179  0.00  0.00    +0.043 A 
ATOM      3  C   UNL     1      -3.152  -2.716   2.521  0.00  0.00    +0.025 A 
ATOM      4  C   UNL     1      -4.051  -3.052   3.510  0.00  0.00    +0.017 A 
ATOM      5  C   UNL     1      -5.313  -3.516   3.181  0.00  0.00    +0.018 A 
ATOM      6  C   UNL     1      -5.674  -3.642   1.850  0.00  0.00    +0.024 A 
ATOM      7  C   UNL     1      -4.777  -3.307   0.861  0.00  0.00    +0.017 A 
ATOM      8  C   UNL     1      -4.856  -3.330  -0.648  0.00  0.00    +0.189 C 
ATOM      9  C   UNL     1      -3.501  -2.823  -1.095  0.00  0.00    +0.258 C 
ATOM     10  O   UNL     1      -3.128  -2.675  -2.240  0.00  0.00    -0.272 OA
ATOM     11 BR   UNL     1      -6.540  -3.976   4.544  0.00  0.00    -0.050 Br
ENDROOT
BRANCH   8  12
ATOM     12  C   UNL     1      -5.092  -4.755  -1.151  0.00  0.00    +0.187 C 
ATOM     13  C   UNL     1      -4.948  -4.842  -2.667  0.00  0.00    +0.255 C 
ATOM     14  O   UNL     1      -5.664  -4.245  -3.446  0.00  0.00    -0.272 OA
ATOM     15  N   UNL     1      -3.970  -5.630  -3.038  0.00  0.00    -0.159 NA
ATOM     16  C   UNL     1      -3.186  -6.284  -2.202  0.00  0.00    +0.145 C 
ATOM     17  S   UNL     1      -3.723  -5.879  -0.657  0.00  0.00    -0.077 S 
ATOM     18  N   UNL     1      -2.154  -7.116  -2.522  0.00  0.00    -0.340 N 
ATOM     19  H   UNL     1      -1.933  -7.278  -3.453  0.00  0.00    +0.144 HD
ATOM     20  H   UNL     1      -1.642  -7.547  -1.820  0.00  0.00    +0.144 HD
ENDBRANCH   8  12
BRANCH   8  21
ATOM     21  O   UNL     1      -5.889  -2.457  -1.109  0.00  0.00    -0.373 OA
ATOM     22  H   UNL     1      -5.771  -1.534  -0.844  0.00  0.00    +0.211 HD
ENDBRANCH   8  21
BRANCH   1  23
ATOM     23  C   UNL     1      -1.413  -2.063   0.004  0.00  0.00    +0.114 C 
BRANCH  23  24
ATOM     24  C   UNL     1      -1.433  -0.534   0.013  0.00  0.00    +0.019 C 
BRANCH  24  26
ATOM     25  C   UNL     1      -0.019   1.526   0.010  0.00  0.00    +0.004 C 
ATOM     26  C   UNL     1       0.002  -0.004   0.002  0.00  0.00    -0.002 C 
ENDBRANCH  24  26
ENDBRANCH  23  24
ENDBRANCH   1  23
TORSDOF 5
