REMARK  Name = ZINC39664333
REMARK  7 active torsions:
REMARK  status: ('A' for Active; 'I' for Inactive)
REMARK    1  A    between atoms: C_1  and  C_2
REMARK    2  A    between atoms: C_2  and  C_3
REMARK    3  A    between atoms: C_7  and  C_16
REMARK    4  A    between atoms: N_18  and  C_19
REMARK    5  A    between atoms: C_19  and  C_20
REMARK    6  A    between atoms: C_20  and  C_22
REMARK    7  A    between atoms: C_20  and  N_28
REMARK                            x       y       z     vdW  Elec       q    Type
REMARK                         _______ _______ _______ _____ _____    ______ ____
ROOT
ATOM      1  C   UNL     1      -0.055  -5.492  -1.249  0.00  0.00    +0.218 C 
ATOM      2  O   UNL     1       0.590  -6.247  -1.945  0.00  0.00    -0.275 OA
ATOM      3  N   UNL     1      -0.402  -5.859   0.001  0.00  0.00    -0.313 N 
ATOM      4  H   UNL     1      -0.919  -5.256   0.557  0.00  0.00    +0.149 HD
ENDROOT
BRANCH   1   9
ATOM      5  C   UNL     1       0.076  -1.783  -4.472  0.00  0.00    +0.215 C 
ATOM      6  O   UNL     1      -0.686  -1.343  -5.307  0.00  0.00    -0.276 OA
ATOM      7  N   UNL     1      -0.216  -2.933  -3.832  0.00  0.00    -0.300 N 
ATOM      8  C   UNL     1       0.580  -3.617  -2.786  0.00  0.00    +0.121 C 
ATOM      9  C   UNL     1      -0.469  -4.144  -1.780  0.00  0.00    +0.100 C 
ATOM     10  C   UNL     1      -1.768  -4.263  -2.594  0.00  0.00    -0.004 C 
ATOM     11  C   UNL     1      -1.408  -3.795  -4.012  0.00  0.00    +0.115 C 
ATOM     12  C   UNL     1      -2.846  -3.357  -2.005  0.00  0.00    -0.010 C 
ATOM     13  C   UNL     1      -4.144  -3.535  -2.796  0.00  0.00    -0.082 C 
ATOM     14  N   UNL     1      -4.569  -4.939  -2.734  0.00  0.00    +0.379 N 
ATOM     15  C   UNL     1      -3.569  -5.794  -3.386  0.00  0.00    -0.082 C 
ATOM     16  C   UNL     1      -2.246  -5.711  -2.620  0.00  0.00    -0.010 C 
ATOM     17  H   UNL     1      -4.668  -5.217  -1.769  0.00  0.00    -0.086 HD
ATOM     18  H   UNL     1      -5.456  -5.042  -3.204  0.00  0.00    -0.086 HD
BRANCH   5  20
ATOM     19  C   UNL     1       1.436   0.220  -5.008  0.00  0.00    +0.013 C 
ATOM     20  C   UNL     1       1.348  -1.043  -4.148  0.00  0.00    +0.092 C 
ENDBRANCH   5  20
ENDBRANCH   1   9
BRANCH   3  21
ATOM     21  C   UNL     1      -0.000  -7.170   0.517  0.00  0.00    +0.127 C 
BRANCH  21  22
ATOM     22  C   UNL     1      -0.603  -7.376   1.908  0.00  0.00    +0.104 C 
BRANCH  22  23
ATOM     23  C   UNL     1      -0.032  -6.357   2.860  0.00  0.00    -0.029 A 
ATOM     24  C   UNL     1       1.223  -6.548   3.407  0.00  0.00    +0.005 A 
ATOM     25  C   UNL     1       1.747  -5.613   4.279  0.00  0.00    +0.000 A 
ATOM     26  C   UNL     1       1.016  -4.486   4.604  0.00  0.00    +0.000 A 
ATOM     27  C   UNL     1      -0.238  -4.293   4.057  0.00  0.00    +0.000 A 
ATOM     28  C   UNL     1      -0.760  -5.227   3.181  0.00  0.00    +0.005 A 
ENDBRANCH  22  23
BRANCH  22  29
ATOM     29  N   UNL     1      -0.279  -8.727   2.386  0.00  0.00    -0.290 NA
ATOM     30  C   UNL     1      -0.756  -9.748   1.442  0.00  0.00    +0.113 C 
ATOM     31  C   UNL     1      -0.346 -11.134   1.948  0.00  0.00    +0.175 C 
ATOM     32  O   UNL     1      -0.869 -11.329   3.265  0.00  0.00    -0.377 OA
ATOM     33  C   UNL     1      -0.425 -10.352   4.211  0.00  0.00    +0.175 C 
ATOM     34  C   UNL     1      -0.835  -8.958   3.728  0.00  0.00    +0.113 C 
ENDBRANCH  22  29
ENDBRANCH  21  22
ENDBRANCH   3  21
TORSDOF 6
