REMARK  Name = ZINC24071661
REMARK  4 active torsions:
REMARK  status: ('A' for Active; 'I' for Inactive)
REMARK    1  A    between atoms: C_8  and  C_10
REMARK    2  A    between atoms: N_13  and  C_16
REMARK    3  A    between atoms: C_16  and  C_17
REMARK    4  A    between atoms: C_23  and  C_28
REMARK                            x       y       z     vdW  Elec       q    Type
REMARK                         _______ _______ _______ _____ _____    ______ ____
ROOT
ATOM      1  C   UNL     1       5.152   6.761   1.259  0.00  0.00    +0.094 A 
ATOM      2  N   UNL     1       5.696   7.978   1.518  0.00  0.00    -0.312 N 
ATOM      3  H   UNL     1       5.549   8.807   0.811  0.00  0.00    +0.170 HD
ATOM      4  C   UNL     1       6.418   8.198   2.632  0.00  0.00    +0.260 A 
ATOM      5  O   UNL     1       6.899   9.296   2.850  0.00  0.00    -0.267 OA
ATOM      6  C   UNL     1       6.612   7.123   3.557  0.00  0.00    +0.080 A 
ATOM      7  C   UNL     1       7.345   7.111   4.818  0.00  0.00    +0.004 A 
ATOM      8  C   UNL     1       7.392   5.962   5.533  0.00  0.00    +0.056 A 
ATOM      9  S   UNL     1       6.445   4.820   4.544  0.00  0.00    -0.076 S 
ATOM     10  C   UNL     1       6.013   5.902   3.206  0.00  0.00    +0.116 A 
ATOM     11  N   UNL     1       5.307   5.762   2.086  0.00  0.00    -0.229 NA
ENDROOT
BRANCH   7  12
ATOM     12  C   UNL     1       8.025   8.334   5.307  0.00  0.00    -0.016 A 
ATOM     13  C   UNL     1       8.877   9.045   4.463  0.00  0.00    +0.011 A 
ATOM     14  C   UNL     1       9.504  10.185   4.921  0.00  0.00    +0.039 A 
ATOM     15  C   UNL     1       9.297  10.617   6.221  0.00  0.00    +0.123 A 
ATOM     16  C   UNL     1       8.456   9.911   7.065  0.00  0.00    +0.039 A 
ATOM     17  C   UNL     1       7.820   8.773   6.614  0.00  0.00    +0.011 A 
ATOM     18  F   UNL     1       9.918  11.732   6.667  0.00  0.00    -0.205 F 
ENDBRANCH   7  12
BRANCH   1  19
ATOM     19  C   UNL     1       4.350   6.561  -0.001  0.00  0.00    -0.003 C 
BRANCH  19  23
ATOM     20  C   UNL     1       1.631   3.267  -0.199  0.00  0.00    +0.072 C 
ATOM     21  C   UNL     1       2.685   3.441  -1.296  0.00  0.00    -0.006 C 
ATOM     22  C   UNL     1       3.174   4.892  -1.301  0.00  0.00    -0.078 C 
ATOM     23  N   UNL     1       3.746   5.222   0.010  0.00  0.00    +0.384 N 
ATOM     24  C   UNL     1       2.740   5.107   1.073  0.00  0.00    -0.078 C 
ATOM     25  C   UNL     1       2.238   3.663   1.149  0.00  0.00    -0.006 C 
ATOM     26  H   UNL     1       4.542   4.492   0.222  0.00  0.00    -0.081 HD
BRANCH  20  34
ATOM     27  C   UNL     1       0.545  -2.620   0.134  0.00  0.00    +0.002 A 
ATOM     28  C   UNL     1      -0.760  -2.237  -0.135  0.00  0.00    +0.004 A 
ATOM     29  C   UNL     1      -1.076  -0.907  -0.312  0.00  0.00    +0.048 A 
ATOM     30  C   UNL     1      -0.084   0.057  -0.220  0.00  0.00    +0.155 A 
ATOM     31  C   UNL     1       1.238  -0.326   0.052  0.00  0.00    +0.110 A 
ATOM     32  C   UNL     1       1.543  -1.677   0.229  0.00  0.00    +0.031 A 
ATOM     33  N   UNL     1       1.974   0.818   0.082  0.00  0.00    -0.213 NA
ATOM     34  C   UNL     1       1.190   1.827  -0.149  0.00  0.00    +0.200 A 
ATOM     35  O   UNL     1      -0.070   1.403  -0.338  0.00  0.00    -0.439 OA
ENDBRANCH  20  34
ENDBRANCH  19  23
ENDBRANCH   1  19
TORSDOF 4
