REMARK  Name = ZINC40314822
REMARK  6 active torsions:
REMARK  status: ('A' for Active; 'I' for Inactive)
REMARK    1  A    between atoms: C_1  and  C_2
REMARK    2  A    between atoms: C_2  and  C_4
REMARK    3  A    between atoms: C_2  and  N_7
REMARK    4  A    between atoms: N_7  and  S_8
REMARK    5  A    between atoms: S_8  and  C_11
REMARK    6  A    between atoms: C_13  and  N_19
REMARK                            x       y       z     vdW  Elec       q    Type
REMARK                         _______ _______ _______ _____ _____    ______ ____
ROOT
ATOM      1  S   UNL     1       2.336  -0.761   1.022  0.00  0.00    +0.061 S 
ATOM      2  O   UNL     1       2.887  -1.270   2.229  0.00  0.00    -0.153 OA
ATOM      3  O   UNL     1       2.401  -1.474  -0.205  0.00  0.00    -0.153 OA
ENDROOT
BRANCH   1   4
ATOM      4  C   UNL     1       3.099   0.801   0.739  0.00  0.00    +0.125 A 
ATOM      5  C   UNL     1       4.062   1.267   1.614  0.00  0.00    +0.055 A 
ATOM      6  C   UNL     1       4.664   2.497   1.391  0.00  0.00    +0.062 A 
ATOM      7  C   UNL     1       4.296   3.259   0.287  0.00  0.00    +0.145 A 
ATOM      8  C   UNL     1       3.332   2.787  -0.585  0.00  0.00    +0.062 A 
ATOM      9  C   UNL     1       2.738   1.557  -0.361  0.00  0.00    +0.070 A 
ATOM     10 CL   UNL     1       1.532   0.965  -1.461  0.00  0.00    -0.081 Cl
ATOM     11  F   UNL     1       4.879   4.457   0.067  0.00  0.00    -0.204 F 
BRANCH   6  12
ATOM     12  N   UNL     1       5.639   2.971   2.276  0.00  0.00    -0.356 N 
ATOM     13  H   UNL     1       5.895   2.439   3.046  0.00  0.00    +0.142 HD
ATOM     14  H   UNL     1       6.060   3.831   2.119  0.00  0.00    +0.142 HD
ENDBRANCH   6  12
ENDBRANCH   1   4
BRANCH   1  15
ATOM     15  N   UNL     1       0.732  -0.476   1.319  0.00  0.00    -0.178 NA
ATOM     16  H   UNL     1       0.059  -0.804   0.702  0.00  0.00    +0.149 HD
BRANCH  15  18
ATOM     17  C   UNL     1      -0.047  -0.707   3.626  0.00  0.00    +0.035 C 
ATOM     18  C   UNL     1       0.329   0.272   2.512  0.00  0.00    +0.159 C 
BRANCH  18  19
ATOM     19  C   UNL     1      -0.859   1.139   2.184  0.00  0.00    +0.229 C 
ATOM     20  O   UNL     1      -1.324   1.133   1.064  0.00  0.00    -0.274 OA
ATOM     21  N   UNL     1      -1.405   1.922   3.136  0.00  0.00    -0.328 N 
ATOM     22  H   UNL     1      -1.034   1.927   4.032  0.00  0.00    +0.145 HD
ATOM     23  H   UNL     1      -2.170   2.480   2.925  0.00  0.00    +0.145 HD
ENDBRANCH  18  19
ENDBRANCH  15  18
ENDBRANCH   1  15
TORSDOF 5
