REMARK  Name = ZINC21133563
REMARK  5 active torsions:
REMARK  status: ('A' for Active; 'I' for Inactive)
REMARK    1  A    between atoms: C_6  and  N_7
REMARK    2  A    between atoms: C_12  and  C_15
REMARK    3  A    between atoms: C_15  and  C_16
REMARK    4  A    between atoms: N_18  and  C_19
REMARK    5  A    between atoms: C_21  and  N_26
REMARK                            x       y       z     vdW  Elec       q    Type
REMARK                         _______ _______ _______ _____ _____    ______ ____
ROOT
ATOM      1  N   UNL     1      -6.271  -4.494  -3.728  0.00  0.00    -0.226 NA
ATOM      2  C   UNL     1      -6.289  -3.870  -2.573  0.00  0.00    +0.161 C 
ATOM      3  N   UNL     1      -7.278  -3.886  -1.612  0.00  0.00    -0.264 N 
ATOM      4  C   UNL     1      -7.176  -3.209  -0.481  0.00  0.00    +0.232 C 
ATOM      5  O   UNL     1      -8.048  -3.226   0.361  0.00  0.00    -0.274 OA
ATOM      6  C   UNL     1      -5.896  -2.408  -0.302  0.00  0.00    +0.149 C 
ATOM      7  S   UNL     1      -5.038  -2.801  -1.877  0.00  0.00    -0.077 S 
ATOM      8  H   UNL     1      -8.192  -4.476  -1.773  0.00  0.00    +0.157 HD
ENDROOT
BRANCH   1  14
ATOM      9  C   UNL     1      -4.641  -3.099  -4.796  0.00  0.00    +0.029 A 
ATOM     10  C   UNL     1      -3.551  -2.971  -5.633  0.00  0.00    +0.022 A 
ATOM     11  C   UNL     1      -3.013  -4.088  -6.249  0.00  0.00    +0.041 A 
ATOM     12  C   UNL     1      -3.559  -5.341  -6.025  0.00  0.00    +0.022 A 
ATOM     13  C   UNL     1      -4.645  -5.482  -5.186  0.00  0.00    +0.029 A 
ATOM     14  C   UNL     1      -5.193  -4.360  -4.562  0.00  0.00    +0.067 A 
ATOM     15 CL   UNL     1      -1.647  -3.918  -7.306  0.00  0.00    -0.084 Cl
ENDBRANCH   1  14
BRANCH   6  16
ATOM     16  C   UNL     1      -6.191  -0.911  -0.190  0.00  0.00    +0.120 C 
BRANCH  16  17
ATOM     17  C   UNL     1      -4.894  -0.151  -0.078  0.00  0.00    +0.219 C 
ATOM     18  O   UNL     1      -3.838  -0.748  -0.087  0.00  0.00    -0.275 OA
ATOM     19  N   UNL     1      -4.908   1.192   0.032  0.00  0.00    -0.284 N 
ATOM     20  H   UNL     1      -5.864   1.726   0.131  0.00  0.00    +0.155 HD
BRANCH  19  21
ATOM     21  C   UNL     1      -3.704   1.908   0.019  0.00  0.00    +0.054 A 
ATOM     22  C   UNL     1      -2.582   1.371  -0.597  0.00  0.00    +0.057 A 
ATOM     23  C   UNL     1      -1.397   2.079  -0.608  0.00  0.00    +0.128 A 
ATOM     24  C   UNL     1      -1.325   3.320  -0.002  0.00  0.00    +0.034 A 
ATOM     25  C   UNL     1      -2.441   3.860   0.609  0.00  0.00    +0.024 A 
ATOM     26  C   UNL     1      -3.631   3.157   0.624  0.00  0.00    +0.062 A 
ATOM     27 CL   UNL     1      -5.031   3.833   1.396  0.00  0.00    -0.082 Cl
BRANCH  23  28
ATOM     28  N   UNL     1      -0.200   1.507  -1.265  0.00  0.00    +0.056 N 
ATOM     29  O   UNL     1      -0.261   0.412  -1.795  0.00  0.00    -0.126 OA
ATOM     30  O   UNL     1       0.845   2.133  -1.280  0.00  0.00    -0.126 OA
ENDBRANCH  23  28
ENDBRANCH  19  21
ENDBRANCH  16  17
ENDBRANCH   6  16
TORSDOF 5
