REMARK  Name = ZINC44877699
REMARK  6 active torsions:
REMARK  status: ('A' for Active; 'I' for Inactive)
REMARK    1  A    between atoms: C_1  and  C_2
REMARK    2  A    between atoms: C_2  and  C_4
REMARK    3  A    between atoms: C_2  and  C_8
REMARK    4  A    between atoms: N_5  and  O_6
REMARK    5  A    between atoms: C_14  and  C_16
REMARK    6  A    between atoms: N_18  and  C_19
REMARK                            x       y       z     vdW  Elec       q    Type
REMARK                         _______ _______ _______ _____ _____    ______ ____
ROOT
ATOM      1  C   UNL     1       0.731  -0.503   1.223  0.00  0.00    +0.226 C 
ATOM      2  O   UNL     1       1.725  -1.187   1.099  0.00  0.00    -0.275 OA
ATOM      3  N   UNL     1       0.278  -0.191   2.453  0.00  0.00    -0.289 N 
ATOM      4  C   UNL     1      -0.916   0.622   2.748  0.00  0.00    +0.108 C 
ATOM      5  C   UNL     1      -1.354   0.184   4.168  0.00  0.00    +0.021 C 
ATOM      6  C   UNL     1       0.017  -0.038   4.861  0.00  0.00    +0.033 C 
ATOM      7  C   UNL     1       0.889  -0.609   3.723  0.00  0.00    +0.162 C 
ENDROOT
BRANCH   7   8
ATOM      8  C   UNL     1       0.923  -2.113   3.805  0.00  0.00    +0.233 C 
ATOM      9  O   UNL     1       0.481  -2.780   2.893  0.00  0.00    -0.274 OA
ATOM     10  N   UNL     1       1.444  -2.718   4.891  0.00  0.00    -0.317 N 
ATOM     11  C   UNL     1       1.477  -4.180   4.970  0.00  0.00    +0.128 C 
ATOM     12  H   UNL     1       1.798  -2.184   5.620  0.00  0.00    +0.148 HD
ENDBRANCH   7   8
BRANCH   1  14
ATOM     13  C   UNL     1      -0.019   1.526   0.010  0.00  0.00    +0.025 C 
ATOM     14  C   UNL     1       0.002  -0.004   0.002  0.00  0.00    +0.138 C 
BRANCH  14  15
ATOM     15  C   UNL     1       0.707  -0.490  -1.238  0.00  0.00    +0.143 C 
ATOM     16  N   UNL     1       1.575   0.266  -1.826  0.00  0.00    -0.076 NA
ATOM     17  N   UNL     1       0.428  -1.740  -1.744  0.00  0.00    -0.343 N 
ATOM     18  H   UNL     1      -0.224  -2.307  -1.303  0.00  0.00    +0.144 HD
ATOM     19  H   UNL     1       0.882  -2.053  -2.542  0.00  0.00    +0.144 HD
BRANCH  16  20
ATOM     20  O   UNL     1       2.237  -0.191  -2.991  0.00  0.00    -0.408 OA
ATOM     21  H   UNL     1       2.868   0.443  -3.359  0.00  0.00    +0.328 HD
ENDBRANCH  16  20
ENDBRANCH  14  15
ENDBRANCH   1  14
TORSDOF 4
