REMARK  Name = ZINC01295771
REMARK  11 active torsions:
REMARK  status: ('A' for Active; 'I' for Inactive)
REMARK    1  A    between atoms: C_1  and  O_2
REMARK    2  A    between atoms: O_2  and  C_3
REMARK    3  A    between atoms: C_5  and  C_13
REMARK    4  A    between atoms: C_7  and  O_11
REMARK    5  A    between atoms: C_8  and  O_9
REMARK    6  A    between atoms: O_9  and  C_10
REMARK    7  A    between atoms: O_11  and  C_12
REMARK    8  A    between atoms: C_15  and  C_27
REMARK    9  A    between atoms: C_17  and  C_22
REMARK   10  A    between atoms: C_17  and  O_26
REMARK   11  A    between atoms: C_27  and  C_29
REMARK                            x       y       z     vdW  Elec       q    Type
REMARK                         _______ _______ _______ _____ _____    ______ ____
ROOT
ATOM      1  C   UNL     1       1.081   3.523   0.712  0.00  0.00    +0.120 C 
ATOM      2  C   UNL     1       1.168   2.416  -0.345  0.00  0.00    +0.145 C 
ATOM      3  C   UNL     1       1.383   3.067  -1.715  0.00  0.00    +0.243 C 
ATOM      4  N   UNL     1       0.313   4.034  -1.961  0.00  0.00    -0.264 N 
ATOM      5  C   UNL     1      -0.294   4.675  -0.951  0.00  0.00    +0.302 C 
ATOM      6  O   UNL     1      -1.171   5.477  -1.211  0.00  0.00    -0.253 OA
ATOM      7  N   UNL     1       0.027   4.466   0.334  0.00  0.00    -0.292 N 
ATOM      8  H   UNL     1       0.037   4.216  -2.873  0.00  0.00    +0.153 HD
ATOM      9  H   UNL     1      -0.449   4.949   1.028  0.00  0.00    +0.151 HD
ENDROOT
BRANCH   1  12
ATOM     10  C   UNL     1       3.785   6.109   0.185  0.00  0.00    +0.165 A 
ATOM     11  C   UNL     1       2.574   5.439   0.114  0.00  0.00    +0.055 A 
ATOM     12  C   UNL     1       2.400   4.248   0.792  0.00  0.00    -0.019 A 
ATOM     13  C   UNL     1       3.430   3.722   1.549  0.00  0.00    +0.055 A 
ATOM     14  C   UNL     1       4.647   4.383   1.621  0.00  0.00    +0.165 A 
ATOM     15  C   UNL     1       4.826   5.582   0.940  0.00  0.00    +0.204 A 
BRANCH  10  17
ATOM     16  C   UNL     1       2.843   7.765  -1.239  0.00  0.00    +0.277 C 
ATOM     17  O   UNL     1       3.956   7.282  -0.483  0.00  0.00    -0.491 OA
ENDBRANCH  10  17
BRANCH  15  18
ATOM     18  O   UNL     1       6.017   6.236   1.012  0.00  0.00    -0.488 OA
ATOM     19  C   UNL     1       6.171   7.189   2.065  0.00  0.00    +0.277 C 
ENDBRANCH  15  18
BRANCH  14  20
ATOM     20  O   UNL     1       5.662   3.863   2.362  0.00  0.00    -0.491 OA
ATOM     21  C   UNL     1       5.407   2.629   3.035  0.00  0.00    +0.277 C 
ENDBRANCH  14  20
ENDBRANCH   1  12
BRANCH   3  22
ATOM     22  C   UNL     1       1.361   1.990  -2.802  0.00  0.00    +0.436 C 
ATOM     23  F   UNL     1       0.124   1.337  -2.785  0.00  0.00    -0.166 F 
ATOM     24  F   UNL     1       1.557   2.585  -4.053  0.00  0.00    -0.166 F 
ATOM     25  F   UNL     1       2.381   1.063  -2.561  0.00  0.00    -0.166 F 
ENDBRANCH   3  22
BRANCH   3  26
ATOM     26  O   UNL     1       2.646   3.737  -1.733  0.00  0.00    -0.364 OA
ATOM     27  H   UNL     1       2.848   4.172  -2.573  0.00  0.00    +0.212 HD
ENDBRANCH   3  26
BRANCH   2  28
ATOM     28  C   UNL     1      -0.114   1.625  -0.356  0.00  0.00    +0.179 C 
ATOM     29  O   UNL     1      -1.159   2.158  -0.044  0.00  0.00    -0.291 OA
BRANCH  28  30
ATOM     30  C   UNL     1      -0.101   0.264  -0.734  0.00  0.00    +0.055 A 
ATOM     31  C   UNL     1      -1.158  -0.637  -0.806  0.00  0.00    +0.019 A 
ATOM     32  C   UNL     1      -0.864  -1.911  -1.213  0.00  0.00    +0.008 A 
ATOM     33  C   UNL     1       0.425  -2.234  -1.510  0.00  0.00    +0.046 A 
ATOM     34  S   UNL     1       1.278  -0.750  -1.238  0.00  0.00    -0.094 S 
ENDBRANCH  28  30
ENDBRANCH   2  28
TORSDOF 8
