REMARK  Name = ZINC38050448
REMARK  6 active torsions:
REMARK  status: ('A' for Active; 'I' for Inactive)
REMARK    1  A    between atoms: C_1  and  C_2
REMARK    2  A    between atoms: C_4  and  N_21
REMARK    3  A    between atoms: C_7  and  S_8
REMARK    4  A    between atoms: S_8  and  N_11
REMARK    5  A    between atoms: N_11  and  C_12
REMARK    6  A    between atoms: C_18  and  N_20
REMARK                            x       y       z     vdW  Elec       q    Type
REMARK                         _______ _______ _______ _____ _____    ______ ____
ROOT
ATOM      1  S   UNL     1      -0.233   0.172   3.055  0.00  0.00    +0.059 S 
ATOM      2  O   UNL     1      -1.259   1.117   3.325  0.00  0.00    -0.153 OA
ATOM      3  O   UNL     1       0.041  -0.923   3.919  0.00  0.00    -0.153 OA
ENDROOT
BRANCH   1  10
ATOM      4  C   UNL     1       1.528  -1.844   1.647  0.00  0.00    +0.046 C 
ATOM      5  C   UNL     1       0.282  -1.431   0.906  0.00  0.00    -0.022 A 
ATOM      6  C   UNL     1       0.004  -1.973  -0.335  0.00  0.00    +0.038 A 
ATOM      7  C   UNL     1      -1.139  -1.593  -1.014  0.00  0.00    +0.127 A 
ATOM      8  C   UNL     1      -2.003  -0.672  -0.452  0.00  0.00    +0.034 A 
ATOM      9  C   UNL     1      -1.725  -0.131   0.789  0.00  0.00    +0.031 A 
ATOM     10  C   UNL     1      -0.585  -0.514   1.470  0.00  0.00    +0.108 A 
BRANCH   7  11
ATOM     11  N   UNL     1      -1.436  -2.173  -2.343  0.00  0.00    +0.056 N 
ATOM     12  O   UNL     1      -0.680  -2.978  -2.834  0.00  0.00    -0.126 OA
ATOM     13  O   UNL     1      -2.436  -1.841  -2.937  0.00  0.00    -0.126 OA
ENDBRANCH   7  11
ENDBRANCH   1  10
BRANCH   1  14
ATOM     14  N   UNL     1       1.176   1.029   2.916  0.00  0.00    -0.188 NA
ATOM     15  H   UNL     1       1.975   0.728   3.377  0.00  0.00    +0.148 HD
BRANCH  14  16
ATOM     16  C   UNL     1       1.217   2.244   2.098  0.00  0.00    +0.062 C 
ATOM     17  C   UNL     1       2.107   2.006   0.877  0.00  0.00    +0.019 C 
ATOM     18  C   UNL     1       3.523   1.655   1.338  0.00  0.00    +0.001 C 
ATOM     19  C   UNL     1       4.091   2.809   2.166  0.00  0.00    -0.001 C 
ATOM     20  C   UNL     1       3.201   3.046   3.388  0.00  0.00    -0.015 C 
ATOM     21  C   UNL     1       1.785   3.398   2.927  0.00  0.00    -0.056 C 
BRANCH  21  22
ATOM     22  N   UNL     1       0.931   3.626   4.099  0.00  0.00    +0.381 N 
ATOM     23  H   UNL     1       0.903   2.789   4.663  0.00  0.00    -0.090 HD
ATOM     24  H   UNL     1       1.306   4.387   4.646  0.00  0.00    -0.090 HD
ATOM     25  H   UNL     1      -0.003   3.858   3.795  0.00  0.00    -0.090 HD
ENDBRANCH  21  22
ENDBRANCH  14  16
ENDBRANCH   1  14
TORSDOF 5
