REMARK  Name = ZINC12894338
REMARK  6 active torsions:
REMARK  status: ('A' for Active; 'I' for Inactive)
REMARK    1  A    between atoms: C_1  and  C_2
REMARK    2  A    between atoms: C_2  and  C_3
REMARK    3  A    between atoms: N_11  and  C_15
REMARK    4  A    between atoms: C_15  and  C_16
REMARK    5  A    between atoms: N_18  and  C_19
REMARK    6  A    between atoms: C_22  and  C_25
REMARK                            x       y       z     vdW  Elec       q    Type
REMARK                         _______ _______ _______ _____ _____    ______ ____
ROOT
ATOM      1  C   UNL     1       7.271   7.714  -2.562  0.00  0.00    -0.011 C 
ATOM      2  C   UNL     1       6.989   6.250  -2.220  0.00  0.00    +0.006 C 
ATOM      3  C   UNL     1       6.870   6.096  -0.701  0.00  0.00    +0.035 C 
ATOM      4  C   UNL     1       5.741   6.982  -0.187  0.00  0.00    +0.113 C 
ATOM      5  C   UNL     1       5.998   8.443  -0.540  0.00  0.00    +0.035 C 
ATOM      6  C   UNL     1       6.121   8.588  -2.059  0.00  0.00    +0.006 C 
ATOM      7  C   UNL     1       4.415   6.529  -0.755  0.00  0.00    +0.247 C 
ATOM      8  O   UNL     1       4.092   6.489  -1.923  0.00  0.00    -0.273 OA
ATOM      9  N   UNL     1       3.668   6.178   0.312  0.00  0.00    -0.215 N 
ATOM     10  C   UNL     1       4.334   6.352   1.460  0.00  0.00    +0.310 C 
ATOM     11  O   UNL     1       3.867   6.110   2.555  0.00  0.00    -0.252 OA
ATOM     12  N   UNL     1       5.580   6.822   1.264  0.00  0.00    -0.285 N 
ATOM     13  H   UNL     1       6.409   7.079   1.940  0.00  0.00    +0.151 HD
ENDROOT
BRANCH   1  15
ATOM     14  C   UNL     1       7.806   9.304  -4.414  0.00  0.00    +0.004 C 
ATOM     15  C   UNL     1       7.402   7.867  -4.079  0.00  0.00    -0.000 C 
ENDBRANCH   1  15
BRANCH   9  16
ATOM     16  C   UNL     1       2.295   5.673   0.225  0.00  0.00    +0.214 C 
BRANCH  16  17
ATOM     17  C   UNL     1       2.318   4.171   0.104  0.00  0.00    +0.235 C 
ATOM     18  O   UNL     1       3.377   3.580   0.091  0.00  0.00    -0.274 OA
ATOM     19  N   UNL     1       1.162   3.485   0.009  0.00  0.00    -0.284 N 
ATOM     20  H   UNL     1       0.206   4.025  -0.067  0.00  0.00    +0.155 HD
BRANCH  19  21
ATOM     21  C   UNL     1       1.177   2.086   0.008  0.00  0.00    +0.033 A 
ATOM     22  C   UNL     1       2.133   1.400   0.745  0.00  0.00    +0.023 A 
ATOM     23  C   UNL     1       2.145   0.019   0.741  0.00  0.00    +0.005 A 
ATOM     24  C   UNL     1       1.206  -0.681   0.006  0.00  0.00    -0.050 A 
ATOM     25  C   UNL     1       0.253  -0.000  -0.729  0.00  0.00    +0.005 A 
ATOM     26  C   UNL     1       0.236   1.381  -0.731  0.00  0.00    +0.023 A 
ATOM     27  C   UNL     1       1.221  -2.188   0.005  0.00  0.00    +0.044 C 
ENDBRANCH  19  21
ENDBRANCH  16  17
ENDBRANCH   9  16
TORSDOF 4
