REMARK  Name = ZINC65437841
REMARK  6 active torsions:
REMARK  status: ('A' for Active; 'I' for Inactive)
REMARK    1  A    between atoms: C_3  and  O_22
REMARK    2  A    between atoms: C_6  and  N_7
REMARK    3  A    between atoms: N_10  and  C_11
REMARK    4  A    between atoms: C_11  and  C_12
REMARK    5  A    between atoms: N_14  and  C_15
REMARK    6  A    between atoms: O_22  and  C_23
REMARK                            x       y       z     vdW  Elec       q    Type
REMARK                         _______ _______ _______ _____ _____    ______ ____
ROOT
ATOM      1  N   UNL     1      -1.263  -0.774   0.562  0.00  0.00    -0.269 N 
ATOM      2  C   UNL     1      -1.232  -2.091   0.280  0.00  0.00    +0.304 C 
ATOM      3  O   UNL     1      -0.165  -2.658   0.139  0.00  0.00    -0.252 OA
ATOM      4  N   UNL     1      -2.383  -2.780   0.153  0.00  0.00    -0.291 N 
ATOM      5  H   UNL     1      -2.108  -0.338   0.750  0.00  0.00    +0.156 HD
ATOM      6  H   UNL     1      -3.234  -2.328   0.266  0.00  0.00    +0.151 HD
ENDROOT
BRANCH   1  12
ATOM      7  C   UNL     1       0.961  -0.354  -0.285  0.00  0.00    +0.027 A 
ATOM      8  C   UNL     1       2.133   0.376  -0.263  0.00  0.00    +0.047 A 
ATOM      9  C   UNL     1       2.278   1.429   0.629  0.00  0.00    +0.127 A 
ATOM     10  C   UNL     1       1.246   1.748   1.499  0.00  0.00    +0.047 A 
ATOM     11  C   UNL     1       0.074   1.019   1.478  0.00  0.00    +0.027 A 
ATOM     12  C   UNL     1      -0.072  -0.034   0.585  0.00  0.00    +0.035 A 
BRANCH   9  13
ATOM     13  O   UNL     1       3.433   2.147   0.651  0.00  0.00    -0.434 OA
BRANCH  13  14
ATOM     14  C   UNL     1       3.514   3.216   1.594  0.00  0.00    +0.541 C 
ATOM     15  F   UNL     1       2.499   4.144   1.336  0.00  0.00    -0.166 F 
ATOM     16  F   UNL     1       3.362   2.709   2.889  0.00  0.00    -0.166 F 
ENDBRANCH  13  14
ENDBRANCH   9  13
ENDBRANCH   1  12
BRANCH   4  17
ATOM     17  C   UNL     1      -2.349  -4.213  -0.153  0.00  0.00    +0.202 C 
BRANCH  17  18
ATOM     18  C   UNL     1      -3.758  -4.741  -0.241  0.00  0.00    +0.234 C 
ATOM     19  O   UNL     1      -4.698  -3.994  -0.064  0.00  0.00    -0.274 OA
ATOM     20  N   UNL     1      -3.974  -6.042  -0.515  0.00  0.00    -0.284 N 
ATOM     21  H   UNL     1      -3.225  -6.654  -0.583  0.00  0.00    +0.155 HD
BRANCH  20  22
ATOM     22  C   UNL     1      -5.279  -6.511  -0.702  0.00  0.00    +0.034 A 
ATOM     23  C   UNL     1      -5.619  -7.799  -0.310  0.00  0.00    +0.025 A 
ATOM     24  C   UNL     1      -6.908  -8.259  -0.496  0.00  0.00    +0.022 A 
ATOM     25  C   UNL     1      -7.861  -7.438  -1.072  0.00  0.00    +0.041 A 
ATOM     26  C   UNL     1      -7.525  -6.154  -1.464  0.00  0.00    +0.022 A 
ATOM     27  C   UNL     1      -6.239  -5.687  -1.275  0.00  0.00    +0.025 A 
ATOM     28 CL   UNL     1      -9.480  -8.019  -1.305  0.00  0.00    -0.084 Cl
ENDBRANCH  20  22
ENDBRANCH  17  18
ENDBRANCH   4  17
TORSDOF 6
