REMARK  Name = ZINC09912489
REMARK  13 active torsions:
REMARK  status: ('A' for Active; 'I' for Inactive)
REMARK    1  A    between atoms: C_1  and  C_2
REMARK    2  A    between atoms: C_2  and  C_4
REMARK    3  A    between atoms: C_2  and  O_24
REMARK    4  A    between atoms: N_6  and  N_7
REMARK    5  A    between atoms: C_8  and  C_10
REMARK    6  A    between atoms: C_10  and  N_11
REMARK    7  A    between atoms: C_12  and  C_14
REMARK    8  A    between atoms: C_17  and  C_20
REMARK    9  A    between atoms: C_20  and  C_21
REMARK   10  A    between atoms: C_20  and  C_22
REMARK   11  A    between atoms: C_20  and  C_23
REMARK   12  A    between atoms: O_24  and  C_25
REMARK   13  A    between atoms: C_28  and  C_31
REMARK                            x       y       z     vdW  Elec       q    Type
REMARK                         _______ _______ _______ _____ _____    ______ ____
ROOT
ATOM      1  N   UNL     1       4.168  -6.127   0.461  0.00  0.00    -0.233 N 
ATOM      2  C   UNL     1       3.878  -4.811   0.511  0.00  0.00    +0.246 C 
ATOM      3  O   UNL     1       4.753  -3.990   0.336  0.00  0.00    -0.273 OA
ATOM      4  H   UNL     1       3.468  -6.784   0.601  0.00  0.00    +0.173 HD
ENDROOT
BRANCH   1   7
ATOM      5  C   UNL     1       5.771  -7.860   0.157  0.00  0.00    +0.270 C 
ATOM      6  O   UNL     1       4.896  -8.682   0.333  0.00  0.00    -0.270 OA
ATOM      7  N   UNL     1       5.481  -6.545   0.207  0.00  0.00    -0.231 N 
ATOM      8  H   UNL     1       6.181  -5.888   0.067  0.00  0.00    +0.173 HD
BRANCH   5  10
ATOM      9  C   UNL     1       8.089  -7.875   1.037  0.00  0.00    +0.062 C 
ATOM     10  C   UNL     1       7.183  -8.311  -0.116  0.00  0.00    +0.257 C 
BRANCH  10  11
ATOM     11  O   UNL     1       7.214  -9.734  -0.234  0.00  0.00    -0.480 OA
BRANCH  11  12
ATOM     12  C   UNL     1       8.229 -10.270  -0.960  0.00  0.00    +0.122 A 
ATOM     13  C   UNL     1       9.234  -9.449  -1.458  0.00  0.00    +0.047 A 
ATOM     14  C   UNL     1      10.268  -9.989  -2.189  0.00  0.00    +0.022 A 
ATOM     15  C   UNL     1      10.300 -11.364  -2.441  0.00  0.00    +0.052 A 
ATOM     16  C   UNL     1       9.284 -12.185  -1.943  0.00  0.00    +0.022 A 
ATOM     17  C   UNL     1       8.257 -11.637  -1.208  0.00  0.00    +0.047 A 
BRANCH  15  18
ATOM     18  C   UNL     1      11.371 -11.929  -3.205  0.00  0.00    +0.099 C 
ATOM     19  N   UNL     1      12.220 -12.378  -3.812  0.00  0.00    -0.191 NA
ENDBRANCH  15  18
ENDBRANCH  11  12
ENDBRANCH  10  11
ENDBRANCH   5  10
ENDBRANCH   1   7
BRANCH   2  20
ATOM     20  C   UNL     1       2.466  -4.361   0.785  0.00  0.00    +0.202 C 
BRANCH  20  21
ATOM     21  N   UNL     1       2.412  -2.897   0.787  0.00  0.00    -0.303 N 
ATOM     22  C   UNL     1       1.242  -2.266   1.013  0.00  0.00    +0.244 C 
ATOM     23  O   UNL     1       0.232  -2.912   1.213  0.00  0.00    -0.270 OA
ATOM     24  H   UNL     1       3.218  -2.382   0.627  0.00  0.00    +0.150 HD
BRANCH  22  25
ATOM     25  C   UNL     1       1.188  -0.789   1.016  0.00  0.00    +0.037 A 
ATOM     26  C   UNL     1      -0.021  -0.132   1.248  0.00  0.00    +0.013 A 
ATOM     27  C   UNL     1      -0.065   1.246   1.250  0.00  0.00    +0.005 A 
ATOM     28  C   UNL     1       1.087   1.978   1.022  0.00  0.00    -0.042 A 
ATOM     29  C   UNL     1       2.289   1.334   0.791  0.00  0.00    +0.005 A 
ATOM     30  C   UNL     1       2.346  -0.044   0.786  0.00  0.00    +0.013 A 
BRANCH  28  31
ATOM     31  C   UNL     1       1.031   3.484   1.025  0.00  0.00    -0.013 C 
ATOM     32  C   UNL     1       0.544   3.974   2.390  0.00  0.00    +0.015 C 
ATOM     33  C   UNL     1       2.427   4.047   0.750  0.00  0.00    +0.015 C 
ATOM     34  C   UNL     1       0.066   3.961  -0.062  0.00  0.00    +0.015 C 
ENDBRANCH  28  31
ENDBRANCH  22  25
ENDBRANCH  20  21
ENDBRANCH   2  20
TORSDOF 9
