REMARK  Name = ZINC67487231
REMARK  12 active torsions:
REMARK  status: ('A' for Active; 'I' for Inactive)
REMARK    1  A    between atoms: C_1  and  C_2
REMARK    2  A    between atoms: C_2  and  C_4
REMARK    3  A    between atoms: C_2  and  N_11
REMARK    4  A    between atoms: C_8  and  O_10
REMARK    5  A    between atoms: N_11  and  C_12
REMARK    6  A    between atoms: N_15  and  C_16
REMARK    7  A    between atoms: C_17  and  C_25
REMARK    8  A    between atoms: C_21  and  C_22
REMARK    9  A    between atoms: C_22  and  C_23
REMARK   10  A    between atoms: C_22  and  C_24
REMARK   11  A    between atoms: C_25  and  C_26
REMARK   12  A    between atoms: C_25  and  C_27
REMARK                            x       y       z     vdW  Elec       q    Type
REMARK                         _______ _______ _______ _____ _____    ______ ____
ROOT
ATOM      1  N   UNL     1       2.525  -1.453  -1.829  0.00  0.00    -0.282 N 
ATOM      2  C   UNL     1       2.918  -2.542  -0.932  0.00  0.00    +0.134 C 
ATOM      3  C   UNL     1       1.819  -1.721  -2.946  0.00  0.00    +0.307 C 
ATOM      4  O   UNL     1       1.492  -0.817  -3.690  0.00  0.00    -0.252 OA
ATOM      5  N   UNL     1       1.476  -2.992  -3.238  0.00  0.00    -0.269 N 
ATOM      6  H   UNL     1       1.801  -3.720  -2.686  0.00  0.00    +0.156 HD
ENDROOT
BRANCH   5   7
ATOM      7  C   UNL     1       0.653  -3.259  -4.337  0.00  0.00    +0.042 A 
ATOM      8  C   UNL     1      -0.576  -3.879  -4.151  0.00  0.00    -0.023 A 
ATOM      9  C   UNL     1      -1.387  -4.142  -5.238  0.00  0.00    +0.006 A 
ATOM     10  C   UNL     1      -0.976  -3.788  -6.510  0.00  0.00    +0.001 A 
ATOM     11  C   UNL     1       0.247  -3.170  -6.699  0.00  0.00    +0.006 A 
ATOM     12  C   UNL     1       1.060  -2.900  -5.615  0.00  0.00    -0.023 A 
BRANCH  12  13
ATOM     13  C   UNL     1       2.390  -2.221  -5.821  0.00  0.00    +0.015 C 
ATOM     14  C   UNL     1       3.453  -3.272  -6.147  0.00  0.00    +0.012 C 
ATOM     15  C   UNL     1       2.281  -1.228  -6.979  0.00  0.00    +0.012 C 
ENDBRANCH  12  13
BRANCH   8  16
ATOM     16  C   UNL     1      -1.024  -4.266  -2.765  0.00  0.00    +0.015 C 
ATOM     17  C   UNL     1      -2.387  -3.636  -2.475  0.00  0.00    +0.012 C 
ATOM     18  C   UNL     1      -1.136  -5.789  -2.672  0.00  0.00    +0.012 C 
ENDBRANCH   8  16
ENDBRANCH   5   7
BRANCH   1  20
ATOM     19  C   UNL     1       4.408   0.009  -1.283  0.00  0.00    +0.033 C 
ATOM     20  C   UNL     1       2.897  -0.072  -1.512  0.00  0.00    +0.104 C 
BRANCH  20  21
ATOM     21  C   UNL     1       2.175   0.369  -0.265  0.00  0.00    -0.024 A 
ATOM     22  C   UNL     1       1.388   1.506  -0.288  0.00  0.00    +0.006 A 
ATOM     23  C   UNL     1       0.725   1.913   0.855  0.00  0.00    +0.004 A 
ATOM     24  C   UNL     1       0.847   1.186   2.023  0.00  0.00    +0.045 A 
ATOM     25  C   UNL     1       1.636   0.045   2.048  0.00  0.00    +0.117 A 
ATOM     26  C   UNL     1       2.296  -0.365   0.899  0.00  0.00    +0.050 A 
BRANCH  25  27
ATOM     27  O   UNL     1       1.758  -0.673   3.196  0.00  0.00    -0.507 OA
ATOM     28  H   UNL     1       1.094  -1.369   3.296  0.00  0.00    +0.292 HD
ENDBRANCH  25  27
ENDBRANCH  20  21
ENDBRANCH   1  20
TORSDOF 6
