REMARK  Name = ZINC03188701
REMARK  7 active torsions:
REMARK  status: ('A' for Active; 'I' for Inactive)
REMARK    1  A    between atoms: C_1  and  C_2
REMARK    2  A    between atoms: C_2  and  N_3
REMARK    3  A    between atoms: N_3  and  C_4
REMARK    4  A    between atoms: C_4  and  C_5
REMARK    5  A    between atoms: P_8  and  C_21
REMARK    6  A    between atoms: C_11  and  C_15
REMARK    7  A    between atoms: C_12  and  C_13
REMARK                            x       y       z     vdW  Elec       q    Type
REMARK                         _______ _______ _______ _____ _____    ______ ____
ROOT
ATOM      1  N   UNL     1       0.476  -0.953   0.945  0.00  0.00    -0.315 N 
ATOM      2  C   UNL     1       1.821  -1.259   0.893  0.00  0.00    +0.145 C 
ATOM      3  N   UNL     1       2.549  -0.726  -0.050  0.00  0.00    -0.189 NA
ATOM      4  P   UNL     1       4.163  -1.051  -0.093  0.00  0.00    +0.304 P 
ATOM      5  O   UNL     1       4.622  -1.134  -1.498  0.00  0.00    -0.270 OA
ATOM      6  N   UNL     1       4.390  -2.501   0.659  0.00  0.00    -0.273 N 
ATOM      7  C   UNL     1       3.624  -2.750   1.779  0.00  0.00    +0.062 C 
ATOM      8  C   UNL     1       2.375  -2.163   1.901  0.00  0.00    +0.113 C 
ATOM      9  H   UNL     1       5.032  -3.148   0.329  0.00  0.00    +0.155 HD
ENDROOT
BRANCH   7  10
ATOM     10  C   UNL     1       4.135  -3.632   2.845  0.00  0.00    -0.002 A 
ATOM     11  C   UNL     1       4.690  -4.874   2.522  0.00  0.00    +0.010 A 
ATOM     12  C   UNL     1       5.165  -5.694   3.524  0.00  0.00    +0.001 A 
ATOM     13  C   UNL     1       5.093  -5.290   4.846  0.00  0.00    +0.000 A 
ATOM     14  C   UNL     1       4.544  -4.063   5.173  0.00  0.00    +0.001 A 
ATOM     15  C   UNL     1       4.070  -3.229   4.181  0.00  0.00    +0.010 A 
ENDBRANCH   7  10
BRANCH   4  16
ATOM     16  C   UNL     1       5.078   0.250   0.779  0.00  0.00    +0.050 A 
ATOM     17  C   UNL     1       6.272  -0.049   1.409  0.00  0.00    +0.015 A 
ATOM     18  C   UNL     1       6.969   0.942   2.074  0.00  0.00    +0.001 A 
ATOM     19  C   UNL     1       6.473   2.232   2.110  0.00  0.00    +0.000 A 
ATOM     20  C   UNL     1       5.279   2.530   1.480  0.00  0.00    +0.001 A 
ATOM     21  C   UNL     1       4.584   1.540   0.811  0.00  0.00    +0.015 A 
ENDBRANCH   4  16
BRANCH   1  23
ATOM     22  C   UNL     1      -0.055   1.300   0.154  0.00  0.00    +0.024 C 
ATOM     23  C   UNL     1      -0.146  -0.198  -0.145  0.00  0.00    +0.103 C 
ENDBRANCH   1  23
BRANCH   1  24
ATOM     24  C   UNL     1      -0.329  -1.383   2.091  0.00  0.00    +0.103 C 
ATOM     25  C   UNL     1      -0.698  -2.859   1.929  0.00  0.00    +0.024 C 
ENDBRANCH   1  24
BRANCH   8  26
ATOM     26  C   UNL     1       1.589  -2.458   3.061  0.00  0.00    +0.104 C 
ATOM     27  N   UNL     1       0.965  -2.692   3.981  0.00  0.00    -0.191 NA
ENDBRANCH   8  26
TORSDOF 5
