REMARK  Name = ZINC60015935
REMARK  12 active torsions:
REMARK  status: ('A' for Active; 'I' for Inactive)
REMARK    1  A    between atoms: C_1  and  C_2
REMARK    2  A    between atoms: C_5  and  C_27
REMARK    3  A    between atoms: N_8  and  C_10
REMARK    4  A    between atoms: C_10  and  C_11
REMARK    5  A    between atoms: C_11  and  C_13
REMARK    6  A    between atoms: C_11  and  N_14
REMARK    7  A    between atoms: C_15  and  C_17
REMARK    8  A    between atoms: C_17  and  C_19
REMARK    9  A    between atoms: C_17  and  N_23
REMARK   10  A    between atoms: C_19  and  C_20
REMARK   11  A    between atoms: C_20  and  S_21
REMARK   12  A    between atoms: S_21  and  C_22
REMARK                            x       y       z     vdW  Elec       q    Type
REMARK                         _______ _______ _______ _____ _____    ______ ____
ROOT
ATOM      1  N   UNL     1       2.811  -0.157   2.272  0.00  0.00    -0.313 N 
ATOM      2  C   UNL     1       3.852   0.578   1.833  0.00  0.00    +0.234 C 
ATOM      3  O   UNL     1       4.299   1.470   2.523  0.00  0.00    -0.274 OA
ATOM      4  H   UNL     1       2.454  -0.870   1.720  0.00  0.00    +0.149 HD
ENDROOT
BRANCH   1   5
ATOM      5  C   UNL     1       2.219   0.122   3.582  0.00  0.00    +0.053 C 
ATOM      6  C   UNL     1       2.982  -0.648   4.661  0.00  0.00    +0.026 C 
BRANCH   5   7
ATOM      7  C   UNL     1       0.753  -0.316   3.583  0.00  0.00    -0.057 C 
BRANCH   7  13
ATOM      8  C   UNL     1      -1.275   0.114  -0.092  0.00  0.00    +0.005 C 
ATOM      9  C   UNL     1      -2.039   0.443   1.192  0.00  0.00    -0.031 C 
ATOM     10  C   UNL     1      -2.095   1.962   1.379  0.00  0.00    +0.003 C 
ATOM     11  C   UNL     1      -0.671   2.498   1.549  0.00  0.00    -0.031 C 
ATOM     12  C   UNL     1      -0.004   1.793   2.732  0.00  0.00    -0.076 C 
ATOM     13  N   UNL     1       0.043   0.347   2.481  0.00  0.00    +0.381 N 
ATOM     14  C   UNL     1      -1.322  -0.188   2.388  0.00  0.00    -0.076 C 
ATOM     15  C   UNL     1      -0.721   4.005   1.814  0.00  0.00    +0.005 C 
ATOM     16  H   UNL     1       0.531   0.173   1.616  0.00  0.00    -0.082 HD
ENDBRANCH   7  13
ENDBRANCH   5   7
ENDBRANCH   1   5
BRANCH   2  17
ATOM     17  C   UNL     1       4.462   0.292   0.485  0.00  0.00    +0.161 C 
BRANCH  17  18
ATOM     18  N   UNL     1       5.814   0.853   0.431  0.00  0.00    -0.288 N 
ATOM     19  C   UNL     1       6.001   2.178   0.598  0.00  0.00    +0.298 C 
ATOM     20  O   UNL     1       5.047   2.906   0.793  0.00  0.00    -0.253 OA
ATOM     21  N   UNL     1       7.245   2.694   0.548  0.00  0.00    -0.313 N 
ATOM     22  H   UNL     1       6.575   0.272   0.275  0.00  0.00    +0.151 HD
ATOM     23  H   UNL     1       8.005   2.113   0.392  0.00  0.00    +0.146 HD
ATOM     24  H   UNL     1       7.379   3.647   0.668  0.00  0.00    +0.146 HD
ENDBRANCH  17  18
BRANCH  17  25
ATOM     25  C   UNL     1       3.602   0.927  -0.609  0.00  0.00    +0.042 C 
BRANCH  25  26
ATOM     26  C   UNL     1       4.149   0.532  -1.982  0.00  0.00    +0.071 C 
BRANCH  26  27
ATOM     27  S   UNL     1       3.130   1.286  -3.280  0.00  0.00    -0.164 S 
ATOM     28  C   UNL     1       3.901   0.728  -4.824  0.00  0.00    +0.084 C 
ENDBRANCH  26  27
ENDBRANCH  25  26
ENDBRANCH  17  25
ENDBRANCH   2  17
TORSDOF 8
