REMARK  Name = ZINC39534157
REMARK  11 active torsions:
REMARK  status: ('A' for Active; 'I' for Inactive)
REMARK    1  A    between atoms: C_1  and  C_2
REMARK    2  A    between atoms: C_2  and  O_3
REMARK    3  A    between atoms: O_3  and  C_4
REMARK    4  A    between atoms: N_7  and  C_11
REMARK    5  A    between atoms: C_11  and  C_13
REMARK    6  A    between atoms: C_11  and  C_22
REMARK    7  A    between atoms: C_13  and  N_14
REMARK    8  A    between atoms: N_14  and  C_15
REMARK    9  A    between atoms: C_20  and  O_21
REMARK   10  A    between atoms: C_25  and  C_28
REMARK   11  A    between atoms: C_33  and  O_34
REMARK                            x       y       z     vdW  Elec       q    Type
REMARK                         _______ _______ _______ _____ _____    ______ ____
ROOT
ATOM      1  C   UNL     1       1.655  -4.155   4.120  0.00  0.00    -0.020 C 
ENDROOT
BRANCH   1   4
ATOM      2  C   UNL     1       0.628  -2.196   1.087  0.00  0.00    +0.169 C 
ATOM      3  C   UNL     1       1.130  -2.457   2.509  0.00  0.00    -0.029 C 
ATOM      4  N   UNL     1       1.191  -3.905   2.749  0.00  0.00    +0.389 N 
ATOM      5  C   UNL     1       2.123  -4.522   1.796  0.00  0.00    -0.062 C 
ATOM      6  C   UNL     1       1.630  -4.278   0.368  0.00  0.00    +0.065 C 
ATOM      7  N   UNL     1       1.539  -2.831   0.124  0.00  0.00    -0.295 NA
ATOM      8  H   UNL     1       1.252  -2.642  -0.824  0.00  0.00    +0.124 HD
ATOM      9  H   UNL     1       0.273  -4.305   2.627  0.00  0.00    -0.081 HD
BRANCH   2  10
ATOM     10  O   UNL     1       0.587  -0.788   0.847  0.00  0.00    -0.364 OA
BRANCH  10  12
ATOM     11  C   UNL     1      -0.147   1.105  -0.464  0.00  0.00    +0.034 C 
ATOM     12  C   UNL     1      -0.172  -0.417  -0.305  0.00  0.00    +0.158 C 
ENDBRANCH  10  12
ENDBRANCH   2  10
ENDBRANCH   1   4
BRANCH   1  13
ATOM     13  C   UNL     1       1.754  -5.640   4.354  0.00  0.00    -0.059 A 
ATOM     14  C   UNL     1       0.785  -6.484   3.843  0.00  0.00    +0.002 A 
ATOM     15  C   UNL     1       0.871  -7.845   4.054  0.00  0.00    +0.009 A 
ATOM     16  C   UNL     1       1.936  -8.369   4.784  0.00  0.00    -0.014 A 
ATOM     17  C   UNL     1       2.910  -7.514   5.297  0.00  0.00    +0.009 A 
ATOM     18  C   UNL     1       2.817  -6.155   5.074  0.00  0.00    +0.002 A 
BRANCH  16  19
ATOM     19  C   UNL     1       2.033  -9.831   5.015  0.00  0.00    +0.024 A 
ATOM     20  C   UNL     1       0.934 -10.537   5.498  0.00  0.00    +0.012 A 
ATOM     21  C   UNL     1       1.029 -11.898   5.711  0.00  0.00    +0.001 A 
ATOM     22  C   UNL     1       2.213 -12.563   5.448  0.00  0.00    +0.004 A 
ATOM     23  C   UNL     1       3.310 -11.872   4.969  0.00  0.00    +0.046 A 
ATOM     24  C   UNL     1       3.227 -10.507   4.745  0.00  0.00    +0.125 A 
BRANCH  24  25
ATOM     25  O   UNL     1       4.302  -9.827   4.269  0.00  0.00    -0.506 OA
ATOM     26  H   UNL     1       4.886  -9.482   4.958  0.00  0.00    +0.292 HD
ENDBRANCH  24  25
ENDBRANCH  16  19
ENDBRANCH   1  13
BRANCH   1  27
ATOM     27  C   UNL     1       0.663  -3.547   5.113  0.00  0.00    +0.091 C 
BRANCH  27  28
ATOM     28  N   UNL     1       1.165  -3.727   6.478  0.00  0.00    -0.342 N 
ATOM     29  H   UNL     1       2.045  -4.109   6.624  0.00  0.00    +0.146 HD
BRANCH  28  30
ATOM     30  C   UNL     1       0.377  -3.347   7.570  0.00  0.00    +0.069 A 
ATOM     31  C   UNL     1      -0.884  -2.806   7.362  0.00  0.00    +0.026 A 
ATOM     32  C   UNL     1      -1.661  -2.432   8.443  0.00  0.00    +0.002 A 
ATOM     33  C   UNL     1      -1.186  -2.596   9.730  0.00  0.00    +0.004 A 
ATOM     34  C   UNL     1       0.070  -3.135   9.945  0.00  0.00    +0.047 A 
ATOM     35  C   UNL     1       0.853  -3.517   8.868  0.00  0.00    +0.138 A 
BRANCH  35  36
ATOM     36  O   UNL     1       2.086  -4.052   9.077  0.00  0.00    -0.505 OA
ATOM     37  H   UNL     1       2.797  -3.398   9.113  0.00  0.00    +0.292 HD
ENDBRANCH  35  36
ENDBRANCH  28  30
ENDBRANCH  27  28
ENDBRANCH   1  27
TORSDOF 10
