REMARK  Name = ZINC38344197
REMARK  2 active torsions:
REMARK  status: ('A' for Active; 'I' for Inactive)
REMARK    1  A    between atoms: N_10  and  N_11
REMARK    2  A    between atoms: N_15  and  N_16
REMARK                            x       y       z     vdW  Elec       q    Type
REMARK                         _______ _______ _______ _____ _____    ______ ____
ROOT
ATOM      1  N   UNL     1       7.144   0.768  -0.007  0.00  0.00    -0.189 NA
ATOM      2  C   UNL     1       8.336   1.214  -0.147  0.00  0.00    +0.042 C 
ATOM      3  C   UNL     1       8.617   2.703  -0.134  0.00  0.00    +0.104 C 
ATOM      4  C   UNL     1       9.806   2.932   0.777  0.00  0.00    +0.042 C 
ATOM      5  N   UNL     1       9.792   3.862   1.657  0.00  0.00    -0.189 NA
ATOM      6  C   UNL     1      11.010   2.030   0.617  0.00  0.00    +0.053 C 
ATOM      7  C   UNL     1      10.560   0.572   0.737  0.00  0.00    +0.012 C 
ATOM      8  C   UNL     1       9.504   0.270  -0.323  0.00  0.00    +0.053 C 
ENDROOT
BRANCH   1  18
ATOM      9  C   UNL     1       0.028   1.048   0.322  0.00  0.00    +0.002 A 
ATOM     10  C   UNL     1       1.156   1.822   0.239  0.00  0.00    +0.029 A 
ATOM     11  C   UNL     1       2.438   1.227   0.200  0.00  0.00    +0.080 A 
ATOM     12  N   UNL     1       3.639   1.839   0.119  0.00  0.00    -0.224 NA
ATOM     13  C   UNL     1       4.771   1.171   0.091  0.00  0.00    +0.179 A 
ATOM     14  S   UNL     1       4.215  -0.525   0.183  0.00  0.00    -0.051 S 
ATOM     15  C   UNL     1       2.473  -0.186   0.253  0.00  0.00    +0.041 A 
ATOM     16  C   UNL     1       1.337  -0.952   0.336  0.00  0.00    +0.017 A 
ATOM     17  C   UNL     1       0.099  -0.336   0.372  0.00  0.00    +0.001 A 
ATOM     18  N   UNL     1       6.061   1.657   0.010  0.00  0.00    -0.215 N 
ATOM     19  H   UNL     1       6.217   2.613  -0.034  0.00  0.00    +0.176 HD
ENDBRANCH   1  18
BRANCH   5  20
ATOM     20  N   UNL     1       8.651   4.658   1.817  0.00  0.00    -0.215 N 
ATOM     21  C   UNL     1       8.602   5.601   2.824  0.00  0.00    +0.179 A 
ATOM     22  S   UNL     1       9.848   6.008   4.039  0.00  0.00    -0.051 S 
ATOM     23  C   UNL     1       8.936   7.282   4.876  0.00  0.00    +0.041 A 
ATOM     24  C   UNL     1       7.721   7.307   4.153  0.00  0.00    +0.080 A 
ATOM     25  N   UNL     1       7.631   6.432   3.129  0.00  0.00    -0.224 NA
ATOM     26  C   UNL     1       6.755   8.245   4.587  0.00  0.00    +0.029 A 
ATOM     27  C   UNL     1       7.010   9.071   5.651  0.00  0.00    +0.002 A 
ATOM     28  C   UNL     1       8.214   9.019   6.337  0.00  0.00    +0.001 A 
ATOM     29  C   UNL     1       9.182   8.113   5.940  0.00  0.00    +0.017 A 
ATOM     30  H   UNL     1       7.894   4.546   1.220  0.00  0.00    +0.176 HD
ENDBRANCH   5  20
TORSDOF 2
