REMARK  Name = ZINC01738492
REMARK  7 active torsions:
REMARK  status: ('A' for Active; 'I' for Inactive)
REMARK    1  A    between atoms: C_1  and  C_2
REMARK    2  A    between atoms: C_4  and  O_10
REMARK    3  A    between atoms: C_7  and  S_8
REMARK    4  A    between atoms: S_8  and  C_9
REMARK    5  A    between atoms: O_10  and  C_11
REMARK    6  A    between atoms: N_13  and  C_14
REMARK    7  A    between atoms: C_16  and  N_21
REMARK                            x       y       z     vdW  Elec       q    Type
REMARK                         _______ _______ _______ _____ _____    ______ ____
ROOT
ATOM      1  C   UNL     1      -6.372  -0.257   1.202  0.00  0.00    +0.410 C 
ATOM      2  O   UNL     1      -6.646  -0.947   2.164  0.00  0.00    -0.226 OA
ATOM      3  N   UNL     1      -6.583   1.073   1.245  0.00  0.00    -0.248 N 
ATOM      4  H   UNL     1      -6.420   1.616   0.458  0.00  0.00    +0.158 HD
ENDROOT
BRANCH   3   5
ATOM      5  C   UNL     1      -7.038   1.672   2.427  0.00  0.00    +0.074 A 
ATOM      6  C   UNL     1      -7.912   0.989   3.261  0.00  0.00    +0.059 A 
ATOM      7  C   UNL     1      -8.359   1.581   4.426  0.00  0.00    +0.128 A 
ATOM      8  C   UNL     1      -7.942   2.857   4.760  0.00  0.00    +0.035 A 
ATOM      9  C   UNL     1      -7.068   3.540   3.935  0.00  0.00    +0.042 A 
ATOM     10  C   UNL     1      -6.616   2.952   2.767  0.00  0.00    +0.145 A 
ATOM     11  F   UNL     1      -5.765   3.621   1.958  0.00  0.00    -0.204 F 
BRANCH   7  12
ATOM     12  N   UNL     1      -9.291   0.852   5.316  0.00  0.00    +0.056 N 
ATOM     13  O   UNL     1      -9.663  -0.269   5.020  0.00  0.00    -0.126 OA
ATOM     14  O   UNL     1      -9.682   1.372   6.345  0.00  0.00    -0.126 OA
ENDBRANCH   7  12
ENDBRANCH   3   5
BRANCH   1  15
ATOM     15  O   UNL     1      -5.859  -0.822   0.092  0.00  0.00    -0.411 OA
BRANCH  15  19
ATOM     16  C   UNL     1      -8.099  -5.157   0.043  0.00  0.00    +0.045 C 
ATOM     17  C   UNL     1      -6.843  -4.324   0.048  0.00  0.00    -0.034 A 
ATOM     18  C   UNL     1      -6.929  -2.946   0.068  0.00  0.00    +0.051 A 
ATOM     19  C   UNL     1      -5.773  -2.179   0.073  0.00  0.00    +0.134 A 
ATOM     20  C   UNL     1      -4.530  -2.795   0.051  0.00  0.00    +0.047 A 
ATOM     21  C   UNL     1      -4.442  -4.172   0.036  0.00  0.00    +0.018 A 
ATOM     22  C   UNL     1      -5.599  -4.942   0.032  0.00  0.00    +0.011 A 
BRANCH  22  23
ATOM     23  S   UNL     1      -5.488  -6.700   0.006  0.00  0.00    -0.128 S 
ATOM     24  C   UNL     1      -3.704  -7.027  -0.009  0.00  0.00    +0.090 C 
ENDBRANCH  22  23
ENDBRANCH  15  19
ENDBRANCH   1  15
TORSDOF 5
