REMARK  Name = ZINC12523671
REMARK  16 active torsions:
REMARK  status: ('A' for Active; 'I' for Inactive)
REMARK    1  A    between atoms: C_1  and  C_2
REMARK    2  A    between atoms: C_3  and  N_9
REMARK    3  A    between atoms: C_5  and  C_8
REMARK    4  A    between atoms: N_6  and  N_7
REMARK    5  A    between atoms: N_9  and  C_10
REMARK    6  A    between atoms: N_9  and  S_27
REMARK    7  A    between atoms: C_10  and  C_11
REMARK    8  A    between atoms: C_11  and  O_13
REMARK    9  A    between atoms: O_13  and  C_14
REMARK   10  A    between atoms: C_17  and  C_26
REMARK   11  A    between atoms: C_21  and  C_23
REMARK   12  A    between atoms: C_23  and  C_24
REMARK   13  A    between atoms: C_23  and  C_25
REMARK   14  A    between atoms: S_27  and  C_30
REMARK   15  A    between atoms: C_32  and  N_37
REMARK   16  A    between atoms: C_35  and  N_36
REMARK                            x       y       z     vdW  Elec       q    Type
REMARK                         _______ _______ _______ _____ _____    ______ ____
ROOT
ATOM      1  N   UNL     1      -1.098  -1.643   0.102  0.00  0.00    -0.173 N 
ENDROOT
BRANCH   1   4
ATOM      2  C   UNL     1       0.303  -0.203   2.435  0.00  0.00    +0.069 C 
ATOM      3  C   UNL     1       0.681  -0.192   0.976  0.00  0.00    +0.078 A 
ATOM      4  C   UNL     1       0.045  -0.836  -0.028  0.00  0.00    +0.164 A 
ATOM      5  N   UNL     1       0.698  -0.568  -1.170  0.00  0.00    -0.215 NA
ATOM      6  C   UNL     1       1.712   0.215  -0.916  0.00  0.00    +0.126 A 
ATOM      7  N   UNL     1       1.740   0.475   0.408  0.00  0.00    -0.256 N 
ATOM      8  C   UNL     1       2.690   0.742  -1.934  0.00  0.00    +0.088 C 
BRANCH   7   9
ATOM      9  N   UNL     1       2.652   1.254   1.062  0.00  0.00    -0.297 N 
ATOM     10  H   UNL     1       3.441   0.707   1.371  0.00  0.00    +0.163 HD
ATOM     11  H   UNL     1       2.951   2.024   0.482  0.00  0.00    +0.163 HD
ENDBRANCH   7   9
ENDBRANCH   1   4
BRANCH   1  12
ATOM     12  S   UNL     1      -2.592  -0.945   0.247  0.00  0.00    +0.078 S 
ATOM     13  O   UNL     1      -3.378  -1.828   1.036  0.00  0.00    -0.150 OA
ATOM     14  O   UNL     1      -2.373   0.411   0.610  0.00  0.00    -0.150 OA
BRANCH  12  15
ATOM     15  C   UNL     1      -3.316  -0.925  -1.359  0.00  0.00    +0.131 A 
ATOM     16  C   UNL     1      -4.427  -1.702  -1.626  0.00  0.00    +0.063 A 
ATOM     17  C   UNL     1      -5.000  -1.683  -2.885  0.00  0.00    +0.128 A 
ATOM     18  C   UNL     1      -4.456  -0.895  -3.884  0.00  0.00    +0.034 A 
ATOM     19  C   UNL     1      -3.342  -0.121  -3.625  0.00  0.00    +0.027 A 
ATOM     20  C   UNL     1      -2.768  -0.134  -2.360  0.00  0.00    +0.052 A 
BRANCH  20  21
ATOM     21  N   UNL     1      -1.641   0.648  -2.095  0.00  0.00    -0.356 N 
ATOM     22  H   UNL     1      -1.223   0.616  -1.220  0.00  0.00    +0.142 HD
ATOM     23  H   UNL     1      -1.276   1.223  -2.786  0.00  0.00    +0.142 HD
ENDBRANCH  20  21
BRANCH  17  24
ATOM     24  N   UNL     1      -6.194  -2.511  -3.166  0.00  0.00    +0.056 N 
ATOM     25  O   UNL     1      -6.696  -2.499  -4.275  0.00  0.00    -0.126 OA
ATOM     26  O   UNL     1      -6.674  -3.205  -2.287  0.00  0.00    -0.126 OA
ENDBRANCH  17  24
ENDBRANCH  12  15
ENDBRANCH   1  12
BRANCH   1  27
ATOM     27  C   UNL     1      -0.967  -3.102   0.108  0.00  0.00    +0.253 C 
BRANCH  27  28
ATOM     28  C   UNL     1      -0.689  -3.576   1.511  0.00  0.00    +0.327 C 
ATOM     29  O   UNL     1      -0.609  -2.776   2.414  0.00  0.00    -0.249 OA
BRANCH  28  30
ATOM     30  O   UNL     1      -0.531  -4.886   1.759  0.00  0.00    -0.460 OA
BRANCH  30  31
ATOM     31  C   UNL     1      -0.266  -5.269   3.134  0.00  0.00    +0.180 C 
ATOM     32  C   UNL     1      -1.590  -5.530   3.855  0.00  0.00    +0.048 C 
ATOM     33  C   UNL     1      -1.311  -5.934   5.304  0.00  0.00    -0.011 C 
ATOM     34  C   UNL     1      -0.461  -7.206   5.323  0.00  0.00    +0.004 C 
ATOM     35  C   UNL     1       0.864  -6.946   4.602  0.00  0.00    +0.007 C 
ATOM     36  C   UNL     1       0.584  -6.541   3.153  0.00  0.00    +0.032 C 
ATOM     37  C   UNL     1      -2.635  -6.195   6.025  0.00  0.00    +0.007 C 
BRANCH  36  38
ATOM     38  C   UNL     1       1.908  -6.280   2.432  0.00  0.00    -0.011 C 
ATOM     39  C   UNL     1       2.696  -5.206   3.185  0.00  0.00    +0.007 C 
ATOM     40  C   UNL     1       2.726  -7.573   2.385  0.00  0.00    +0.007 C 
ENDBRANCH  36  38
ENDBRANCH  30  31
ENDBRANCH  28  30
ENDBRANCH  27  28
ENDBRANCH   1  27
TORSDOF 11
