REMARK  Name = ZINC05824063
REMARK  9 active torsions:
REMARK  status: ('A' for Active; 'I' for Inactive)
REMARK    1  A    between atoms: C_1  and  C_2
REMARK    2  A    between atoms: C_2  and  C_3
REMARK    3  A    between atoms: C_2  and  C_4
REMARK    4  A    between atoms: C_2  and  O_33
REMARK    5  A    between atoms: C_20  and  O_30
REMARK    6  A    between atoms: C_21  and  O_28
REMARK    7  A    between atoms: C_24  and  O_27
REMARK    8  A    between atoms: O_28  and  C_29
REMARK    9  A    between atoms: O_30  and  C_31
REMARK                            x       y       z     vdW  Elec       q    Type
REMARK                         _______ _______ _______ _____ _____    ______ ____
ROOT
ATOM      1  C   UNL     1       5.335   7.370   3.328  0.00  0.00    +0.209 C 
ATOM      2  C   UNL     1       4.091   7.896   2.567  0.00  0.00    +0.090 C 
ATOM      3  C   UNL     1       3.957   6.888   1.458  0.00  0.00    +0.040 A 
ATOM      4  C   UNL     1       5.157   6.167   1.405  0.00  0.00    +0.128 A 
ATOM      5  C   UNL     1       5.325   5.132   0.475  0.00  0.00    +0.047 A 
ATOM      6  C   UNL     1       4.286   4.861  -0.376  0.00  0.00    +0.019 A 
ATOM      7  C   UNL     1       3.094   5.586  -0.333  0.00  0.00    +0.063 A 
ATOM      8  C   UNL     1       2.906   6.626   0.604  0.00  0.00    +0.139 A 
ATOM      9  O   UNL     1       1.754   7.319   0.661  0.00  0.00    -0.481 OA
ATOM     10  C   UNL     1       0.892   7.359  -0.479  0.00  0.00    +0.254 C 
ATOM     11  C   UNL     1      -0.473   7.901  -0.018  0.00  0.00    +0.277 C 
ATOM     12  O   UNL     1      -0.892   7.134   1.112  0.00  0.00    -0.488 OA
ATOM     13  C   UNL     1      -0.825   5.778   1.030  0.00  0.00    +0.131 A 
ATOM     14  C   UNL     1      -1.513   5.022   1.973  0.00  0.00    +0.095 A 
ATOM     15  C   UNL     1      -1.466   3.640   1.929  0.00  0.00    +0.165 A 
ATOM     16  C   UNL     1      -0.720   3.005   0.941  0.00  0.00    +0.162 A 
ATOM     17  C   UNL     1      -0.039   3.758   0.001  0.00  0.00    +0.060 A 
ATOM     18  C   UNL     1      -0.090   5.142   0.043  0.00  0.00    +0.040 A 
ATOM     19  C   UNL     1       0.659   5.932  -0.995  0.00  0.00    +0.197 C 
ATOM     20  C   UNL     1       2.000   5.292  -1.271  0.00  0.00    +0.206 C 
ATOM     21  O   UNL     1       2.167   4.564  -2.227  0.00  0.00    -0.288 OA
ATOM     22  O   UNL     1       6.038   6.617   2.321  0.00  0.00    -0.485 OA
ENDROOT
BRANCH   1  24
ATOM     23  C   UNL     1       5.395   9.345   4.857  0.00  0.00    +0.045 C 
ATOM     24  C   UNL     1       6.191   8.533   3.834  0.00  0.00    +0.097 C 
ATOM     25  C   UNL     1       7.458   7.984   4.493  0.00  0.00    +0.045 C 
BRANCH  24  26
ATOM     26  O   UNL     1       6.551   9.373   2.736  0.00  0.00    -0.385 OA
ATOM     27  H   UNL     1       7.096  10.133   2.983  0.00  0.00    +0.210 HD
ENDBRANCH  24  26
ENDBRANCH   1  24
BRANCH  19  28
ATOM     28  O   UNL     1      -0.105   5.980  -2.201  0.00  0.00    -0.373 OA
ATOM     29  H   UNL     1      -0.291   5.112  -2.584  0.00  0.00    +0.211 HD
ENDBRANCH  19  28
BRANCH  16  30
ATOM     30  O   UNL     1      -0.664   1.646   0.895  0.00  0.00    -0.491 OA
ATOM     31  C   UNL     1       0.116   1.062  -0.150  0.00  0.00    +0.277 C 
ENDBRANCH  16  30
BRANCH  15  32
ATOM     32  O   UNL     1      -2.143   2.905   2.851  0.00  0.00    -0.491 OA
ATOM     33  C   UNL     1      -2.887   3.625   3.835  0.00  0.00    +0.277 C 
ENDBRANCH  15  32
TORSDOF 5
