REMARK  Name = ZINC09269469
REMARK  5 active torsions:
REMARK  status: ('A' for Active; 'I' for Inactive)
REMARK    1  A    between atoms: C_1  and  C_2
REMARK    2  A    between atoms: C_2  and  N_52
REMARK    3  A    between atoms: C_17  and  C_18
REMARK    4  A    between atoms: N_20  and  C_21
REMARK    5  A    between atoms: C_26  and  C_27
REMARK                            x       y       z     vdW  Elec       q    Type
REMARK                         _______ _______ _______ _____ _____    ______ ____
ROOT
ATOM      1  C   UNL     1       8.187   3.939   1.147  0.00  0.00    -0.060 C 
ATOM      2  C   UNL     1       7.289   2.731   0.875  0.00  0.00    +0.088 C 
ATOM      3  N   UNL     1       8.107   1.510   0.857  0.00  0.00    -0.312 N 
ATOM      4  C   UNL     1       8.799   1.324   2.140  0.00  0.00    +0.088 C 
ATOM      5  C   UNL     1       9.698   2.533   2.412  0.00  0.00    -0.060 C 
ATOM      6  C   UNL     1       7.337   0.399   0.542  0.00  0.00    +0.186 A 
ATOM      7  N   UNL     1       6.042   0.309   0.273  0.00  0.00    -0.124 NA
ATOM      8  N   UNL     1       5.494  -0.793  -0.004  0.00  0.00    -0.121 NA
ATOM      9  C   UNL     1       6.174  -1.927  -0.031  0.00  0.00    +0.202 A 
ATOM     10  S   UNL     1       7.807  -1.321   0.381  0.00  0.00    -0.013 S 
ATOM     11  N   UNL     1       5.743  -3.224  -0.307  0.00  0.00    -0.290 N 
ATOM     12  C   UNL     1       6.485  -4.353  -0.169  0.00  0.00    +0.094 A 
ATOM     13  C   UNL     1       5.734  -5.419  -0.536  0.00  0.00    +0.020 A 
ATOM     14  C   UNL     1       4.473  -4.947  -0.914  0.00  0.00    +0.033 A 
ATOM     15  C   UNL     1       4.490  -3.576  -0.763  0.00  0.00    +0.111 A 
ATOM     16  N   UNL     1       8.860   3.750   2.450  0.00  0.00    +0.382 N 
ATOM     17  H   UNL     1       8.147   3.641   3.181  0.00  0.00    -0.082 HD
ENDROOT
BRANCH  15  18
ATOM     18  C   UNL     1       3.381  -2.660  -1.041  0.00  0.00    +0.265 C 
ATOM     19  O   UNL     1       2.232  -3.029  -0.883  0.00  0.00    -0.268 OA
ATOM     20  N   UNL     1       3.632  -1.408  -1.473  0.00  0.00    -0.280 N 
ATOM     21  H   UNL     1       4.535  -1.153  -1.722  0.00  0.00    +0.155 HD
BRANCH  20  22
ATOM     22  C   UNL     1       2.593  -0.476  -1.561  0.00  0.00    +0.038 A 
ATOM     23  C   UNL     1       1.328  -0.798  -1.087  0.00  0.00    +0.023 A 
ATOM     24  C   UNL     1       0.303   0.123  -1.176  0.00  0.00    +0.003 A 
ATOM     25  C   UNL     1       0.535   1.366  -1.736  0.00  0.00    +0.020 A 
ATOM     26  C   UNL     1       1.794   1.690  -2.209  0.00  0.00    +0.046 A 
ATOM     27  C   UNL     1       2.824   0.772  -2.123  0.00  0.00    -0.011 A 
ATOM     28  C   UNL     1       4.195   1.126  -2.638  0.00  0.00    +0.047 C 
ATOM     29 CL   UNL     1       2.081   3.252  -2.912  0.00  0.00    -0.083 Cl
ENDBRANCH  20  22
ENDBRANCH  15  18
BRANCH  16  31
ATOM     30  C   UNL     1      10.197   4.809   4.204  0.00  0.00    -0.017 C 
ATOM     31  C   UNL     1       9.695   4.929   2.764  0.00  0.00    -0.082 C 
ENDBRANCH  16  31
TORSDOF 3
