REMARK  Name = ZINC51151206
REMARK  8 active torsions:
REMARK  status: ('A' for Active; 'I' for Inactive)
REMARK    1  A    between atoms: C_1  and  C_2
REMARK    2  A    between atoms: C_3  and  C_10
REMARK    3  A    between atoms: C_4  and  N_8
REMARK    4  A    between atoms: N_5  and  C_7
REMARK    5  A    between atoms: N_8  and  N_9
REMARK    6  A    between atoms: C_10  and  S_11
REMARK    7  A    between atoms: S_11  and  C_12
REMARK    8  A    between atoms: C_17  and  O_18
REMARK                            x       y       z     vdW  Elec       q    Type
REMARK                         _______ _______ _______ _____ _____    ______ ____
ROOT
ATOM      1  C   UNL     1      -0.018   1.503   0.010  0.00  0.00    +0.068 C 
ATOM      2  C   UNL     1       0.002  -0.004   0.002  0.00  0.00    +0.066 A 
ATOM      3  C   UNL     1       0.008  -0.816  -1.136  0.00  0.00    +0.026 A 
ATOM      4  C   UNL     1       0.027  -2.113  -0.721  0.00  0.00    +0.134 A 
ATOM      5  N   UNL     1       0.034  -2.110   0.631  0.00  0.00    -0.252 N 
ATOM      6  N   UNL     1       0.023  -0.776   1.058  0.00  0.00    -0.175 NA
ATOM      7  C   UNL     1       0.053  -3.292   1.496  0.00  0.00    +0.174 C 
ENDROOT
BRANCH   4   8
ATOM      8  N   UNL     1       0.038  -3.238  -1.541  0.00  0.00    -0.268 N 
ATOM      9  H   UNL     1       0.250  -3.150  -2.483  0.00  0.00    +0.167 HD
BRANCH   8  10
ATOM     10  N   UNL     1      -0.249  -4.467  -1.018  0.00  0.00    -0.255 NA
ATOM     11  H   UNL     1      -1.150  -4.466  -0.565  0.00  0.00    +0.140 HD
ATOM     12  H   UNL     1      -0.202  -5.182  -1.728  0.00  0.00    +0.140 HD
ENDBRANCH   8  10
ENDBRANCH   4   8
BRANCH   3  13
ATOM     13  C   UNL     1      -0.005  -0.341  -2.566  0.00  0.00    +0.115 C 
BRANCH  13  14
ATOM     14  S   UNL     1       1.700  -0.128  -3.147  0.00  0.00    -0.117 S 
BRANCH  14  15
ATOM     15  C   UNL     1       1.517   0.423  -4.811  0.00  0.00    +0.050 A 
ATOM     16  C   UNL     1       0.250   0.594  -5.352  0.00  0.00    +0.018 A 
ATOM     17  C   UNL     1       0.110   1.026  -6.657  0.00  0.00    +0.001 A 
ATOM     18  C   UNL     1       1.228   1.288  -7.427  0.00  0.00    +0.004 A 
ATOM     19  C   UNL     1       2.493   1.120  -6.894  0.00  0.00    +0.046 A 
ATOM     20  C   UNL     1       2.643   0.694  -5.586  0.00  0.00    +0.130 A 
BRANCH  20  21
ATOM     21  O   UNL     1       3.887   0.533  -5.059  0.00  0.00    -0.506 OA
ATOM     22  H   UNL     1       4.257  -0.352  -5.186  0.00  0.00    +0.292 HD
ENDBRANCH  20  21
ENDBRANCH  14  15
ENDBRANCH  13  14
ENDBRANCH   3  13
TORSDOF 6
