REMARK  Name = ZINC59434531
REMARK  5 active torsions:
REMARK  status: ('A' for Active; 'I' for Inactive)
REMARK    1  A    between atoms: C_4  and  N_22
REMARK    2  A    between atoms: C_5  and  C_7
REMARK    3  A    between atoms: N_9  and  N_10
REMARK    4  A    between atoms: C_11  and  C_12
REMARK    5  A    between atoms: C_16  and  N_18
REMARK                            x       y       z     vdW  Elec       q    Type
REMARK                         _______ _______ _______ _____ _____    ______ ____
ROOT
ATOM      1  C   UNL     1       1.508  -2.142  -0.047  0.00  0.00    +0.265 C 
ATOM      2  O   UNL     1       2.619  -2.633   0.026  0.00  0.00    -0.268 OA
ATOM      3  N   UNL     1       0.425  -2.936  -0.149  0.00  0.00    -0.203 N 
ATOM      4  H   UNL     1      -0.461  -2.544  -0.208  0.00  0.00    +0.178 HD
ENDROOT
BRANCH   1   9
ATOM      5  C   UNL     1      -0.071   1.261   0.034  0.00  0.00    +0.001 A 
ATOM      6  C   UNL     1       1.046   2.082   0.014  0.00  0.00    +0.002 A 
ATOM      7  C   UNL     1       2.313   1.537  -0.026  0.00  0.00    +0.023 A 
ATOM      8  C   UNL     1       2.477   0.158  -0.046  0.00  0.00    +0.037 A 
ATOM      9  C   UNL     1       1.348  -0.676  -0.026  0.00  0.00    +0.059 A 
ATOM     10  C   UNL     1       0.072  -0.109   0.015  0.00  0.00    +0.015 A 
BRANCH   8  11
ATOM     11  N   UNL     1       3.752  -0.393  -0.087  0.00  0.00    -0.357 N 
ATOM     12  H   UNL     1       4.526   0.183  -0.182  0.00  0.00    +0.142 HD
ATOM     13  H   UNL     1       3.867  -1.354  -0.021  0.00  0.00    +0.142 HD
ENDBRANCH   8  11
ENDBRANCH   1   9
BRANCH   3  14
ATOM     14  N   UNL     1       0.577  -4.329  -0.170  0.00  0.00    -0.187 NA
ATOM     15  C   UNL     1      -0.467  -5.094  -0.267  0.00  0.00    +0.138 C 
BRANCH  15  16
ATOM     16  C   UNL     1      -0.307  -6.560  -0.289  0.00  0.00    -0.003 A 
ATOM     17  C   UNL     1       0.967  -7.128  -0.199  0.00  0.00    +0.011 A 
ATOM     18  C   UNL     1       1.109  -8.499  -0.220  0.00  0.00    +0.023 A 
ATOM     19  C   UNL     1      -0.006  -9.313  -0.330  0.00  0.00    +0.071 A 
ATOM     20  C   UNL     1      -1.270  -8.757  -0.420  0.00  0.00    +0.145 A 
ATOM     21  C   UNL     1      -1.428  -7.387  -0.394  0.00  0.00    +0.043 A 
ATOM     22 CL   UNL     1       0.183 -11.039  -0.356  0.00  0.00    -0.081 Cl
BRANCH  20  23
ATOM     23  N   UNL     1      -2.457  -9.634  -0.539  0.00  0.00    +0.058 N 
ATOM     24  O   UNL     1      -3.562  -9.149  -0.618  0.00  0.00    -0.126 OA
ATOM     25  O   UNL     1      -2.321 -10.835  -0.556  0.00  0.00    -0.126 OA
ENDBRANCH  20  23
ENDBRANCH  15  16
ENDBRANCH   3  14
TORSDOF 5
