REMARK  Name = ZINC43093119
REMARK  6 active torsions:
REMARK  status: ('A' for Active; 'I' for Inactive)
REMARK    1  A    between atoms: C_1  and  C_2
REMARK    2  A    between atoms: C_2  and  C_4
REMARK    3  A    between atoms: C_2  and  N_23
REMARK    4  A    between atoms: C_4  and  C_6
REMARK    5  A    between atoms: C_4  and  N_13
REMARK    6  A    between atoms: C_18  and  C_20
REMARK                            x       y       z     vdW  Elec       q    Type
REMARK                         _______ _______ _______ _____ _____    ______ ____
ROOT
ATOM      1  C   UNL     1       0.370  -0.083   1.958  0.00  0.00    +0.074 C 
ENDROOT
BRANCH   1   2
ATOM      2  C   UNL     1       0.184   0.688   3.240  0.00  0.00    -0.018 A 
ATOM      3  C   UNL     1       0.793   1.918   3.402  0.00  0.00    +0.006 A 
ATOM      4  C   UNL     1       0.622   2.625   4.577  0.00  0.00    +0.000 A 
ATOM      5  C   UNL     1      -0.157   2.101   5.593  0.00  0.00    +0.001 A 
ATOM      6  C   UNL     1      -0.765   0.871   5.432  0.00  0.00    +0.015 A 
ATOM      7  C   UNL     1      -0.599   0.166   4.253  0.00  0.00    +0.022 A 
ATOM      8 BR   UNL     1      -1.437  -1.515   4.031  0.00  0.00    -0.050 Br
ENDBRANCH   1   2
BRANCH   1   9
ATOM      9  N   UNL     1       1.749   0.086   1.481  0.00  0.00    -0.286 NA
ATOM     10  C   UNL     1       1.872   1.282   0.638  0.00  0.00    +0.086 C 
ATOM     11  C   UNL     1       3.280   1.346   0.043  0.00  0.00    +0.015 C 
ATOM     12  C   UNL     1       4.307   1.391   1.178  0.00  0.00    +0.003 C 
ATOM     13  C   UNL     1       4.126   0.159   2.068  0.00  0.00    +0.028 C 
ATOM     14  C   UNL     1       2.693   0.130   2.605  0.00  0.00    +0.143 C 
BRANCH  14  15
ATOM     15  C   UNL     1       2.505  -1.093   3.466  0.00  0.00    +0.228 C 
ATOM     16  O   UNL     1       2.106  -2.126   2.974  0.00  0.00    -0.274 OA
ATOM     17  N   UNL     1       2.780  -1.037   4.785  0.00  0.00    -0.328 N 
ATOM     18  H   UNL     1       3.100  -0.210   5.179  0.00  0.00    +0.145 HD
ATOM     19  H   UNL     1       2.659  -1.824   5.339  0.00  0.00    +0.145 HD
ENDBRANCH  14  15
ENDBRANCH   1   9
BRANCH   1  21
ATOM     20  C   UNL     1      -0.730   1.963   1.036  0.00  0.00    -0.012 C 
ATOM     21  C   UNL     1      -0.603   0.444   0.902  0.00  0.00    -0.056 C 
BRANCH  21  22
ATOM     22  N   UNL     1      -1.921  -0.176   1.097  0.00  0.00    +0.381 N 
ATOM     23  H   UNL     1      -2.267   0.052   2.017  0.00  0.00    -0.090 HD
ATOM     24  H   UNL     1      -2.562   0.171   0.400  0.00  0.00    -0.090 HD
ATOM     25  H   UNL     1      -1.837  -1.178   1.008  0.00  0.00    -0.090 HD
ENDBRANCH  21  22
ENDBRANCH   1  21
TORSDOF 5
