REMARK  Name = ZINC22327434
REMARK  13 active torsions:
REMARK  status: ('A' for Active; 'I' for Inactive)
REMARK    1  A    between atoms: C_1  and  C_2
REMARK    2  A    between atoms: C_2  and  C_3
REMARK    3  A    between atoms: C_3  and  C_4
REMARK    4  A    between atoms: C_11  and  N_18
REMARK    5  A    between atoms: C_12  and  C_13
REMARK    6  A    between atoms: C_13  and  O_15
REMARK    7  A    between atoms: O_15  and  C_16
REMARK    8  A    between atoms: C_16  and  C_17
REMARK    9  A    between atoms: C_19  and  C_21
REMARK   10  A    between atoms: C_21  and  C_22
REMARK   11  A    between atoms: C_22  and  C_23
REMARK   12  A    between atoms: C_22  and  C_24
REMARK   13  A    between atoms: C_22  and  C_25
REMARK                            x       y       z     vdW  Elec       q    Type
REMARK                         _______ _______ _______ _____ _____    ______ ____
ROOT
ATOM      1  C   UNL     1      -0.122   6.378  -0.344  0.00  0.00    -0.006 C 
ATOM      2  C   UNL     1      -1.354   6.047   0.503  0.00  0.00    +0.008 C 
ATOM      3  C   UNL     1      -1.958   4.718   0.047  0.00  0.00    +0.037 C 
ATOM      4  C   UNL     1      -0.860   3.661   0.030  0.00  0.00    -0.021 A 
ATOM      5  C   UNL     1       0.444   4.012   0.019  0.00  0.00    -0.004 A 
ATOM      6  S   UNL     1       1.326   2.477   0.003  0.00  0.00    -0.077 S 
ATOM      7  C   UNL     1      -0.017   1.382   0.010  0.00  0.00    +0.086 A 
ATOM      8  C   UNL     1      -1.116   2.230   0.019  0.00  0.00    +0.091 A 
ATOM      9  C   UNL     1       1.005   5.400   0.019  0.00  0.00    +0.046 C 
ENDROOT
BRANCH   7  10
ATOM     10  N   UNL     1       0.002  -0.004   0.002  0.00  0.00    -0.279 N 
ATOM     11  C   UNL     1       1.178  -0.662  -0.012  0.00  0.00    +0.218 C 
ATOM     12  O   UNL     1       2.220  -0.041  -0.018  0.00  0.00    -0.275 OA
ATOM     13  H   UNL     1      -0.943  -0.567   0.008  0.00  0.00    +0.155 HD
BRANCH  11  14
ATOM     14  C   UNL     1       1.199  -2.169  -0.021  0.00  0.00    +0.102 C 
BRANCH  14  15
ATOM     15  C   UNL     1       2.648  -2.659  -0.036  0.00  0.00    -0.029 C 
ATOM     16  C   UNL     1       3.373  -2.146   1.209  0.00  0.00    +0.011 C 
ATOM     17  C   UNL     1       2.669  -4.189  -0.045  0.00  0.00    +0.011 C 
ATOM     18  C   UNL     1       3.351  -2.133  -1.289  0.00  0.00    +0.011 C 
ENDBRANCH  14  15
ENDBRANCH  11  14
ENDBRANCH   7  10
BRANCH   8  19
ATOM     19  C   UNL     1      -2.482   1.703   0.021  0.00  0.00    +0.342 C 
ATOM     20  O   UNL     1      -3.046   1.478   1.075  0.00  0.00    -0.245 OA
BRANCH  19  21
ATOM     21  O   UNL     1      -3.116   1.466  -1.147  0.00  0.00    -0.461 OA
BRANCH  21  22
ATOM     22  C   UNL     1      -4.468   0.944  -1.069  0.00  0.00    +0.229 C 
ATOM     23  C   UNL     1      -5.019   0.741  -2.482  0.00  0.00    +0.048 C 
ENDBRANCH  21  22
ENDBRANCH  19  21
ENDBRANCH   8  19
BRANCH   1  24
ATOM     24  C   UNL     1       0.330   7.811  -0.055  0.00  0.00    +0.003 C 
BRANCH  24  26
ATOM     25  C   UNL     1       1.933   9.614  -0.702  0.00  0.00    +0.004 C 
ATOM     26  C   UNL     1       1.482   8.181  -0.991  0.00  0.00    -0.003 C 
ENDBRANCH  24  26
ENDBRANCH   1  24
TORSDOF 8
