REMARK  Name = ZINC39571128
REMARK  5 active torsions:
REMARK  status: ('A' for Active; 'I' for Inactive)
REMARK    1  A    between atoms: C_8  and  C_11
REMARK    2  A    between atoms: C_13  and  C_17
REMARK    3  A    between atoms: N_19  and  N_20
REMARK    4  A    between atoms: C_21  and  C_22
REMARK    5  A    between atoms: C_25  and  N_28
REMARK                            x       y       z     vdW  Elec       q    Type
REMARK                         _______ _______ _______ _____ _____    ______ ____
ROOT
ATOM      1  C   UNL     1       0.206  -2.960  -0.017  0.00  0.00    +0.092 C 
ATOM      2  C   UNL     1      -1.071  -2.541   0.087  0.00  0.00    +0.041 C 
ATOM      3  C   UNL     1      -1.880  -3.825   0.042  0.00  0.00    +0.240 C 
ATOM      4  N   UNL     1      -0.849  -4.867  -0.092  0.00  0.00    -0.170 NA
ATOM      5  N   UNL     1       0.253  -4.314  -0.123  0.00  0.00    -0.153 NA
ENDROOT
BRANCH   1  13
ATOM      6  C   UNL     1       4.295  -4.377   0.024  0.00  0.00    +0.001 A 
ATOM      7  C   UNL     1       5.352  -3.464   0.019  0.00  0.00    +0.004 A 
ATOM      8  C   UNL     1       5.104  -2.126   0.001  0.00  0.00    -0.039 A 
ATOM      9  C   UNL     1       3.777  -1.707  -0.013  0.00  0.00    -0.011 A 
ATOM     10  C   UNL     1       3.607  -0.325  -0.032  0.00  0.00    -0.039 A 
ATOM     11  C   UNL     1       2.337   0.170  -0.046  0.00  0.00    +0.005 A 
ATOM     12  C   UNL     1       1.242  -0.691  -0.042  0.00  0.00    +0.011 A 
ATOM     13  C   UNL     1       1.390  -2.070  -0.022  0.00  0.00    +0.010 A 
ATOM     14  C   UNL     1       2.699  -2.608  -0.008  0.00  0.00    -0.008 A 
ATOM     15  C   UNL     1       2.988  -3.979   0.011  0.00  0.00    +0.009 A 
ATOM     16  C   UNL     1       4.982   0.299  -0.031  0.00  0.00    +0.040 C 
ATOM     17  C   UNL     1       5.969  -0.889  -0.009  0.00  0.00    +0.040 C 
ENDBRANCH   1  13
BRANCH   3  18
ATOM     18  C   UNL     1      -2.805  -3.830  -1.147  0.00  0.00    +0.263 C 
ATOM     19  O   UNL     1      -2.501  -4.441  -2.150  0.00  0.00    -0.271 OA
ATOM     20  N   UNL     1      -3.971  -3.155  -1.098  0.00  0.00    -0.205 N 
ATOM     21  H   UNL     1      -4.214  -2.666  -0.296  0.00  0.00    +0.177 HD
BRANCH  20  22
ATOM     22  N   UNL     1      -4.831  -3.159  -2.204  0.00  0.00    -0.188 NA
ATOM     23  C   UNL     1      -5.953  -2.509  -2.156  0.00  0.00    +0.138 C 
BRANCH  23  24
ATOM     24  C   UNL     1      -6.858  -2.514  -3.320  0.00  0.00    -0.005 A 
ATOM     25  C   UNL     1      -6.513  -3.222  -4.474  0.00  0.00    +0.012 A 
ATOM     26  C   UNL     1      -7.365  -3.222  -5.559  0.00  0.00    +0.033 A 
ATOM     27  C   UNL     1      -8.557  -2.522  -5.507  0.00  0.00    +0.126 A 
ATOM     28  C   UNL     1      -8.905  -1.819  -4.367  0.00  0.00    +0.033 A 
ATOM     29  C   UNL     1      -8.066  -1.815  -3.272  0.00  0.00    +0.012 A 
BRANCH  27  30
ATOM     30  N   UNL     1      -9.466  -2.527  -6.676  0.00  0.00    +0.056 N 
ATOM     31  O   UNL     1      -9.165  -3.140  -7.673  0.00  0.00    -0.126 OA
ATOM     32  O   UNL     1     -10.509  -1.917  -6.633  0.00  0.00    -0.126 OA
ENDBRANCH  27  30
ENDBRANCH  23  24
ENDBRANCH  20  22
ENDBRANCH   3  18
TORSDOF 5
