REMARK  Name = ZINC39231247
REMARK  3 active torsions:
REMARK  status: ('A' for Active; 'I' for Inactive)
REMARK    1  A    between atoms: C_4  and  C_7
REMARK    2  A    between atoms: C_17  and  C_20
REMARK    3  A    between atoms: N_32  and  C_33
REMARK                            x       y       z     vdW  Elec       q    Type
REMARK                         _______ _______ _______ _____ _____    ______ ____
ROOT
ATOM      1  C   UNL     1       3.298  -3.269   1.231  0.00  0.00    -0.023 C 
ATOM      2  C   UNL     1       4.781  -3.033   0.929  0.00  0.00    +0.095 C 
ATOM      3  N   UNL     1       5.163  -1.718   1.466  0.00  0.00    -0.318 N 
ATOM      4  C   UNL     1       4.325  -0.559   1.122  0.00  0.00    +0.087 C 
ATOM      5  C   UNL     1       2.863  -0.912   1.414  0.00  0.00    -0.062 C 
ATOM      6  N   UNL     1       2.508  -2.148   0.707  0.00  0.00    +0.386 N 
ATOM      7  C   UNL     1       6.278  -1.575   2.274  0.00  0.00    +0.121 A 
ATOM      8  C   UNL     1       7.051  -2.694   2.582  0.00  0.00    +0.044 A 
ATOM      9  C   UNL     1       8.153  -2.549   3.381  0.00  0.00    +0.018 A 
ATOM     10  C   UNL     1       8.467  -1.269   3.864  0.00  0.00    +0.055 A 
ATOM     11  C   UNL     1       7.648  -0.194   3.514  0.00  0.00    +0.126 A 
ATOM     12  N   UNL     1       6.600  -0.376   2.739  0.00  0.00    -0.240 NA
ATOM     13  H   UNL     1       2.697  -2.037  -0.278  0.00  0.00    -0.085 HD
ATOM     14  H   UNL     1       1.526  -2.340   0.838  0.00  0.00    -0.085 HD
ENDROOT
BRANCH  10  15
ATOM     15  C   UNL     1       9.644  -1.063   4.728  0.00  0.00    +0.248 C 
ATOM     16  O   UNL     1       9.607  -0.237   5.620  0.00  0.00    -0.270 OA
ATOM     17  N   UNL     1      10.762  -1.790   4.529  0.00  0.00    -0.297 N 
ATOM     18  C   UNL     1      10.864  -2.708   3.386  0.00  0.00    +0.110 C 
ATOM     19  C   UNL     1      12.133  -2.370   2.596  0.00  0.00    +0.054 C 
ATOM     20  C   UNL     1      13.337  -2.393   3.538  0.00  0.00    +0.115 C 
ATOM     21  C   UNL     1      13.159  -1.353   4.644  0.00  0.00    +0.054 C 
ATOM     22  C   UNL     1      11.902  -1.676   5.449  0.00  0.00    +0.110 C 
ATOM     23  C   UNL     1      14.601  -2.116   2.767  0.00  0.00    +0.238 C 
ATOM     24  O   UNL     1      14.838  -1.102   2.145  0.00  0.00    -0.273 OA
ATOM     25  N   UNL     1      15.424  -3.172   2.879  0.00  0.00    -0.298 N 
ATOM     26  C   UNL     1      14.807  -4.210   3.704  0.00  0.00    +0.214 C 
ATOM     27  N   UNL     1      13.486  -3.729   4.127  0.00  0.00    -0.300 N 
ATOM     28  H   UNL     1      16.302  -3.237   2.471  0.00  0.00    +0.150 HD
BRANCH  27  29
ATOM     29  C   UNL     1      12.561  -4.404   4.927  0.00  0.00    +0.032 A 
ATOM     30  C   UNL     1      11.382  -3.776   5.309  0.00  0.00    +0.023 A 
ATOM     31  C   UNL     1      10.470  -4.447   6.100  0.00  0.00    +0.002 A 
ATOM     32  C   UNL     1      10.728  -5.741   6.511  0.00  0.00    +0.000 A 
ATOM     33  C   UNL     1      11.901  -6.369   6.132  0.00  0.00    +0.002 A 
ATOM     34  C   UNL     1      12.815  -5.707   5.337  0.00  0.00    +0.023 A 
ENDBRANCH  27  29
ENDBRANCH  10  15
BRANCH   1  38
ATOM     35  C   UNL     1       2.024  -6.899  -0.627  0.00  0.00    +0.000 A 
ATOM     36  C   UNL     1       2.333  -6.883   0.720  0.00  0.00    +0.000 A 
ATOM     37  C   UNL     1       2.745  -5.709   1.321  0.00  0.00    +0.002 A 
ATOM     38  C   UNL     1       2.849  -4.550   0.575  0.00  0.00    -0.060 A 
ATOM     39  C   UNL     1       2.542  -4.566  -0.773  0.00  0.00    +0.002 A 
ATOM     40  C   UNL     1       2.128  -5.740  -1.373  0.00  0.00    +0.000 A 
ENDBRANCH   1  38
TORSDOF 3
