REMARK  Name = ZINC39689402
REMARK  7 active torsions:
REMARK  status: ('A' for Active; 'I' for Inactive)
REMARK    1  A    between atoms: C_1  and  C_2
REMARK    2  A    between atoms: C_6  and  C_8
REMARK    3  A    between atoms: C_8  and  C_9
REMARK    4  A    between atoms: C_9  and  N_10
REMARK    5  A    between atoms: C_11  and  C_13
REMARK    6  A    between atoms: C_24  and  C_26
REMARK    7  A    between atoms: C_30  and  C_32
REMARK                            x       y       z     vdW  Elec       q    Type
REMARK                         _______ _______ _______ _____ _____    ______ ____
ROOT
ATOM      1  C   UNL     1       2.838  -4.221   6.061  0.00  0.00    +0.100 C 
ATOM      2  C   UNL     1       2.140  -3.654   7.317  0.00  0.00    +0.121 C 
ATOM      3  N   UNL     1       2.994  -4.089   8.448  0.00  0.00    -0.296 N 
ATOM      4  C   UNL     1       4.380  -3.941   7.942  0.00  0.00    +0.115 C 
ATOM      5  C   UNL     1       4.307  -4.407   6.475  0.00  0.00    -0.004 C 
ATOM      6  C   UNL     1       5.215  -3.546   5.602  0.00  0.00    -0.010 C 
ATOM      7  C   UNL     1       6.675  -3.792   5.994  0.00  0.00    -0.082 C 
ATOM      8  N   UNL     1       6.998  -5.213   5.817  0.00  0.00    +0.379 N 
ATOM      9  C   UNL     1       6.185  -6.028   6.728  0.00  0.00    -0.082 C 
ATOM     10  C   UNL     1       4.704  -5.877   6.368  0.00  0.00    -0.010 C 
ATOM     11  C   UNL     1       2.599  -4.522   9.662  0.00  0.00    +0.247 C 
ATOM     12  O   UNL     1       1.420  -4.712   9.886  0.00  0.00    -0.270 OA
ATOM     13  H   UNL     1       6.807  -5.484   4.864  0.00  0.00    -0.086 HD
ATOM     14  H   UNL     1       7.976  -5.362   6.017  0.00  0.00    -0.086 HD
ENDROOT
BRANCH  11  15
ATOM     15  C   UNL     1       3.600  -4.766  10.720  0.00  0.00    +0.037 A 
ATOM     16  C   UNL     1       4.859  -4.165  10.646  0.00  0.00    +0.016 A 
ATOM     17  C   UNL     1       5.790  -4.397  11.636  0.00  0.00    +0.039 A 
ATOM     18  C   UNL     1       5.478  -5.224  12.705  0.00  0.00    +0.126 A 
ATOM     19  C   UNL     1       4.230  -5.823  12.783  0.00  0.00    -0.015 A 
ATOM     20  C   UNL     1       3.290  -5.594  11.801  0.00  0.00    +0.019 A 
ATOM     21  C   UNL     1       3.898  -6.722  13.946  0.00  0.00    +0.047 C 
ATOM     22  F   UNL     1       6.394  -5.448  13.672  0.00  0.00    -0.205 F 
ENDBRANCH  11  15
BRANCH   1  24
ATOM     23  N   UNL     1       2.699  -3.696   3.648  0.00  0.00    -0.315 N 
ATOM     24  C   UNL     1       2.735  -3.245   4.917  0.00  0.00    +0.218 C 
ATOM     25  O   UNL     1       2.683  -2.054   5.139  0.00  0.00    -0.275 OA
ATOM     26  H   UNL     1       2.740  -4.649   3.470  0.00  0.00    +0.149 HD
BRANCH  23  27
ATOM     27  C   UNL     1       2.599  -2.747   2.536  0.00  0.00    +0.109 C 
BRANCH  27  28
ATOM     28  C   UNL     1       2.577  -3.514   1.212  0.00  0.00    +0.054 C 
BRANCH  28  34
ATOM     29  C   UNL     1      -0.217  -0.838  -1.964  0.00  0.00    +0.044 C 
ATOM     30  C   UNL     1       1.137  -1.258  -1.451  0.00  0.00    -0.050 A 
ATOM     31  C   UNL     1       2.284  -0.748  -2.031  0.00  0.00    +0.003 A 
ATOM     32  C   UNL     1       3.526  -1.133  -1.561  0.00  0.00    +0.001 A 
ATOM     33  C   UNL     1       3.620  -2.028  -0.511  0.00  0.00    +0.004 A 
ATOM     34  C   UNL     1       2.474  -2.538   0.068  0.00  0.00    -0.046 A 
ATOM     35  C   UNL     1       1.232  -2.149  -0.399  0.00  0.00    +0.007 A 
ENDBRANCH  28  34
ENDBRANCH  27  28
ENDBRANCH  23  27
ENDBRANCH   1  24
TORSDOF 5
