REMARK  Name = ZINC20086024
REMARK  8 active torsions:
REMARK  status: ('A' for Active; 'I' for Inactive)
REMARK    1  A    between atoms: C_4  and  C_7
REMARK    2  A    between atoms: C_7  and  C_9
REMARK    3  A    between atoms: C_11  and  C_28
REMARK    4  A    between atoms: C_13  and  C_26
REMARK    5  A    between atoms: C_14  and  N_25
REMARK    6  A    between atoms: N_15  and  S_16
REMARK    7  A    between atoms: S_16  and  C_19
REMARK    8  A    between atoms: C_31  and  N_34
REMARK                            x       y       z     vdW  Elec       q    Type
REMARK                         _______ _______ _______ _____ _____    ______ ____
ROOT
ATOM      1  C   UNL     1       0.603   3.751   0.015  0.00  0.00    +0.182 C 
ATOM      2  C   UNL     1       1.197   2.330   0.003  0.00  0.00    +0.092 C 
ATOM      3  C   UNL     1      -0.017   1.428   0.010  0.00  0.00    +0.076 C 
ATOM      4  C   UNL     1      -1.129   2.207   0.019  0.00  0.00    +0.119 C 
ATOM      5  N   UNL     1      -0.851   3.543   0.028  0.00  0.00    -0.178 N 
ENDROOT
BRANCH   2   6
ATOM      6  C   UNL     1       2.036   2.097   1.233  0.00  0.00    -0.037 A 
ATOM      7  C   UNL     1       1.487   2.279   2.489  0.00  0.00    +0.006 A 
ATOM      8  C   UNL     1       2.255   2.060   3.617  0.00  0.00    +0.033 A 
ATOM      9  C   UNL     1       3.575   1.670   3.490  0.00  0.00    +0.126 A 
ATOM     10  C   UNL     1       4.125   1.493   2.235  0.00  0.00    +0.033 A 
ATOM     11  C   UNL     1       3.356   1.707   1.106  0.00  0.00    +0.006 A 
BRANCH   9  12
ATOM     12  N   UNL     1       4.399   1.442   4.698  0.00  0.00    +0.056 N 
ATOM     13  O   UNL     1       5.562   1.098   4.586  0.00  0.00    -0.126 OA
ATOM     14  O   UNL     1       3.914   1.597   5.805  0.00  0.00    -0.126 OA
ENDBRANCH   9  12
ENDBRANCH   2   6
BRANCH   5  15
ATOM     15  S   UNL     1      -1.984   4.751   0.045  0.00  0.00    +0.076 S 
ATOM     16  O   UNL     1      -3.165   4.191   0.603  0.00  0.00    -0.150 OA
ATOM     17  O   UNL     1      -1.349   5.896   0.596  0.00  0.00    -0.150 OA
BRANCH  15  18
ATOM     18  C   UNL     1      -2.356   5.139  -1.633  0.00  0.00    +0.109 A 
ATOM     19  C   UNL     1      -1.633   6.115  -2.293  0.00  0.00    +0.029 A 
ATOM     20  C   UNL     1      -1.921   6.416  -3.611  0.00  0.00    +0.002 A 
ATOM     21  C   UNL     1      -2.940   5.750  -4.266  0.00  0.00    +0.000 A 
ATOM     22  C   UNL     1      -3.667   4.777  -3.604  0.00  0.00    +0.002 A 
ATOM     23  C   UNL     1      -3.375   4.472  -2.288  0.00  0.00    +0.029 A 
ENDBRANCH  15  18
ENDBRANCH   5  15
BRANCH   4  24
ATOM     24  N   UNL     1      -2.406   1.702   0.022  0.00  0.00    -0.344 N 
ATOM     25  H   UNL     1      -3.268   2.385   0.029  0.00  0.00    +0.144 HD
ATOM     26  H   UNL     1      -2.566   0.614   0.017  0.00  0.00    +0.144 HD
ENDBRANCH   4  24
BRANCH   1  27
ATOM     27  C   UNL     1       1.039   4.492   1.253  0.00  0.00    +0.186 C 
ATOM     28  O   UNL     1       0.288   4.585   2.200  0.00  0.00    -0.290 OA
BRANCH  27  32
ATOM     29  C   UNL     1       4.894   6.255   1.423  0.00  0.00    +0.000 A 
ATOM     30  C   UNL     1       4.039   6.363   2.506  0.00  0.00    +0.001 A 
ATOM     31  C   UNL     1       2.784   5.793   2.459  0.00  0.00    +0.011 A 
ATOM     32  C   UNL     1       2.376   5.104   1.312  0.00  0.00    +0.019 A 
ATOM     33  C   UNL     1       3.248   4.995   0.224  0.00  0.00    +0.011 A 
ATOM     34  C   UNL     1       4.497   5.575   0.284  0.00  0.00    +0.001 A 
ENDBRANCH  27  32
ENDBRANCH   1  27
BRANCH   3  35
ATOM     35  C   UNL     1       0.002  -0.004   0.002  0.00  0.00    +0.099 C 
ATOM     36  N   UNL     1       0.018  -1.140  -0.004  0.00  0.00    -0.191 NA
ENDBRANCH   3  35
TORSDOF 8
