REMARK  Name = ZINC19447518
REMARK  5 active torsions:
REMARK  status: ('A' for Active; 'I' for Inactive)
REMARK    1  A    between atoms: C_1  and  C_2
REMARK    2  A    between atoms: C_2  and  C_3
REMARK    3  A    between atoms: C_2  and  C_4
REMARK    4  A    between atoms: C_4  and  C_5
REMARK    5  A    between atoms: C_18  and  N_20
REMARK                            x       y       z     vdW  Elec       q    Type
REMARK                         _______ _______ _______ _____ _____    ______ ____
ROOT
ATOM      1  C   UNL     1       3.574   3.382   0.072  0.00  0.00    +0.044 A 
ATOM      2  C   UNL     1       2.385   4.084   0.005  0.00  0.00    +0.033 A 
ATOM      3  C   UNL     1       1.194   3.372  -0.075  0.00  0.00    +0.005 A 
ATOM      4  C   UNL     1      -0.126   4.020  -0.149  0.00  0.00    +0.025 A 
ATOM      5  C   UNL     1      -0.244   5.409  -0.144  0.00  0.00    +0.012 A 
ATOM      6  C   UNL     1      -1.491   5.991  -0.213  0.00  0.00    +0.001 A 
ATOM      7  C   UNL     1      -2.626   5.199  -0.290  0.00  0.00    +0.004 A 
ATOM      8  C   UNL     1      -2.522   3.824  -0.298  0.00  0.00    +0.047 A 
ATOM      9  C   UNL     1      -1.273   3.217  -0.227  0.00  0.00    +0.140 A 
ATOM     10  O   UNL     1      -1.181   1.868  -0.240  0.00  0.00    -0.422 OA
ATOM     11  C   UNL     1      -0.010   1.214  -0.169  0.00  0.00    +0.348 A 
ATOM     12  O   UNL     1       0.007  -0.003  -0.180  0.00  0.00    -0.244 OA
ATOM     13  C   UNL     1       1.247   1.960  -0.085  0.00  0.00    +0.107 A 
ATOM     14  C   UNL     1       2.496   1.330  -0.014  0.00  0.00    +0.131 A 
ATOM     15  N   UNL     1       3.599   2.062   0.061  0.00  0.00    -0.236 NA
ENDROOT
BRANCH  14  16
ATOM     16  N   UNL     1       2.579  -0.050  -0.023  0.00  0.00    -0.342 N 
ATOM     17  H   UNL     1       3.561  -0.543   0.033  0.00  0.00    +0.144 HD
ATOM     18  H   UNL     1       1.663  -0.656  -0.085  0.00  0.00    +0.144 HD
ENDBRANCH  14  16
BRANCH   1  19
ATOM     19  C   UNL     1       4.873   4.142   0.160  0.00  0.00    +0.058 C 
BRANCH  19  21
ATOM     20  C   UNL     1       6.056   2.207   1.208  0.00  0.00    +0.007 C 
ATOM     21  C   UNL     1       5.656   3.673   1.387  0.00  0.00    -0.011 C 
ATOM     22  C   UNL     1       6.914   4.529   1.547  0.00  0.00    +0.007 C 
ENDBRANCH  19  21
ENDBRANCH   1  19
TORSDOF 3
