REMARK  Name = ZINC39326555
REMARK  6 active torsions:
REMARK  status: ('A' for Active; 'I' for Inactive)
REMARK    1  A    between atoms: C_1  and  C_2
REMARK    2  A    between atoms: C_5  and  N_8
REMARK    3  A    between atoms: C_9  and  C_11
REMARK    4  A    between atoms: C_11  and  C_23
REMARK    5  A    between atoms: N_12  and  N_13
REMARK    6  A    between atoms: C_18  and  C_20
REMARK                            x       y       z     vdW  Elec       q    Type
REMARK                         _______ _______ _______ _____ _____    ______ ____
ROOT
ATOM      1  C   UNL     1       0.073  -6.716   1.135  0.00  0.00    +0.224 C 
ATOM      2  N   UNL     1       0.022  -7.282  -0.060  0.00  0.00    -0.132 NA
ENDROOT
BRANCH   2   3
ATOM      3  N   UNL     1      -0.029  -6.548  -1.120  0.00  0.00    -0.130 NA
ATOM      4  C   UNL     1      -0.182  -7.112  -2.310  0.00  0.00    +0.182 C 
ATOM      5  N   UNL     1      -0.398  -8.401  -2.570  0.00  0.00    -0.221 NA
ATOM      6  C   UNL     1      -0.505  -8.643  -3.849  0.00  0.00    +0.184 C 
ATOM      7  N   UNL     1      -0.374  -7.537  -4.604  0.00  0.00    -0.318 N 
ATOM      8  C   UNL     1      -0.155  -6.424  -3.662  0.00  0.00    +0.228 C 
ATOM      9  H   UNL     1      -0.418  -7.482  -5.571  0.00  0.00    +0.148 HD
BRANCH   8  10
ATOM     10  C   UNL     1       1.185  -5.778  -3.905  0.00  0.00    +0.239 C 
ATOM     11  O   UNL     1       2.009  -6.335  -4.598  0.00  0.00    -0.274 OA
ATOM     12  N   UNL     1       1.467  -4.582  -3.351  0.00  0.00    -0.327 N 
ATOM     13  H   UNL     1       0.838  -4.171  -2.739  0.00  0.00    +0.145 HD
ATOM     14  H   UNL     1       2.300  -4.134  -3.564  0.00  0.00    +0.145 HD
ENDBRANCH   8  10
ENDBRANCH   2   3
BRANCH   1  16
ATOM     15  N   UNL     1       0.359  -4.689   2.464  0.00  0.00    -0.280 N 
ATOM     16  C   UNL     1       0.199  -5.256   1.252  0.00  0.00    +0.279 C 
ATOM     17  O   UNL     1       0.159  -4.560   0.255  0.00  0.00    -0.267 OA
ATOM     18  H   UNL     1       0.518  -5.245   3.243  0.00  0.00    +0.155 HD
BRANCH  15  23
ATOM     19  C   UNL     1       0.100   0.951   3.012  0.00  0.00    +0.044 C 
ATOM     20  C   UNL     1       0.169  -0.547   2.866  0.00  0.00    -0.050 A 
ATOM     21  C   UNL     1      -0.227  -1.361   3.912  0.00  0.00    +0.005 A 
ATOM     22  C   UNL     1      -0.165  -2.735   3.782  0.00  0.00    +0.023 A 
ATOM     23  C   UNL     1       0.295  -3.299   2.599  0.00  0.00    +0.034 A 
ATOM     24  C   UNL     1       0.691  -2.479   1.550  0.00  0.00    +0.023 A 
ATOM     25  C   UNL     1       0.622  -1.106   1.685  0.00  0.00    +0.005 A 
ENDBRANCH  15  23
ENDBRANCH   1  16
BRANCH   1  26
ATOM     26  C   UNL     1       0.007  -7.526   2.314  0.00  0.00    +0.126 C 
ATOM     27  N   UNL     1      -0.046  -8.169   3.249  0.00  0.00    -0.189 NA
ENDBRANCH   1  26
TORSDOF 5
