REMARK  Name = ZINC43594174
REMARK  3 active torsions:
REMARK  status: ('A' for Active; 'I' for Inactive)
REMARK    1  A    between atoms: N_9  and  C_15
REMARK    2  A    between atoms: C_10  and  C_12
REMARK    3  A    between atoms: C_15  and  C_16
REMARK                            x       y       z     vdW  Elec       q    Type
REMARK                         _______ _______ _______ _____ _____    ______ ____
ROOT
ATOM      1  C   UNL     1      -0.017   1.376   0.010  0.00  0.00    +0.000 A 
ATOM      2  C   UNL     1       1.173   2.080   0.002  0.00  0.00    +0.000 A 
ATOM      3  C   UNL     1       2.375   1.401  -0.015  0.00  0.00    +0.003 A 
ATOM      4  C   UNL     1       2.395   0.014  -0.023  0.00  0.00    -0.047 A 
ATOM      5  C   UNL     1       1.208  -0.687  -0.013  0.00  0.00    -0.047 A 
ATOM      6  C   UNL     1       0.002  -0.004   0.002  0.00  0.00    +0.004 A 
ATOM      7  C   UNL     1       1.186  -2.194  -0.014  0.00  0.00    +0.017 C 
ATOM      8  C   UNL     1       2.554  -2.732  -0.434  0.00  0.00    -0.072 C 
ATOM      9  N   UNL     1       3.587  -2.079   0.386  0.00  0.00    +0.396 N 
ATOM     10  C   UNL     1       3.728  -0.686  -0.046  0.00  0.00    +0.078 C 
ATOM     11  H   UNL     1       3.313  -2.106   1.357  0.00  0.00    -0.080 HD
ENDROOT
BRANCH  10  12
ATOM     12  C   UNL     1       4.680   0.027   0.880  0.00  0.00    +0.347 C 
ATOM     13  O   UNL     1       4.753  -0.304   2.051  0.00  0.00    -0.248 OA
ATOM     14  O   UNL     1       5.376   0.934   0.458  0.00  0.00    -0.248 OA
ENDBRANCH  10  12
BRANCH   9  15
ATOM     15  C   UNL     1       4.866  -2.780   0.214  0.00  0.00    -0.001 C 
BRANCH  15  16
ATOM     16  C   UNL     1       4.750  -4.179   0.760  0.00  0.00    +0.090 A 
ATOM     17  C   UNL     1       4.369  -5.266   0.066  0.00  0.00    +0.044 A 
ATOM     18  C   UNL     1       4.401  -6.358   0.963  0.00  0.00    +0.057 A 
ATOM     19  C   UNL     1       4.800  -5.873   2.153  0.00  0.00    +0.170 A 
ATOM     20  O   UNL     1       5.016  -4.554   2.023  0.00  0.00    -0.455 OA
ATOM     21 BR   UNL     1       5.026  -6.880   3.738  0.00  0.00    -0.008 Br
ENDBRANCH  15  16
ENDBRANCH   9  15
TORSDOF 3
