REMARK  Name = ZINC45716537
REMARK  7 active torsions:
REMARK  status: ('A' for Active; 'I' for Inactive)
REMARK    1  A    between atoms: C_1  and  C_2
REMARK    2  A    between atoms: C_2  and  N_3
REMARK    3  A    between atoms: N_3  and  C_4
REMARK    4  A    between atoms: C_5  and  N_20
REMARK    5  A    between atoms: N_6  and  C_13
REMARK    6  A    between atoms: C_13  and  C_14
REMARK    7  A    between atoms: C_21  and  C_23
REMARK                            x       y       z     vdW  Elec       q    Type
REMARK                         _______ _______ _______ _____ _____    ______ ____
ROOT
ATOM      1  C   UNL     1       1.554  -1.891  -1.569  0.00  0.00    +0.140 A 
ATOM      2  C   UNL     1       1.420  -2.965  -2.425  0.00  0.00    +0.128 A 
ATOM      3  N   UNL     1       2.516  -3.751  -2.694  0.00  0.00    -0.276 N 
ATOM      4  C   UNL     1       3.705  -3.477  -2.128  0.00  0.00    +0.331 A 
ATOM      5  O   UNL     1       4.663  -4.184  -2.377  0.00  0.00    -0.246 OA
ATOM      6  N   UNL     1       3.855  -2.435  -1.291  0.00  0.00    -0.273 N 
ATOM      7  H   UNL     1       4.723  -2.258  -0.896  0.00  0.00    +0.173 HD
ATOM      8  C   UNL     1       2.814  -1.630  -0.999  0.00  0.00    +0.277 A 
ATOM      9  O   UNL     1       2.962  -0.685  -0.243  0.00  0.00    -0.266 OA
ENDROOT
BRANCH   1  10
ATOM     10  N   UNL     1       0.448  -1.067  -1.274  0.00  0.00    -0.264 N 
ATOM     11  C   UNL     1      -0.139  -0.349  -2.254  0.00  0.00    +0.228 C 
ATOM     12  O   UNL     1      -1.129   0.309  -2.014  0.00  0.00    -0.275 OA
BRANCH  11  13
ATOM     13  C   UNL     1       0.435  -0.365  -3.647  0.00  0.00    +0.116 C 
ATOM     14  C   UNL     1       1.574   0.650  -3.741  0.00  0.00    +0.113 C 
ATOM     15  C   UNL     1       1.018   2.049  -3.712  0.00  0.00    +0.218 C 
ATOM     16  O   UNL     1       1.639   2.930  -3.156  0.00  0.00    -0.275 OA
ATOM     17  N   UNL     1      -0.161   2.333  -4.295  0.00  0.00    -0.285 N 
ATOM     18  C   UNL     1      -0.900   1.327  -4.925  0.00  0.00    +0.037 A 
ATOM     19  C   UNL     1      -0.641  -0.007  -4.638  0.00  0.00    -0.014 A 
ATOM     20  C   UNL     1      -1.370  -1.000  -5.261  0.00  0.00    +0.006 A 
ATOM     21  C   UNL     1      -2.357  -0.667  -6.171  0.00  0.00    +0.000 A 
ATOM     22  C   UNL     1      -2.618   0.660  -6.459  0.00  0.00    +0.002 A 
ATOM     23  C   UNL     1      -1.893   1.658  -5.837  0.00  0.00    +0.023 A 
ATOM     24  H   UNL     1      -0.500   3.241  -4.278  0.00  0.00    +0.155 HD
ENDBRANCH  11  13
BRANCH  10  26
ATOM     25  C   UNL     1       0.517   0.247   0.788  0.00  0.00    +0.025 C 
ATOM     26  C   UNL     1      -0.062  -0.989   0.097  0.00  0.00    +0.110 C 
ENDBRANCH  10  26
ENDBRANCH   1  10
BRANCH   2  27
ATOM     27  N   UNL     1       0.205  -3.246  -3.003  0.00  0.00    -0.343 N 
ATOM     28  H   UNL     1      -0.532  -2.622  -2.911  0.00  0.00    +0.144 HD
ATOM     29  H   UNL     1       0.084  -4.068  -3.503  0.00  0.00    +0.144 HD
ENDBRANCH   2  27
BRANCH   3  30
ATOM     30  C   UNL     1       2.388  -4.894  -3.601  0.00  0.00    +0.163 C 
BRANCH  30  31
ATOM     31  C   UNL     1       2.674  -4.450  -5.012  0.00  0.00    -0.028 A 
ATOM     32  C   UNL     1       1.647  -3.987  -5.813  0.00  0.00    +0.005 A 
ATOM     33  C   UNL     1       1.910  -3.580  -7.108  0.00  0.00    +0.000 A 
ATOM     34  C   UNL     1       3.200  -3.634  -7.601  0.00  0.00    +0.000 A 
ATOM     35  C   UNL     1       4.227  -4.096  -6.800  0.00  0.00    +0.000 A 
ATOM     36  C   UNL     1       3.965  -4.499  -5.504  0.00  0.00    +0.005 A 
ENDBRANCH  30  31
ENDBRANCH   3  30
TORSDOF 6
