REMARK  Name = ZINC01762343
REMARK  3 active torsions:
REMARK  status: ('A' for Active; 'I' for Inactive)
REMARK    1  A    between atoms: C_1  and  C_3
REMARK    2  A    between atoms: C_4  and  C_8
REMARK    3  A    between atoms: C_5  and  C_6
REMARK                            x       y       z     vdW  Elec       q    Type
REMARK                         _______ _______ _______ _____ _____    ______ ____
ROOT
ATOM      1  C   UNL     1      -0.013   1.086   0.008  0.00  0.00    +0.128 C 
ATOM      2  C   UNL     1      -1.136   1.773   0.788  0.00  0.00    +0.128 C 
ATOM      3  C   UNL     1      -1.150   1.781  -0.743  0.00  0.00    +0.128 C 
ENDROOT
BRANCH   1   4
ATOM      4  C   UNL     1       1.307   1.739  -0.001  0.00  0.00    +0.069 C 
ATOM      5  N   UNL     1       2.325   2.243  -0.008  0.00  0.00    -0.196 NA
ENDBRANCH   1   4
BRANCH   3   6
ATOM      6  C   UNL     1      -2.140   0.927  -1.418  0.00  0.00    +0.069 C 
ATOM      7  N   UNL     1      -2.905   0.268  -1.940  0.00  0.00    -0.196 NA
ENDBRANCH   3   6
BRANCH   2   8
ATOM      8  C   UNL     1      -0.814   3.036   1.471  0.00  0.00    +0.069 C 
ATOM      9  N   UNL     1      -0.566   4.011   1.998  0.00  0.00    -0.196 NA
ENDBRANCH   2   8
TORSDOF 3
