REMARK  Name = ZINC02122889
REMARK  11 active torsions:
REMARK  status: ('A' for Active; 'I' for Inactive)
REMARK    1  A    between atoms: C_1  and  C_2
REMARK    2  A    between atoms: C_6  and  C_31
REMARK    3  A    between atoms: C_10  and  C_30
REMARK    4  A    between atoms: C_15  and  C_16
REMARK    5  A    between atoms: C_16  and  C_17
REMARK    6  A    between atoms: N_19  and  CA_20
REMARK    7  A    between atoms: CA_20  and  C_22
REMARK    8  A    between atoms: CA_20  and  C_28
REMARK    9  A    between atoms: C_31  and  C_32
REMARK   10  A    between atoms: C_31  and  C_33
REMARK   11  A    between atoms: C_31  and  C_34
REMARK                            x       y       z     vdW  Elec       q    Type
REMARK                         _______ _______ _______ _____ _____    ______ ____
ROOT
ATOM      1  C   UNL     1       0.695   5.048  -4.079  0.00  0.00    +0.045 C 
ATOM      2  C   UNL     1       0.859   3.840  -4.965  0.00  0.00    -0.029 A 
ATOM      3  C   UNL     1       1.782   3.861  -6.104  0.00  0.00    +0.022 A 
ATOM      4  C   UNL     1       2.529   5.003  -6.396  0.00  0.00    +0.023 A 
ATOM      5  C   UNL     1       3.389   4.991  -7.485  0.00  0.00    +0.025 A 
ATOM      6  C   UNL     1       4.304   5.978  -8.075  0.00  0.00    +0.003 A 
ATOM      7  C   UNL     1       4.869   5.379  -9.131  0.00  0.00    +0.200 A 
ATOM      8  O   UNL     1       4.402   4.124  -9.259  0.00  0.00    -0.462 OA
ATOM      9  C   UNL     1       3.506   3.841  -8.291  0.00  0.00    +0.141 A 
ATOM     10  C   UNL     1       2.760   2.710  -7.995  0.00  0.00    +0.035 A 
ATOM     11  C   UNL     1       1.900   2.710  -6.910  0.00  0.00    +0.146 A 
ATOM     12  O   UNL     1       1.169   1.611  -6.618  0.00  0.00    -0.422 OA
ATOM     13  C   UNL     1       0.327   1.585  -5.574  0.00  0.00    +0.341 A 
ATOM     14  O   UNL     1      -0.310   0.572  -5.351  0.00  0.00    -0.245 OA
ATOM     15  C   UNL     1       0.160   2.701  -4.726  0.00  0.00    +0.049 A 
ATOM     16  C   UNL     1       2.885   1.479  -8.855  0.00  0.00    +0.051 C 
ENDROOT
BRANCH   6  17
ATOM     17  C   UNL     1       4.555   7.383  -7.591  0.00  0.00    -0.009 C 
ATOM     18  C   UNL     1       5.583   8.060  -8.500  0.00  0.00    +0.015 C 
ATOM     19  C   UNL     1       3.247   8.175  -7.622  0.00  0.00    +0.015 C 
ATOM     20  C   UNL     1       5.091   7.340  -6.159  0.00  0.00    +0.015 C 
ENDBRANCH   6  17
BRANCH  15  21
ATOM     21  C   UNL     1      -0.796   2.631  -3.564  0.00  0.00    +0.138 C 
BRANCH  21  22
ATOM     22  C   UNL     1      -0.068   2.132  -2.343  0.00  0.00    +0.218 C 
ATOM     23  O   UNL     1       1.113   1.860  -2.410  0.00  0.00    -0.275 OA
ATOM     24  N   UNL     1      -0.727   1.988  -1.177  0.00  0.00    -0.298 N 
ATOM     25  H   UNL     1      -1.671   2.206  -1.123  0.00  0.00    +0.150 HD
BRANCH  24  26
ATOM     26  CA  UNL     1      -0.018   1.503   0.010  0.00  0.00    +0.217 C 
BRANCH  26  27
ATOM     27  C   UNL     1      -0.724   1.989   1.250  0.00  0.00    -0.016 A 
ATOM     28  C   UNL     1      -2.105   2.010   1.296  0.00  0.00    +0.006 A 
ATOM     29  C   UNL     1      -2.752   2.451   2.435  0.00  0.00    +0.000 A 
ATOM     30  C   UNL     1      -2.018   2.881   3.525  0.00  0.00    +0.000 A 
ATOM     31  C   UNL     1      -0.636   2.865   3.477  0.00  0.00    +0.000 A 
ATOM     32  C   UNL     1       0.011   2.419   2.339  0.00  0.00    +0.006 A 
ENDBRANCH  26  27
BRANCH  26  33
ATOM     33  C   UNL     1       0.002  -0.004   0.002  0.00  0.00    +0.380 C 
ATOM     34  O   UNL     1      -0.521  -0.610  -0.902  0.00  0.00    -0.244 OA
ATOM     35  OXT UNL     1       0.602  -0.673   1.000  0.00  0.00    -0.244 OA
ENDBRANCH  26  33
ENDBRANCH  24  26
ENDBRANCH  21  22
ENDBRANCH  15  21
TORSDOF 6
