REMARK  Name = ZINC50829316
REMARK  3 active torsions:
REMARK  status: ('A' for Active; 'I' for Inactive)
REMARK    1  A    between atoms: N_9  and  C_12
REMARK    2  A    between atoms: C_12  and  C_13
REMARK    3  A    between atoms: C_14  and  N_18
REMARK                            x       y       z     vdW  Elec       q    Type
REMARK                         _______ _______ _______ _____ _____    ______ ____
ROOT
ATOM      1  C   UNL     1      -0.017   1.373   0.010  0.00  0.00    +0.001 A 
ATOM      2  C   UNL     1       1.169   2.096   0.002  0.00  0.00    +0.002 A 
ATOM      3  C   UNL     1       2.387   1.453  -0.013  0.00  0.00    +0.028 A 
ATOM      4  C   UNL     1       2.432   0.058  -0.021  0.00  0.00    +0.078 A 
ATOM      5  C   UNL     1       1.224  -0.674  -0.013  0.00  0.00    +0.065 A 
ATOM      6  C   UNL     1       0.002  -0.004   0.002  0.00  0.00    +0.015 A 
ATOM      7  C   UNL     1       1.306  -2.142  -0.022  0.00  0.00    +0.262 A 
ATOM      8  O   UNL     1       0.302  -2.832  -0.017  0.00  0.00    -0.267 OA
ATOM      9  N   UNL     1       2.540  -2.697  -0.038  0.00  0.00    -0.293 N 
ATOM     10  C   UNL     1       3.650  -1.914  -0.044  0.00  0.00    +0.203 A 
ATOM     11  N   UNL     1       3.609  -0.616  -0.037  0.00  0.00    -0.237 NA
ENDROOT
BRANCH   9  12
ATOM     12  C   UNL     1       2.680  -4.155  -0.048  0.00  0.00    +0.186 C 
BRANCH  12  13
ATOM     13  C   UNL     1       2.714  -4.647  -1.472  0.00  0.00    +0.113 A 
ATOM     14  C   UNL     1       1.575  -4.989  -2.144  0.00  0.00    +0.108 A 
ATOM     15  S   UNL     1       2.179  -5.452  -3.642  0.00  0.00    +0.051 S 
ATOM     16  N   UNL     1       3.810  -5.198  -3.354  0.00  0.00    -0.108 NA
ATOM     17  N   UNL     1       3.840  -4.766  -2.138  0.00  0.00    -0.142 NA
BRANCH  14  18
ATOM     18  N   UNL     1       0.254  -4.960  -1.702  0.00  0.00    -0.350 N 
ATOM     19  H   UNL     1       0.051  -4.666  -0.800  0.00  0.00    +0.143 HD
ATOM     20  H   UNL     1      -0.462  -5.234  -2.296  0.00  0.00    +0.143 HD
ENDBRANCH  14  18
ENDBRANCH  12  13
ENDBRANCH   9  12
TORSDOF 3
