REMARK  Name = ZINC45626220
REMARK  4 active torsions:
REMARK  status: ('A' for Active; 'I' for Inactive)
REMARK    1  A    between atoms: C_1  and  C_2
REMARK    2  A    between atoms: C_7  and  N_10
REMARK    3  A    between atoms: C_11  and  C_15
REMARK    4  A    between atoms: C_17  and  N_22
REMARK                            x       y       z     vdW  Elec       q    Type
REMARK                         _______ _______ _______ _____ _____    ______ ____
ROOT
ATOM      1  N   UNL     1       1.433  -2.541   0.029  0.00  0.00    -0.222 N 
ATOM      2  C   UNL     1       2.613  -3.206  -0.040  0.00  0.00    +0.183 A 
ATOM      3  N   UNL     1       2.874  -3.396  -1.315  0.00  0.00    -0.108 NA
ATOM      4  N   UNL     1       1.942  -2.898  -2.045  0.00  0.00    -0.023 NA
ATOM      5  N   UNL     1       1.030  -2.366  -1.306  0.00  0.00    -0.043 NA
ENDROOT
BRANCH   1  11
ATOM      6  C   UNL     1      -0.451   1.320  -0.074  0.00  0.00    +0.007 C 
ATOM      7  C   UNL     1      -0.270  -0.198  -0.037  0.00  0.00    -0.012 C 
ATOM      8  C   UNL     1      -1.641  -0.874   0.025  0.00  0.00    +0.003 C 
ATOM      9  C   UNL     1      -1.460  -2.393   0.062  0.00  0.00    +0.002 C 
ATOM     10  C   UNL     1      -0.644  -2.779   1.298  0.00  0.00    +0.027 C 
ATOM     11  C   UNL     1       0.727  -2.103   1.236  0.00  0.00    +0.111 C 
ATOM     12  C   UNL     1       0.545  -0.585   1.199  0.00  0.00    +0.030 C 
ENDBRANCH   1  11
BRANCH   2  13
ATOM     13  C   UNL     1       3.448  -3.635   1.104  0.00  0.00    +0.036 A 
ATOM     14  C   UNL     1       2.871  -4.311   2.177  0.00  0.00    +0.035 A 
ATOM     15  C   UNL     1       3.660  -4.711   3.245  0.00  0.00    +0.025 A 
ATOM     16  C   UNL     1       5.023  -4.437   3.243  0.00  0.00    +0.024 A 
ATOM     17  C   UNL     1       5.596  -3.767   2.179  0.00  0.00    +0.018 A 
ATOM     18  C   UNL     1       4.819  -3.369   1.108  0.00  0.00    +0.029 A 
ATOM     19 BR   UNL     1       5.610  -2.459  -0.348  0.00  0.00    -0.050 Br
BRANCH  15  20
ATOM     20  N   UNL     1       3.085  -5.389   4.323  0.00  0.00    -0.358 N 
ATOM     21  H   UNL     1       2.134  -5.580   4.324  0.00  0.00    +0.142 HD
ATOM     22  H   UNL     1       3.637  -5.669   5.070  0.00  0.00    +0.142 HD
ENDBRANCH  15  20
ENDBRANCH   2  13
TORSDOF 3
