REMARK  Name = ZINC55195799
REMARK  10 active torsions:
REMARK  status: ('A' for Active; 'I' for Inactive)
REMARK    1  A    between atoms: C_1  and  C_2
REMARK    2  A    between atoms: C_5  and  C_25
REMARK    3  A    between atoms: C_6  and  O_9
REMARK    4  A    between atoms: C_7  and  C_8
REMARK    5  A    between atoms: O_9  and  C_10
REMARK    6  A    between atoms: C_10  and  C_11
REMARK    7  A    between atoms: C_11  and  N_12
REMARK    8  A    between atoms: N_12  and  C_13
REMARK    9  A    between atoms: C_14  and  C_16
REMARK   10  A    between atoms: C_16  and  C_17
REMARK                            x       y       z     vdW  Elec       q    Type
REMARK                         _______ _______ _______ _____ _____    ______ ____
ROOT
ATOM      1  N   UNL     1       0.519  -5.151   3.943  0.00  0.00    -0.301 N 
ATOM      2  C   UNL     1       1.352  -6.322   3.657  0.00  0.00    +0.132 C 
ATOM      3  C   UNL     1      -0.824  -5.265   3.949  0.00  0.00    +0.218 C 
ATOM      4  O   UNL     1      -1.514  -4.296   4.186  0.00  0.00    -0.276 OA
ENDROOT
BRANCH   1   5
ATOM      5  C   UNL     1       1.146  -3.857   4.221  0.00  0.00    +0.148 C 
BRANCH   5   6
ATOM      6  C   UNL     1       1.330  -3.087   2.912  0.00  0.00    +0.248 C 
BRANCH   6   7
ATOM      7  O   UNL     1       0.050  -2.776   2.358  0.00  0.00    -0.490 OA
BRANCH   7  13
ATOM      8  C   UNL     1      -0.018   1.503   0.010  0.00  0.00    +0.044 C 
ATOM      9  C   UNL     1       0.002  -0.004   0.002  0.00  0.00    -0.044 A 
ATOM     10  C   UNL     1       0.006  -0.688  -1.200  0.00  0.00    +0.004 A 
ATOM     11  C   UNL     1       0.024  -2.071  -1.211  0.00  0.00    +0.007 A 
ATOM     12  C   UNL     1       0.039  -2.772  -0.020  0.00  0.00    -0.009 A 
ATOM     13  C   UNL     1       0.035  -2.088   1.186  0.00  0.00    +0.127 A 
ATOM     14  C   UNL     1       0.023  -0.700   1.195  0.00  0.00    -0.006 A 
ATOM     15  C   UNL     1       0.026   0.046   2.504  0.00  0.00    +0.048 C 
ATOM     16  C   UNL     1       0.059  -4.279  -0.033  0.00  0.00    +0.047 C 
ENDBRANCH   7  13
ENDBRANCH   6   7
ENDBRANCH   5   6
ENDBRANCH   1   5
BRANCH   3  17
ATOM     17  C   UNL     1      -1.469  -6.597   3.662  0.00  0.00    +0.127 C 
BRANCH  17  18
ATOM     18  C   UNL     1      -2.990  -6.452   3.732  0.00  0.00    +0.169 C 
ATOM     19  C   UNL     1      -3.667  -7.770   3.411  0.00  0.00    +0.241 C 
ATOM     20  O   UNL     1      -3.598  -8.396   2.375  0.00  0.00    -0.273 OA
ATOM     21  N   UNL     1      -4.360  -8.103   4.518  0.00  0.00    -0.239 N 
ATOM     22  C   UNL     1      -4.217  -7.187   5.483  0.00  0.00    +0.307 C 
ATOM     23  O   UNL     1      -4.747  -7.268   6.574  0.00  0.00    -0.252 OA
ATOM     24  N   UNL     1      -3.421  -6.164   5.111  0.00  0.00    -0.287 N 
ATOM     25  H   UNL     1      -4.896  -8.906   4.604  0.00  0.00    +0.159 HD
ATOM     26  H   UNL     1      -3.178  -5.391   5.644  0.00  0.00    +0.151 HD
ENDBRANCH  17  18
ENDBRANCH   3  17
TORSDOF 6
