REMARK  Name = ZINC38980830
REMARK  7 active torsions:
REMARK  status: ('A' for Active; 'I' for Inactive)
REMARK    1  A    between atoms: C_1  and  C_2
REMARK    2  A    between atoms: C_4  and  C_8
REMARK    3  A    between atoms: C_14  and  C_17
REMARK    4  A    between atoms: C_18  and  O_25
REMARK    5  A    between atoms: C_22  and  O_23
REMARK    6  A    between atoms: O_23  and  C_24
REMARK    7  A    between atoms: O_25  and  C_26
REMARK                            x       y       z     vdW  Elec       q    Type
REMARK                         _______ _______ _______ _____ _____    ______ ____
ROOT
ATOM      1  C   UNL     1      -0.969  -2.926  -1.248  0.00  0.00    +0.181 A 
ATOM      2  N   UNL     1      -0.495  -2.753  -2.446  0.00  0.00    -0.129 NA
ATOM      3  N   UNL     1      -1.097  -3.532  -3.275  0.00  0.00    -0.121 NA
ATOM      4  C   UNL     1      -1.994  -4.224  -2.643  0.00  0.00    +0.211 A 
ATOM      5  N   UNL     1      -1.942  -3.908  -1.310  0.00  0.00    -0.222 N 
ATOM      6  N   UNL     1      -2.754  -4.569  -0.437  0.00  0.00    -0.263 N 
ATOM      7  C   UNL     1      -3.950  -5.204  -1.052  0.00  0.00    +0.190 C 
ATOM      8  S   UNL     1      -3.292  -5.436  -2.758  0.00  0.00    -0.056 S 
ATOM      9  H   UNL     1      -2.231  -5.237   0.109  0.00  0.00    +0.168 HD
ENDROOT
BRANCH   1  13
ATOM     10  C   UNL     1      -0.018   1.503   0.010  0.00  0.00    +0.067 C 
ATOM     11  C   UNL     1       0.002  -0.004   0.002  0.00  0.00    +0.059 C 
ATOM     12  C   UNL     1      -1.086  -0.777   0.003  0.00  0.00    +0.034 C 
ATOM     13  C   UNL     1      -0.531  -2.190  -0.007  0.00  0.00    +0.222 C 
ATOM     14  N   UNL     1       0.926  -1.973  -0.013  0.00  0.00    -0.172 NA
ATOM     15  N   UNL     1       1.125  -0.756  -0.013  0.00  0.00    -0.159 NA
ENDBRANCH   1  13
BRANCH   7  16
ATOM     16  C   UNL     1      -4.280  -6.519  -0.393  0.00  0.00    +0.068 A 
ATOM     17  C   UNL     1      -3.981  -6.720   0.946  0.00  0.00    +0.129 A 
ATOM     18  C   UNL     1      -4.285  -7.931   1.550  0.00  0.00    +0.046 A 
ATOM     19  C   UNL     1      -4.885  -8.938   0.818  0.00  0.00    +0.007 A 
ATOM     20  C   UNL     1      -5.184  -8.741  -0.517  0.00  0.00    +0.046 A 
ATOM     21  C   UNL     1      -4.888  -7.529  -1.124  0.00  0.00    +0.129 A 
BRANCH  21  22
ATOM     22  O   UNL     1      -5.188  -7.333  -2.435  0.00  0.00    -0.495 OA
ATOM     23  C   UNL     1      -5.813  -8.416  -3.125  0.00  0.00    +0.277 C 
ENDBRANCH  21  22
BRANCH  17  24
ATOM     24  O   UNL     1      -3.389  -5.730   1.666  0.00  0.00    -0.495 OA
ATOM     25  C   UNL     1      -3.110  -6.006   3.040  0.00  0.00    +0.277 C 
ENDBRANCH  17  24
ENDBRANCH   7  16
TORSDOF 4
