REMARK  Name = ZINC64140776
REMARK  14 active torsions:
REMARK  status: ('A' for Active; 'I' for Inactive)
REMARK    1  A    between atoms: C_1  and  C_2
REMARK    2  A    between atoms: C_2  and  C_3
REMARK    3  A    between atoms: C_3  and  C_4
REMARK    4  A    between atoms: C_4  and  N_5
REMARK    5  A    between atoms: C_6  and  N_27
REMARK    6  A    between atoms: C_7  and  N_14
REMARK    7  A    between atoms: N_14  and  C_15
REMARK    8  A    between atoms: N_14  and  C_23
REMARK    9  A    between atoms: C_15  and  C_16
REMARK   10  A    between atoms: C_18  and  C_22
REMARK   11  A    between atoms: C_19  and  C_21
REMARK   12  A    between atoms: C_23  and  C_24
REMARK   13  A    between atoms: C_24  and  C_25
REMARK   14  A    between atoms: C_24  and  C_26
REMARK                            x       y       z     vdW  Elec       q    Type
REMARK                         _______ _______ _______ _____ _____    ______ ____
ROOT
ATOM      1  N   UNL     1       1.511  -2.057   4.265  0.00  0.00    -0.280 N 
ATOM      2  C   UNL     1       2.873  -2.250   4.295  0.00  0.00    +0.127 A 
ATOM      3  C   UNL     1       3.438  -3.179   3.463  0.00  0.00    +0.134 A 
ATOM      4  C   UNL     1       2.608  -3.913   2.597  0.00  0.00    +0.277 A 
ATOM      5  O   UNL     1       3.089  -4.747   1.847  0.00  0.00    -0.266 OA
ATOM      6  N   UNL     1       1.279  -3.691   2.602  0.00  0.00    -0.273 N 
ATOM      7  H   UNL     1       0.706  -4.197   2.006  0.00  0.00    +0.173 HD
ATOM      8  C   UNL     1       0.740  -2.778   3.430  0.00  0.00    +0.331 A 
ATOM      9  O   UNL     1      -0.463  -2.598   3.420  0.00  0.00    -0.246 OA
ENDROOT
BRANCH   2  10
ATOM     10  N   UNL     1       3.660  -1.516   5.152  0.00  0.00    -0.343 N 
ATOM     11  H   UNL     1       3.265  -0.811   5.690  0.00  0.00    +0.144 HD
ATOM     12  H   UNL     1       4.610  -1.702   5.220  0.00  0.00    +0.144 HD
ENDBRANCH   2  10
BRANCH   1  13
ATOM     13  C   UNL     1       0.896  -1.066   5.151  0.00  0.00    +0.128 C 
BRANCH  13  14
ATOM     14  C   UNL     1       0.522  -1.731   6.478  0.00  0.00    +0.021 C 
BRANCH  14  16
ATOM     15  C   UNL     1      -0.493  -1.360   8.730  0.00  0.00    +0.004 C 
ATOM     16  C   UNL     1      -0.120  -0.696   7.403  0.00  0.00    -0.002 C 
ENDBRANCH  14  16
ENDBRANCH  13  14
ENDBRANCH   1  13
BRANCH   3  17
ATOM     17  N   UNL     1       4.836  -3.396   3.474  0.00  0.00    -0.314 N 
BRANCH  17  18
ATOM     18  C   UNL     1       5.637  -3.067   2.292  0.00  0.00    +0.201 C 
BRANCH  18  19
ATOM     19  C   UNL     1       6.210  -1.682   2.443  0.00  0.00    +0.213 A 
ATOM     20  N   UNL     1       7.359  -1.390   2.983  0.00  0.00    -0.217 NA
ATOM     21  C   UNL     1       7.530  -0.057   2.939  0.00  0.00    +0.079 A 
ATOM     22  C   UNL     1       6.445   0.474   2.352  0.00  0.00    +0.125 A 
ATOM     23  O   UNL     1       5.624  -0.547   2.038  0.00  0.00    -0.443 OA
ATOM     24  C   UNL     1       6.196   1.937   2.089  0.00  0.00    +0.088 C 
ATOM     25  C   UNL     1       8.724   0.704   3.457  0.00  0.00    +0.069 C 
ENDBRANCH  18  19
ENDBRANCH  17  18
BRANCH  17  26
ATOM     26  C   UNL     1       5.482  -3.949   4.667  0.00  0.00    +0.109 C 
BRANCH  26  27
ATOM     27  C   UNL     1       5.376  -5.475   4.643  0.00  0.00    +0.000 C 
ATOM     28  C   UNL     1       6.175  -6.023   3.458  0.00  0.00    +0.009 C 
ATOM     29  C   UNL     1       5.939  -6.046   5.946  0.00  0.00    +0.009 C 
ENDBRANCH  26  27
ENDBRANCH  17  26
ENDBRANCH   3  17
TORSDOF 9
