REMARK  Name = ZINC12496675
REMARK  7 active torsions:
REMARK  status: ('A' for Active; 'I' for Inactive)
REMARK    1  A    between atoms: C_1  and  C_2
REMARK    2  A    between atoms: C_2  and  C_3
REMARK    3  A    between atoms: C_3  and  C_27
REMARK    4  A    between atoms: C_8  and  C_10
REMARK    5  A    between atoms: N_17  and  C_20
REMARK    6  A    between atoms: C_27  and  O_29
REMARK    7  A    between atoms: O_29  and  C_30
REMARK                            x       y       z     vdW  Elec       q    Type
REMARK                         _______ _______ _______ _____ _____    ______ ____
ROOT
ATOM      1  C   UNL     1      -2.164   1.050   1.278  0.00  0.00    +0.044 C 
ATOM      2  C   UNL     1      -2.910   1.607   2.417  0.00  0.00    +0.086 C 
ATOM      3  C   UNL     1      -3.399   3.006   1.864  0.00  0.00    +0.080 C 
ATOM      4  C   UNL     1      -3.966   2.470   0.543  0.00  0.00    +0.010 C 
ATOM      5  C   UNL     1      -4.321   3.310   3.014  0.00  0.00    +0.229 C 
ATOM      6  O   UNL     1      -5.387   3.884   2.965  0.00  0.00    -0.275 OA
ATOM      7  N   UNL     1      -3.705   2.804   4.123  0.00  0.00    -0.210 N 
ATOM      8  C   UNL     1      -2.703   1.926   3.813  0.00  0.00    +0.229 C 
ATOM      9  O   UNL     1      -1.836   1.507   4.549  0.00  0.00    -0.275 OA
ATOM     10  N   UNL     1      -2.915   1.540   0.084  0.00  0.00    +0.397 N 
ATOM     11  H   UNL     1      -3.344   0.746  -0.406  0.00  0.00    -0.083 HD
ATOM     12  H   UNL     1      -2.273   2.029  -0.552  0.00  0.00    -0.083 HD
ENDROOT
BRANCH   7  13
ATOM     13  C   UNL     1      -4.054   3.159   5.435  0.00  0.00    +0.044 A 
ATOM     14  C   UNL     1      -3.382   2.593   6.510  0.00  0.00    +0.027 A 
ATOM     15  C   UNL     1      -3.723   2.948   7.801  0.00  0.00    +0.040 A 
ATOM     16  C   UNL     1      -4.743   3.858   8.023  0.00  0.00    +0.124 A 
ATOM     17  C   UNL     1      -5.418   4.419   6.952  0.00  0.00    +0.040 A 
ATOM     18  C   UNL     1      -5.076   4.071   5.660  0.00  0.00    +0.027 A 
ATOM     19  F   UNL     1      -5.079   4.200   9.286  0.00  0.00    -0.205 F 
ENDBRANCH   7  13
BRANCH   4  20
ATOM     20  C   UNL     1      -4.179   3.591  -0.441  0.00  0.00    +0.092 A 
ATOM     21  C   UNL     1      -5.354   4.189  -0.709  0.00  0.00    +0.043 A 
ATOM     22  C   UNL     1      -5.096   5.179  -1.686  0.00  0.00    +0.041 A 
ATOM     23  C   UNL     1      -3.779   5.126  -1.956  0.00  0.00    +0.195 A 
ATOM     24  O   UNL     1      -3.228   4.166  -1.194  0.00  0.00    -0.469 OA
ENDBRANCH   4  20
BRANCH   1  26
ATOM     25  C   UNL     1      -0.013   1.086   0.008  0.00  0.00    +0.003 C 
ATOM     26  C   UNL     1      -0.729   1.579   1.267  0.00  0.00    -0.004 C 
ENDBRANCH   1  26
BRANCH   1  27
ATOM     27  C   UNL     1      -2.169  -0.456   1.331  0.00  0.00    +0.297 C 
ATOM     28  O   UNL     1      -2.280  -1.023   2.393  0.00  0.00    -0.252 OA
BRANCH  27  29
ATOM     29  O   UNL     1      -2.049  -1.168   0.200  0.00  0.00    -0.469 OA
ATOM     30  C   UNL     1      -2.061  -2.615   0.327  0.00  0.00    +0.280 C 
ENDBRANCH  27  29
ENDBRANCH   1  27
TORSDOF 5
