REMARK  Name = ZINC37392090
REMARK  6 active torsions:
REMARK  status: ('A' for Active; 'I' for Inactive)
REMARK    1  A    between atoms: C_1  and  O_2
REMARK    2  A    between atoms: O_2  and  C_3
REMARK    3  A    between atoms: C_6  and  S_10
REMARK    4  A    between atoms: C_7  and  N_9
REMARK    5  A    between atoms: S_10  and  N_13
REMARK    6  A    between atoms: N_13  and  C_14
REMARK                            x       y       z     vdW  Elec       q    Type
REMARK                         _______ _______ _______ _____ _____    ______ ____
ROOT
ATOM      1  S   UNL     1       2.859  -2.633   4.522  0.00  0.00    +0.074 S 
ATOM      2  O   UNL     1       3.712  -3.685   4.092  0.00  0.00    -0.150 OA
ATOM      3  O   UNL     1       3.326  -1.548   5.312  0.00  0.00    -0.150 OA
ENDROOT
BRANCH   1   7
ATOM      4  C   UNL     1       1.049  -0.824   0.780  0.00  0.00    +0.122 A 
ATOM      5  C   UNL     1       1.646  -0.009   1.732  0.00  0.00    +0.047 A 
ATOM      6  C   UNL     1       2.196  -0.563   2.872  0.00  0.00    +0.034 A 
ATOM      7  C   UNL     1       2.155  -1.930   3.067  0.00  0.00    +0.129 A 
ATOM      8  C   UNL     1       1.560  -2.751   2.118  0.00  0.00    +0.055 A 
ATOM      9  C   UNL     1       1.001  -2.195   0.975  0.00  0.00    +0.070 A 
BRANCH   8  10
ATOM     10  N   UNL     1       1.518  -4.133   2.315  0.00  0.00    -0.356 N 
ATOM     11  H   UNL     1       1.819  -4.512   3.156  0.00  0.00    +0.142 HD
ATOM     12  H   UNL     1       1.188  -4.713   1.612  0.00  0.00    +0.142 HD
ENDBRANCH   8  10
BRANCH   4  14
ATOM     13  C   UNL     1       0.594   1.143  -0.476  0.00  0.00    +0.277 C 
ATOM     14  O   UNL     1       0.508  -0.277  -0.340  0.00  0.00    -0.495 OA
ENDBRANCH   4  14
ENDBRANCH   1   7
BRANCH   1  15
ATOM     15  N   UNL     1       1.625  -3.340   5.370  0.00  0.00    -0.215 N 
ATOM     16  H   UNL     1       1.591  -4.305   5.462  0.00  0.00    +0.174 HD
BRANCH  15  17
ATOM     17  C   UNL     1       0.634  -2.546   5.955  0.00  0.00    +0.066 A 
ATOM     18  C   UNL     1       0.205  -1.389   5.318  0.00  0.00    +0.027 A 
ATOM     19  C   UNL     1      -0.775  -0.607   5.898  0.00  0.00    +0.017 A 
ATOM     20  C   UNL     1      -1.330  -0.975   7.111  0.00  0.00    +0.019 A 
ATOM     21  C   UNL     1      -0.904  -2.127   7.748  0.00  0.00    +0.037 A 
ATOM     22  C   UNL     1       0.072  -2.917   7.170  0.00  0.00    +0.064 A 
ATOM     23 CL   UNL     1       0.600  -4.367   7.966  0.00  0.00    -0.082 Cl
ATOM     24 BR   UNL     1      -2.671   0.099   7.900  0.00  0.00    -0.050 Br
ENDBRANCH  15  17
ENDBRANCH   1  15
TORSDOF 5
