REMARK  Name = ZINC58110471
REMARK  5 active torsions:
REMARK  status: ('A' for Active; 'I' for Inactive)
REMARK    1  A    between atoms: C_1  and  C_2
REMARK    2  A    between atoms: C_2  and  C_22
REMARK    3  A    between atoms: C_5  and  C_13
REMARK    4  A    between atoms: C_13  and  C_15
REMARK    5  A    between atoms: C_13  and  O_21
REMARK                            x       y       z     vdW  Elec       q    Type
REMARK                         _______ _______ _______ _____ _____    ______ ____
ROOT
ATOM      1  C   UNL     1      -0.019   1.526   0.010  0.00  0.00    +0.025 C 
ATOM      2  C   UNL     1       0.002  -0.004   0.002  0.00  0.00    +0.068 C 
ATOM      3  C   UNL     1       0.787  -0.516  -1.183  0.00  0.00    -0.010 A 
ATOM      4  C   UNL     1       0.621  -0.386  -2.544  0.00  0.00    +0.012 A 
ATOM      5  C   UNL     1       1.521  -0.980  -3.410  0.00  0.00    -0.017 A 
ATOM      6  C   UNL     1       2.586  -1.704  -2.906  0.00  0.00    +0.028 A 
ATOM      7  C   UNL     1       2.756  -1.836  -1.542  0.00  0.00    +0.063 A 
ATOM      8  C   UNL     1       1.852  -1.240  -0.663  0.00  0.00    +0.056 A 
ATOM      9  N   UNL     1       1.808  -1.229   0.732  0.00  0.00    -0.283 N 
ATOM     10  C   UNL     1       0.761  -0.531   1.202  0.00  0.00    +0.227 C 
ATOM     11  O   UNL     1       0.477  -0.355   2.368  0.00  0.00    -0.275 OA
ATOM     12 CL   UNL     1       4.097  -2.747  -0.921  0.00  0.00    -0.082 Cl
ATOM     13  C   UNL     1      -1.424  -0.558  -0.016  0.00  0.00    +0.025 C 
ATOM     14  H   UNL     1       2.458  -1.675   1.297  0.00  0.00    +0.155 HD
ENDROOT
BRANCH   5  15
ATOM     15  C   UNL     1       1.342  -0.840  -4.900  0.00  0.00    +0.148 C 
BRANCH  15  16
ATOM     16  C   UNL     1       0.582  -2.054  -5.439  0.00  0.00    +0.022 C 
ATOM     17  C   UNL     1       1.376  -3.327  -5.139  0.00  0.00    +0.006 C 
ATOM     18  C   UNL     1       0.617  -4.541  -5.678  0.00  0.00    +0.000 C 
ATOM     19  C   UNL     1       0.434  -4.398  -7.190  0.00  0.00    +0.000 C 
ATOM     20  C   UNL     1      -0.360  -3.125  -7.490  0.00  0.00    +0.000 C 
ATOM     21  C   UNL     1       0.400  -1.911  -6.951  0.00  0.00    +0.006 C 
ENDBRANCH  15  16
BRANCH  15  22
ATOM     22  O   UNL     1       2.622  -0.762  -5.529  0.00  0.00    -0.387 OA
ATOM     23  H   UNL     1       3.181  -1.537  -5.381  0.00  0.00    +0.210 HD
ENDBRANCH  15  22
ENDBRANCH   5  15
TORSDOF 3
