REMARK  Name = ZINC61881866
REMARK  8 active torsions:
REMARK  status: ('A' for Active; 'I' for Inactive)
REMARK    1  A    between atoms: C_1  and  C_2
REMARK    2  A    between atoms: C_2  and  C_3
REMARK    3  A    between atoms: C_2  and  N_4
REMARK    4  A    between atoms: N_4  and  C_5
REMARK    5  A    between atoms: N_4  and  S_9
REMARK    6  A    between atoms: C_5  and  C_6
REMARK    7  A    between atoms: S_9  and  C_12
REMARK    8  A    between atoms: C_16  and  N_19
REMARK                            x       y       z     vdW  Elec       q    Type
REMARK                         _______ _______ _______ _____ _____    ______ ____
ROOT
ATOM      1  S   UNL     1      -1.952  -1.359  -1.286  0.00  0.00    +0.063 S 
ATOM      2  O   UNL     1      -3.338  -1.172  -1.536  0.00  0.00    -0.153 OA
ATOM      3  O   UNL     1      -0.953  -1.009  -2.235  0.00  0.00    -0.153 OA
ENDROOT
BRANCH   1   4
ATOM      4  C   UNL     1      -1.731  -3.071  -0.931  0.00  0.00    +0.123 A 
ATOM      5  C   UNL     1      -2.826  -3.913  -0.883  0.00  0.00    +0.049 A 
ATOM      6  C   UNL     1      -2.657  -5.258  -0.605  0.00  0.00    +0.045 A 
ATOM      7  C   UNL     1      -1.391  -5.764  -0.375  0.00  0.00    +0.044 A 
ATOM      8  C   UNL     1      -0.289  -4.921  -0.423  0.00  0.00    +0.042 A 
ATOM      9  C   UNL     1      -0.462  -3.571  -0.708  0.00  0.00    +0.065 A 
ATOM     10 BR   UNL     1       1.036  -2.420  -0.783  0.00  0.00    -0.046 Br
ATOM     11 CL   UNL     1      -4.036  -6.311  -0.544  0.00  0.00    -0.083 Cl
BRANCH   8  12
ATOM     12  N   UNL     1       0.992  -5.428  -0.191  0.00  0.00    -0.357 N 
ATOM     13  H   UNL     1       1.112  -6.371   0.004  0.00  0.00    +0.142 HD
ATOM     14  H   UNL     1       1.761  -4.838  -0.225  0.00  0.00    +0.142 HD
ENDBRANCH   8  12
ENDBRANCH   1   4
BRANCH   1  15
ATOM     15  N   UNL     1      -1.603  -0.523   0.100  0.00  0.00    -0.165 NA
BRANCH  15  17
ATOM     16  C   UNL     1      -0.426   1.610   0.316  0.00  0.00    +0.025 C 
ATOM     17  C   UNL     1      -0.283   0.087   0.274  0.00  0.00    +0.074 C 
ATOM     18  C   UNL     1       0.336  -0.403   1.585  0.00  0.00    +0.025 C 
ENDBRANCH  15  17
BRANCH  15  19
ATOM     19  C   UNL     1      -2.615  -0.393   1.151  0.00  0.00    +0.205 C 
BRANCH  19  20
ATOM     20  C   UNL     1      -3.354   0.909   0.979  0.00  0.00    +0.226 C 
ATOM     21  O   UNL     1      -3.064   1.655   0.068  0.00  0.00    -0.275 OA
ATOM     22  N   UNL     1      -4.337   1.244   1.838  0.00  0.00    -0.328 N 
ATOM     23  H   UNL     1      -4.569   0.647   2.567  0.00  0.00    +0.145 HD
ATOM     24  H   UNL     1      -4.813   2.082   1.727  0.00  0.00    +0.145 HD
ENDBRANCH  19  20
ENDBRANCH  15  19
ENDBRANCH   1  15
TORSDOF 6
