REMARK  Name = ZINC45255503
REMARK  10 active torsions:
REMARK  status: ('A' for Active; 'I' for Inactive)
REMARK    1  A    between atoms: C_1  and  C_2
REMARK    2  A    between atoms: C_5  and  C_9
REMARK    3  A    between atoms: C_7  and  C_8
REMARK    4  A    between atoms: N_11  and  C_12
REMARK    5  A    between atoms: C_12  and  C_13
REMARK    6  A    between atoms: C_13  and  O_15
REMARK    7  A    between atoms: O_15  and  C_16
REMARK    8  A    between atoms: C_16  and  C_17
REMARK    9  A    between atoms: N_19  and  C_20
REMARK   10  A    between atoms: C_21  and  C_29
REMARK                            x       y       z     vdW  Elec       q    Type
REMARK                         _______ _______ _______ _____ _____    ______ ____
ROOT
ATOM      1  C   UNL     1       0.118 -10.098  -4.336  0.00  0.00    +0.255 C 
ATOM      2  O   UNL     1       0.133 -10.764  -3.323  0.00  0.00    -0.272 OA
ATOM      3  N   UNL     1       0.120 -10.704  -5.540  0.00  0.00    -0.277 N 
ATOM      4  H   UNL     1       0.109 -10.171  -6.351  0.00  0.00    +0.155 HD
ENDROOT
BRANCH   3   5
ATOM      5  C   UNL     1       0.139 -12.088  -5.620  0.00  0.00    +0.084 A 
ATOM      6  C   UNL     1       0.149 -12.875  -6.761  0.00  0.00    +0.068 A 
ATOM      7  C   UNL     1       0.168 -14.315  -6.574  0.00  0.00    -0.023 A 
ATOM      8  C   UNL     1       0.173 -14.704  -5.280  0.00  0.00    -0.004 A 
ATOM      9  S   UNL     1       0.161 -13.195  -4.358  0.00  0.00    -0.077 S 
ATOM     10  C   UNL     1       0.190 -16.110  -4.763  0.00  0.00    +0.043 C 
ATOM     11  C   UNL     1      -0.180 -17.052  -5.918  0.00  0.00    +0.005 C 
ATOM     12  C   UNL     1       0.652 -16.679  -7.149  0.00  0.00    +0.005 C 
ATOM     13  C   UNL     1       0.183 -15.333  -7.705  0.00  0.00    +0.037 C 
BRANCH   6  14
ATOM     14  C   UNL     1       0.141 -12.279  -8.101  0.00  0.00    +0.244 C 
ATOM     15  O   UNL     1       1.192 -12.018  -8.657  0.00  0.00    -0.270 OA
ATOM     16  N   UNL     1      -1.030 -12.021  -8.716  0.00  0.00    -0.325 N 
ATOM     17  H   UNL     1      -1.867 -12.229  -8.273  0.00  0.00    +0.145 HD
ATOM     18  H   UNL     1      -1.035 -11.626  -9.602  0.00  0.00    +0.145 HD
ENDBRANCH   6  14
ENDBRANCH   3   5
BRANCH   1  19
ATOM     19  C   UNL     1       0.098  -8.594  -4.249  0.00  0.00    +0.328 C 
BRANCH  19  20
ATOM     20  O   UNL     1       0.100  -8.196  -2.876  0.00  0.00    -0.454 OA
BRANCH  20  21
ATOM     21  C   UNL     1       0.083  -6.878  -2.624  0.00  0.00    +0.325 C 
ATOM     22  O   UNL     1       0.068  -6.088  -3.538  0.00  0.00    -0.249 OA
BRANCH  21  23
ATOM     23  C   UNL     1       0.084  -6.384  -1.200  0.00  0.00    +0.225 C 
BRANCH  23  26
ATOM     24  C   UNL     1       0.061  -4.251  -0.021  0.00  0.00    +0.245 C 
ATOM     25  O   UNL     1       0.074  -4.865   1.028  0.00  0.00    -0.270 OA
ATOM     26  N   UNL     1       0.064  -4.919  -1.192  0.00  0.00    -0.301 N 
ATOM     27  H   UNL     1       0.053  -4.429  -2.030  0.00  0.00    +0.150 HD
BRANCH  24  32
ATOM     28  C   UNL     1      -0.018   1.503   0.010  0.00  0.00    +0.044 C 
ATOM     29  C   UNL     1       0.002  -0.004   0.002  0.00  0.00    -0.047 A 
ATOM     30  C   UNL     1       0.006  -0.686  -1.202  0.00  0.00    +0.004 A 
ATOM     31  C   UNL     1       0.025  -2.066  -1.216  0.00  0.00    +0.013 A 
ATOM     32  C   UNL     1       0.041  -2.773  -0.013  0.00  0.00    +0.037 A 
ATOM     33  C   UNL     1       0.037  -2.079   1.197  0.00  0.00    +0.016 A 
ATOM     34  C   UNL     1       0.023  -0.699   1.198  0.00  0.00    -0.047 A 
ATOM     35  C   UNL     1       0.025   0.052   2.504  0.00  0.00    +0.044 C 
ENDBRANCH  24  32
ENDBRANCH  23  26
ENDBRANCH  21  23
ENDBRANCH  20  21
ENDBRANCH  19  20
ENDBRANCH   1  19
TORSDOF 8
