REMARK  Name = ZINC04147721
REMARK  12 active torsions:
REMARK  status: ('A' for Active; 'I' for Inactive)
REMARK    1  A    between atoms: C_1  and  C_2
REMARK    2  A    between atoms: C_4  and  C_39
REMARK    3  A    between atoms: C_6  and  N_8
REMARK    4  A    between atoms: N_8  and  C_9
REMARK    5  A    between atoms: C_9  and  N_11
REMARK    6  A    between atoms: N_11  and  C_12
REMARK    7  A    between atoms: C_22  and  N_24
REMARK    8  A    between atoms: C_25  and  O_29
REMARK    9  A    between atoms: O_29  and  C_30
REMARK   10  A    between atoms: C_34  and  N_36
REMARK   11  A    between atoms: N_36  and  C_37
REMARK   12  A    between atoms: N_36  and  C_38
REMARK                            x       y       z     vdW  Elec       q    Type
REMARK                         _______ _______ _______ _____ _____    ______ ____
ROOT
ATOM      1  C   UNL     1       0.440  -2.143   5.997  0.00  0.00    +0.129 C 
ATOM      2  C   UNL     1      -0.978  -1.905   6.561  0.00  0.00    +0.185 C 
ATOM      3  O   UNL     1      -0.832  -2.031   7.991  0.00  0.00    -0.370 OA
ATOM      4  C   UNL     1       0.065  -3.142   8.193  0.00  0.00    +0.176 C 
ATOM      5  C   UNL     1       1.145  -2.986   7.081  0.00  0.00    +0.171 C 
ATOM      6  O   UNL     1       2.184  -2.188   7.685  0.00  0.00    -0.370 OA
ATOM      7  C   UNL     1       2.306  -2.671   9.039  0.00  0.00    +0.190 C 
ATOM      8  C   UNL     1       0.835  -2.924   9.513  0.00  0.00    +0.171 C 
ENDROOT
BRANCH   8   9
ATOM      9  N   UNL     1       0.752  -4.118  10.358  0.00  0.00    -0.187 N 
ATOM     10  C   UNL     1       0.226  -4.210  11.599  0.00  0.00    +0.342 A 
ATOM     11  N   UNL     1       0.359  -5.457  11.986  0.00  0.00    -0.071 NA
ATOM     12  N   UNL     1       0.933  -6.153  11.072  0.00  0.00    -0.020 NA
ATOM     13  N   UNL     1       1.199  -5.415  10.049  0.00  0.00    -0.041 NA
BRANCH  10  14
ATOM     14  O   UNL     1      -0.335  -3.203  12.312  0.00  0.00    -0.423 OA
BRANCH  14  15
ATOM     15  C   UNL     1      -0.739  -3.468  13.582  0.00  0.00    +0.134 A 
ATOM     16  C   UNL     1      -0.709  -4.770  14.063  0.00  0.00    +0.046 A 
ATOM     17  C   UNL     1      -1.120  -5.041  15.354  0.00  0.00    +0.005 A 
ATOM     18  C   UNL     1      -1.562  -4.019  16.170  0.00  0.00    +0.023 A 
ATOM     19  C   UNL     1      -1.596  -2.714  15.694  0.00  0.00    +0.033 A 
ATOM     20  C   UNL     1      -1.177  -2.438  14.399  0.00  0.00    +0.069 A 
BRANCH  19  21
ATOM     21  N   UNL     1      -2.044  -1.679  16.519  0.00  0.00    -0.336 N 
ATOM     22  C   UNL     1      -2.354  -1.947  17.926  0.00  0.00    +0.129 C 
ATOM     23  C   UNL     1      -2.204  -0.328  15.977  0.00  0.00    +0.129 C 
ENDBRANCH  19  21
ENDBRANCH  14  15
ENDBRANCH  10  14
ENDBRANCH   8   9
BRANCH   1  24
ATOM     24  N   UNL     1       0.372  -2.883   4.735  0.00  0.00    -0.319 N 
ATOM     25  H   UNL     1       0.422  -3.852   4.737  0.00  0.00    +0.148 HD
BRANCH  24  26
ATOM     26  C   UNL     1       0.241  -2.218   3.570  0.00  0.00    +0.135 C 
ATOM     27  S   UNL     1       0.153  -0.508   3.566  0.00  0.00    -0.019 S 
BRANCH  26  28
ATOM     28  N   UNL     1       0.179  -2.899   2.409  0.00  0.00    -0.297 N 
ATOM     29  H   UNL     1       0.147  -3.869   2.416  0.00  0.00    +0.154 HD
BRANCH  28  35
ATOM     30  C   UNL     1       1.840   0.784  -0.393  0.00  0.00    +0.044 C 
ATOM     31  C   UNL     1       0.954  -0.419  -0.193  0.00  0.00    -0.048 A 
ATOM     32  C   UNL     1       0.121  -0.840  -1.213  0.00  0.00    +0.006 A 
ATOM     33  C   UNL     1      -0.693  -1.944  -1.033  0.00  0.00    -0.048 A 
ATOM     34  C   UNL     1      -0.676  -2.628   0.166  0.00  0.00    +0.026 A 
ATOM     35  C   UNL     1       0.159  -2.208   1.192  0.00  0.00    +0.033 A 
ATOM     36  C   UNL     1       0.979  -1.102   1.007  0.00  0.00    +0.026 A 
ATOM     37  C   UNL     1      -1.600  -2.399  -2.147  0.00  0.00    +0.044 C 
ENDBRANCH  28  35
ENDBRANCH  26  28
ENDBRANCH  24  26
ENDBRANCH   1  24
TORSDOF 8
