REMARK  Name = ZINC62935083
REMARK  5 active torsions:
REMARK  status: ('A' for Active; 'I' for Inactive)
REMARK    1  A    between atoms: C_1  and  C_2
REMARK    2  A    between atoms: C_2  and  C_3
REMARK    3  A    between atoms: C_3  and  C_4
REMARK    4  A    between atoms: C_4  and  C_18
REMARK    5  A    between atoms: C_14  and  N_17
REMARK                            x       y       z     vdW  Elec       q    Type
REMARK                         _______ _______ _______ _____ _____    ______ ____
ROOT
ATOM      1  C   UNL     1       0.772  -2.067   1.222  0.00  0.00    +0.089 C 
ATOM      2  C   UNL     1      -0.662  -2.632   1.340  0.00  0.00    +0.039 C 
ATOM      3  C   UNL     1      -0.479  -3.842   2.289  0.00  0.00    +0.110 C 
ATOM      4  N   UNL     1       0.535  -3.364   3.257  0.00  0.00    -0.284 N 
ATOM      5  C   UNL     1       1.510  -2.585   2.471  0.00  0.00    +0.127 C 
ATOM      6  C   UNL     1       0.562  -3.593   4.585  0.00  0.00    +0.305 C 
ATOM      7  O   UNL     1      -0.365  -4.169   5.121  0.00  0.00    -0.252 OA
ATOM      8  N   UNL     1       1.616  -3.185   5.318  0.00  0.00    -0.287 N 
ATOM      9  C   UNL     1       2.740  -2.375   4.826  0.00  0.00    +0.107 C 
ATOM     10  C   UNL     1       3.714  -2.177   6.007  0.00  0.00    +0.004 C 
ATOM     11  C   UNL     1       3.365  -3.360   6.948  0.00  0.00    -0.056 C 
ATOM     12  C   UNL     1       1.830  -3.470   6.749  0.00  0.00    +0.093 C 
ENDROOT
BRANCH  11  13
ATOM     13  N   UNL     1       3.692  -3.038   8.343  0.00  0.00    +0.381 N 
ATOM     14  H   UNL     1       3.183  -2.213   8.625  0.00  0.00    -0.090 HD
ATOM     15  H   UNL     1       3.434  -3.812   8.937  0.00  0.00    -0.090 HD
ATOM     16  H   UNL     1       4.683  -2.866   8.425  0.00  0.00    -0.090 HD
ENDBRANCH  11  13
BRANCH   1  17
ATOM     17  C   UNL     1       1.438  -2.581  -0.029  0.00  0.00    +0.364 C 
ATOM     18  O   UNL     1       1.869  -1.796  -0.857  0.00  0.00    -0.246 OA
ATOM     19  O   UNL     1       1.544  -3.781  -0.214  0.00  0.00    -0.246 OA
ENDBRANCH   1  17
BRANCH   1  20
ATOM     20  C   UNL     1       0.743  -0.538   1.217  0.00  0.00    +0.019 C 
BRANCH  20  22
ATOM     21  C   UNL     1      -0.022   1.484  -0.035  0.00  0.00    +0.004 C 
ATOM     22  C   UNL     1       0.007  -0.045  -0.030  0.00  0.00    -0.002 C 
ENDBRANCH  20  22
ENDBRANCH   1  20
TORSDOF 4
