REMARK  Name = ZINC36742803
REMARK  7 active torsions:
REMARK  status: ('A' for Active; 'I' for Inactive)
REMARK    1  A    between atoms: C_1  and  C_2
REMARK    2  A    between atoms: N_5  and  S_8
REMARK    3  A    between atoms: S_8  and  N_11
REMARK    4  A    between atoms: N_11  and  C_12
REMARK    5  A    between atoms: C_12  and  C_13
REMARK    6  A    between atoms: C_15  and  N_20
REMARK    7  A    between atoms: C_18  and  O_19
REMARK                            x       y       z     vdW  Elec       q    Type
REMARK                         _______ _______ _______ _____ _____    ______ ____
ROOT
ATOM      1  N   UNL     1       3.943  -2.728  -0.053  0.00  0.00    -0.175 NA
ATOM      2  H   UNL     1       4.535  -2.768  -0.821  0.00  0.00    +0.149 HD
ENDROOT
BRANCH   1   3
ATOM      3  S   UNL     1       2.539  -3.606  -0.043  0.00  0.00    +0.097 S 
ATOM      4  O   UNL     1       2.499  -4.295   1.199  0.00  0.00    -0.141 OA
ATOM      5  O   UNL     1       2.474  -4.282  -1.291  0.00  0.00    -0.141 OA
BRANCH   3  10
ATOM      6  C   UNL     1      -0.019   1.526   0.010  0.00  0.00    +0.007 C 
ATOM      7  C   UNL     1       0.002  -0.004   0.002  0.00  0.00    -0.012 C 
ATOM      8  C   UNL     1       0.717  -0.497  -1.258  0.00  0.00    +0.020 C 
ATOM      9  C   UNL     1       0.705  -2.029  -1.280  0.00  0.00    +0.111 C 
ATOM     10  N   UNL     1       1.285  -2.525  -0.025  0.00  0.00    -0.167 NA
ATOM     11  C   UNL     1       0.731  -2.043   1.248  0.00  0.00    +0.111 C 
ATOM     12  C   UNL     1       0.742  -0.511   1.242  0.00  0.00    +0.020 C 
ENDBRANCH   3  10
ENDBRANCH   1   3
BRANCH   1  13
ATOM     13  C   UNL     1       4.292  -1.891   1.098  0.00  0.00    +0.145 C 
BRANCH  13  14
ATOM     14  C   UNL     1       5.745  -1.500   1.013  0.00  0.00    +0.011 A 
ATOM     15  C   UNL     1       6.093  -0.216   0.644  0.00  0.00    +0.031 A 
ATOM     16  C   UNL     1       7.432   0.144   0.566  0.00  0.00    +0.025 A 
ATOM     17  C   UNL     1       8.419  -0.787   0.859  0.00  0.00    +0.026 A 
ATOM     18  C   UNL     1       8.069  -2.071   1.228  0.00  0.00    +0.047 A 
ATOM     19  C   UNL     1       6.731  -2.429   1.310  0.00  0.00    +0.121 A 
BRANCH  16  20
ATOM     20  N   UNL     1       7.786   1.446   0.192  0.00  0.00    -0.358 N 
ATOM     21  H   UNL     1       7.096   2.096  -0.013  0.00  0.00    +0.142 HD
ATOM     22  H   UNL     1       8.721   1.697   0.138  0.00  0.00    +0.142 HD
ENDBRANCH  16  20
BRANCH  19  23
ATOM     23  O   UNL     1       6.386  -3.692   1.678  0.00  0.00    -0.506 OA
ATOM     24  H   UNL     1       6.305  -4.309   0.938  0.00  0.00    +0.292 HD
ENDBRANCH  19  23
ENDBRANCH  13  14
ENDBRANCH   1  13
TORSDOF 6
