REMARK  Name = ZINC11788136
REMARK  9 active torsions:
REMARK  status: ('A' for Active; 'I' for Inactive)
REMARK    1  A    between atoms: C_1  and  C_2
REMARK    2  A    between atoms: C_2  and  C_3
REMARK    3  A    between atoms: C_2  and  C_4
REMARK    4  A    between atoms: C_4  and  C_5
REMARK    5  A    between atoms: C_5  and  C_7
REMARK    6  A    between atoms: C_5  and  N_26
REMARK    7  A    between atoms: C_16  and  C_17
REMARK    8  A    between atoms: C_16  and  N_62
REMARK    9  A    between atoms: C_27  and  C_29
REMARK                            x       y       z     vdW  Elec       q    Type
REMARK                         _______ _______ _______ _____ _____    ______ ____
ROOT
ATOM      1  C   UNL     1       1.823   0.781   0.111  0.00  0.00    +0.154 A 
ATOM      2  N   UNL     1       0.891   1.670   0.338  0.00  0.00    -0.132 NA
ATOM      3  N   UNL     1      -0.262   1.096   0.357  0.00  0.00    -0.134 NA
ATOM      4  C   UNL     1      -0.117  -0.178   0.139  0.00  0.00    +0.132 A 
ATOM      5  N   UNL     1       1.210  -0.416  -0.009  0.00  0.00    -0.315 N 
ATOM      6  C   UNL     1       1.830  -1.721  -0.236  0.00  0.00    +0.106 C 
ATOM      7  C   UNL     1       0.832  -2.635  -0.953  0.00  0.00    -0.056 C 
ATOM      8  C   UNL     1      -0.773  -2.447   0.867  0.00  0.00    -0.071 C 
ATOM      9  C   UNL     1      -1.196  -1.226   0.044  0.00  0.00    +0.058 C 
ATOM     10  N   UNL     1       0.039  -3.378   0.053  0.00  0.00    +0.384 N 
ATOM     11  H   UNL     1       0.683  -3.884   0.673  0.00  0.00    -0.081 HD
ENDROOT
BRANCH   1  12
ATOM     12  C   UNL     1       3.303   1.043   0.003  0.00  0.00    +0.142 C 
BRANCH  12  13
ATOM     13  N   UNL     1       3.530   2.224  -0.834  0.00  0.00    -0.299 N 
ATOM     14  C   UNL     1       4.726   2.409  -1.428  0.00  0.00    +0.280 C 
ATOM     15  O   UNL     1       5.584   1.550  -1.348  0.00  0.00    -0.267 OA
ATOM     16  H   UNL     1       2.820   2.873  -0.960  0.00  0.00    +0.150 HD
BRANCH  14  17
ATOM     17  C   UNL     1       4.992   3.645  -2.171  0.00  0.00    +0.189 A 
ATOM     18  C   UNL     1       6.153   3.958  -2.817  0.00  0.00    +0.054 A 
ATOM     19  C   UNL     1       5.967   5.227  -3.389  0.00  0.00    +0.042 A 
ATOM     20  C   UNL     1       4.716   5.627  -3.071  0.00  0.00    +0.196 A 
ATOM     21  O   UNL     1       4.130   4.668  -2.341  0.00  0.00    -0.458 OA
ENDBRANCH  14  17
ENDBRANCH  12  13
BRANCH  12  22
ATOM     22  C   UNL     1       3.880   1.288   1.399  0.00  0.00    +0.033 C 
BRANCH  22  24
ATOM     23  C   UNL     1       4.620  -1.084   1.659  0.00  0.00    +0.007 C 
ATOM     24  C   UNL     1       3.734   0.019   2.241  0.00  0.00    -0.015 C 
ATOM     25  C   UNL     1       4.163   0.311   3.680  0.00  0.00    +0.007 C 
ENDBRANCH  22  24
ENDBRANCH  12  22
ENDBRANCH   1  12
BRANCH  10  26
ATOM     26  C   UNL     1      -0.840  -4.352  -0.620  0.00  0.00    -0.036 C 
BRANCH  26  27
ATOM     27  C   UNL     1      -1.473  -5.232   0.427  0.00  0.00    -0.026 A 
ATOM     28  C   UNL     1      -2.638  -5.055   1.066  0.00  0.00    +0.017 A 
ATOM     29  C   UNL     1      -3.068  -6.037   2.051  0.00  0.00    -0.011 A 
ATOM     30  C   UNL     1      -4.247  -6.050   2.833  0.00  0.00    +0.009 A 
ATOM     31  C   UNL     1      -4.487  -7.059   3.712  0.00  0.00    +0.001 A 
ATOM     32  C   UNL     1      -3.591  -8.108   3.875  0.00  0.00    +0.001 A 
ATOM     33  C   UNL     1      -2.429  -8.132   3.130  0.00  0.00    +0.015 A 
ATOM     34  C   UNL     1      -2.174  -7.115   2.236  0.00  0.00    +0.020 A 
ATOM     35  S   UNL     1      -0.854  -6.760   1.105  0.00  0.00    -0.095 S 
ENDBRANCH  26  27
ENDBRANCH  10  26
TORSDOF 7
