REMARK  Name = ZINC48488972
REMARK  6 active torsions:
REMARK  status: ('A' for Active; 'I' for Inactive)
REMARK    1  A    between atoms: C_1  and  C_2
REMARK    2  A    between atoms: C_2  and  C_3
REMARK    3  A    between atoms: C_2  and  N_4
REMARK    4  A    between atoms: C_5  and  C_7
REMARK    5  A    between atoms: N_9  and  C_10
REMARK    6  A    between atoms: C_13  and  N_17
REMARK                            x       y       z     vdW  Elec       q    Type
REMARK                         _______ _______ _______ _____ _____    ______ ____
ROOT
ATOM      1  C   UNL     1      -3.454  -1.154  -1.133  0.00  0.00    +0.303 C 
ATOM      2  O   UNL     1      -3.981  -1.460  -0.083  0.00  0.00    -0.265 OA
ATOM      3  N   UNL     1      -4.130  -1.291  -2.291  0.00  0.00    -0.276 N 
ATOM      4  H   UNL     1      -3.735  -0.987  -3.123  0.00  0.00    +0.155 HD
ENDROOT
BRANCH   3   5
ATOM      5  C   UNL     1      -5.402  -1.872  -2.294  0.00  0.00    +0.052 A 
ATOM      6  C   UNL     1      -6.264  -1.665  -1.224  0.00  0.00    +0.027 A 
ATOM      7  C   UNL     1      -7.519  -2.241  -1.229  0.00  0.00    +0.034 A 
ATOM      8  C   UNL     1      -7.919  -3.022  -2.298  0.00  0.00    +0.128 A 
ATOM      9  C   UNL     1      -7.064  -3.231  -3.365  0.00  0.00    +0.054 A 
ATOM     10  C   UNL     1      -5.809  -2.653  -3.369  0.00  0.00    +0.064 A 
ATOM     11 CL   UNL     1      -4.739  -2.909  -4.712  0.00  0.00    -0.082 Cl
BRANCH   8  12
ATOM     12  N   UNL     1      -9.266  -3.638  -2.300  0.00  0.00    +0.056 N 
ATOM     13  O   UNL     1     -10.014  -3.456  -1.367  0.00  0.00    -0.126 OA
ATOM     14  O   UNL     1      -9.617  -4.321  -3.233  0.00  0.00    -0.126 OA
ENDBRANCH   8  12
ENDBRANCH   3   5
BRANCH   1  16
ATOM     15  N   UNL     1      -1.381  -0.490   0.016  0.00  0.00    -0.305 N 
ATOM     16  C   UNL     1      -2.057  -0.627  -1.142  0.00  0.00    +0.299 C 
ATOM     17  O   UNL     1      -1.531  -0.321  -2.192  0.00  0.00    -0.265 OA
ATOM     18  H   UNL     1      -1.802  -0.734   0.855  0.00  0.00    +0.149 HD
BRANCH  15  20
ATOM     19  C   UNL     1      -0.043   1.557   0.015  0.00  0.00    +0.027 C 
ATOM     20  C   UNL     1      -0.011   0.028   0.007  0.00  0.00    +0.067 C 
ATOM     21  C   UNL     1       0.732  -0.473   1.247  0.00  0.00    +0.027 C 
ENDBRANCH  15  20
ENDBRANCH   1  16
TORSDOF 4
