REMARK  Name = ZINC47325711
REMARK  7 active torsions:
REMARK  status: ('A' for Active; 'I' for Inactive)
REMARK    1  A    between atoms: C_1  and  C_2
REMARK    2  A    between atoms: C_2  and  C_3
REMARK    3  A    between atoms: C_2  and  C_4
REMARK    4  A    between atoms: C_2  and  C_5
REMARK    5  A    between atoms: C_8  and  N_11
REMARK    6  A    between atoms: C_20  and  C_22
REMARK    7  A    between atoms: N_24  and  C_25
REMARK                            x       y       z     vdW  Elec       q    Type
REMARK                         _______ _______ _______ _____ _____    ______ ____
ROOT
ATOM      1  N   UNL     1       2.868  -2.188  -4.554  0.00  0.00    -0.269 N 
ATOM      2  C   UNL     1       4.084  -1.695  -4.863  0.00  0.00    +0.307 C 
ATOM      3  O   UNL     1       4.676  -0.995  -4.065  0.00  0.00    -0.252 OA
ATOM      4  N   UNL     1       4.643  -1.978  -6.056  0.00  0.00    -0.282 N 
ATOM      5  C   UNL     1       3.881  -2.696  -7.087  0.00  0.00    +0.128 C 
ATOM      6  C   UNL     1       3.884  -1.859  -8.372  0.00  0.00    +0.127 C 
ATOM      7  N   UNL     1       5.267  -1.455  -8.665  0.00  0.00    -0.291 N 
ATOM      8  C   UNL     1       6.029  -0.736  -7.634  0.00  0.00    +0.127 C 
ATOM      9  C   UNL     1       6.023  -1.569  -6.351  0.00  0.00    +0.128 C 
ATOM     10  C   UNL     1       5.826  -1.738  -9.858  0.00  0.00    +0.302 C 
ATOM     11  O   UNL     1       6.923  -1.300 -10.134  0.00  0.00    -0.265 OA
ATOM     12  H   UNL     1       2.436  -2.821  -5.149  0.00  0.00    +0.156 HD
ENDROOT
BRANCH   1  16
ATOM     13  C   UNL     1       0.964  -0.991  -1.047  0.00  0.00    -0.042 A 
ATOM     14  C   UNL     1       0.213  -1.396  -2.136  0.00  0.00    +0.006 A 
ATOM     15  C   UNL     1       0.842  -1.793  -3.300  0.00  0.00    +0.023 A 
ATOM     16  C   UNL     1       2.228  -1.785  -3.376  0.00  0.00    +0.035 A 
ATOM     17  C   UNL     1       2.979  -1.378  -2.281  0.00  0.00    +0.023 A 
ATOM     18  C   UNL     1       2.344  -0.977  -1.122  0.00  0.00    +0.006 A 
BRANCH  13  20
ATOM     19  C   UNL     1       0.648   0.892   0.535  0.00  0.00    +0.015 C 
ATOM     20  C   UNL     1       0.275  -0.558   0.222  0.00  0.00    -0.013 C 
ATOM     21  C   UNL     1       0.718  -1.460   1.375  0.00  0.00    +0.015 C 
ATOM     22  C   UNL     1      -1.241  -0.667   0.042  0.00  0.00    +0.015 C 
ENDBRANCH  13  20
ENDBRANCH   1  16
BRANCH  10  23
ATOM     23  C   UNL     1       5.094  -2.592 -10.842  0.00  0.00    +0.299 C 
ATOM     24  O   UNL     1       3.935  -2.892 -10.642  0.00  0.00    -0.265 OA
ATOM     25  N   UNL     1       5.721  -3.030 -11.952  0.00  0.00    -0.305 N 
ATOM     26  H   UNL     1       6.647  -2.790 -12.112  0.00  0.00    +0.149 HD
BRANCH  25  27
ATOM     27  C   UNL     1       5.003  -3.867 -12.917  0.00  0.00    +0.073 C 
ATOM     28  C   UNL     1       5.741  -5.082 -13.483  0.00  0.00    +0.024 C 
ATOM     29  C   UNL     1       5.496  -3.856 -14.365  0.00  0.00    +0.024 C 
ENDBRANCH  25  27
ENDBRANCH  10  23
TORSDOF 4
