REMARK  Name = ZINC28576666
REMARK  5 active torsions:
REMARK  status: ('A' for Active; 'I' for Inactive)
REMARK    1  A    between atoms: C_1  and  C_2
REMARK    2  A    between atoms: C_2  and  C_3
REMARK    3  A    between atoms: C_9  and  C_26
REMARK    4  A    between atoms: C_10  and  C_12
REMARK    5  A    between atoms: N_14  and  C_15
REMARK                            x       y       z     vdW  Elec       q    Type
REMARK                         _______ _______ _______ _____ _____    ______ ____
ROOT
ATOM      1  C   UNL     1      -1.837   6.204  -0.420  0.00  0.00    +0.280 C 
ATOM      2  O   UNL     1      -1.415   6.291   0.717  0.00  0.00    -0.267 OA
ATOM      3  N   UNL     1      -2.411   5.059  -0.841  0.00  0.00    -0.302 N 
ATOM      4  H   UNL     1      -2.793   4.981  -1.869  0.00  0.00    +0.150 HD
ENDROOT
BRANCH   1  12
ATOM      5  C   UNL     1      -1.142  11.159  -3.805  0.00  0.00    -0.047 A 
ATOM      6  C   UNL     1      -1.767  10.365  -4.756  0.00  0.00    +0.007 A 
ATOM      7  C   UNL     1      -2.148   9.075  -4.457  0.00  0.00    +0.047 A 
ATOM      8  C   UNL     1      -1.906   8.559  -3.188  0.00  0.00    +0.136 A 
ATOM      9  C   UNL     1      -1.272   9.369  -2.228  0.00  0.00    +0.024 A 
ATOM     10  C   UNL     1      -0.893  10.674  -2.552  0.00  0.00    +0.015 A 
ATOM     11  C   UNL     1      -1.171   8.549  -1.021  0.00  0.00    +0.008 A 
ATOM     12  C   UNL     1      -1.723   7.348  -1.336  0.00  0.00    +0.193 A 
ATOM     13  O   UNL     1      -2.156   7.366  -2.614  0.00  0.00    -0.450 OA
ATOM     14  C   UNL     1      -0.575   8.953   0.302  0.00  0.00    +0.048 C 
BRANCH   5  16
ATOM     15  C   UNL     1       0.690  12.561  -4.717  0.00  0.00    +0.009 C 
ATOM     16  C   UNL     1      -0.734  12.567  -4.157  0.00  0.00    +0.032 C 
ENDBRANCH   5  16
ENDBRANCH   1  12
BRANCH   3  17
ATOM     17  C   UNL     1      -2.525   3.919   0.072  0.00  0.00    +0.104 C 
ATOM     18  C   UNL     1      -3.706   3.051  -0.372  0.00  0.00    +0.027 C 
ATOM     19  C   UNL     1      -3.683   1.759   0.454  0.00  0.00    +0.007 C 
ATOM     20  C   UNL     1      -2.487   0.921   0.005  0.00  0.00    +0.035 C 
ATOM     21  C   UNL     1      -1.228   1.748   0.017  0.00  0.00    -0.042 A 
ATOM     22  C   UNL     1      -1.245   3.125   0.037  0.00  0.00    -0.024 A 
ATOM     23  C   UNL     1      -0.048   3.828   0.025  0.00  0.00    +0.006 A 
ATOM     24  C   UNL     1       1.158   3.158   0.008  0.00  0.00    +0.000 A 
ATOM     25  C   UNL     1       1.176   1.776   0.000  0.00  0.00    +0.000 A 
ATOM     26  C   UNL     1      -0.013   1.076   0.008  0.00  0.00    +0.004 A 
ENDBRANCH   3  17
TORSDOF 3
