REMARK  Name = ZINC15020145
REMARK  6 active torsions:
REMARK  status: ('A' for Active; 'I' for Inactive)
REMARK    1  A    between atoms: C_8  and  O_12
REMARK    2  A    between atoms: O_12  and  C_13
REMARK    3  A    between atoms: C_15  and  O_28
REMARK    4  A    between atoms: C_17  and  O_27
REMARK    5  A    between atoms: C_19  and  O_26
REMARK    6  A    between atoms: C_21  and  C_24
REMARK                            x       y       z     vdW  Elec       q    Type
REMARK                         _______ _______ _______ _____ _____    ______ ____
ROOT
ATOM      1  C   UNL     1      -0.746   1.594  -1.236  0.00  0.00    +0.340 C 
ATOM      2  C   UNL     1      -0.013   1.086   0.008  0.00  0.00    +0.214 C 
ATOM      3  C   UNL     1       1.424   1.617  -0.003  0.00  0.00    +0.180 C 
ATOM      4  C   UNL     1       2.109   1.179  -1.301  0.00  0.00    +0.186 C 
ATOM      5  C   UNL     1       1.293   1.684  -2.494  0.00  0.00    +0.266 C 
ATOM      6  O   UNL     1      -0.040   1.179  -2.407  0.00  0.00    -0.322 OA
ENDROOT
BRANCH   5   7
ATOM      7  C   UNL     1       1.929   1.207  -3.775  0.00  0.00    +0.387 C 
ATOM      8  O   UNL     1       1.337   0.435  -4.491  0.00  0.00    -0.243 OA
ATOM      9  O   UNL     1       3.151   1.641  -4.120  0.00  0.00    -0.243 OA
ENDBRANCH   5   7
BRANCH   4  10
ATOM     10  O   UNL     1       3.427   1.729  -1.355  0.00  0.00    -0.386 OA
ATOM     11  H   UNL     1       3.920   1.492  -2.152  0.00  0.00    +0.210 HD
ENDBRANCH   4  10
BRANCH   3  12
ATOM     12  O   UNL     1       2.138   1.088   1.116  0.00  0.00    -0.386 OA
ATOM     13  H   UNL     1       1.755   1.321   1.973  0.00  0.00    +0.210 HD
ENDBRANCH   3  12
BRANCH   2  14
ATOM     14  O   UNL     1      -0.684   1.548   1.182  0.00  0.00    -0.383 OA
ATOM     15  H   UNL     1      -1.601   1.250   1.253  0.00  0.00    +0.210 HD
ENDBRANCH   2  14
BRANCH   1  16
ATOM     16  O   UNL     1      -2.070   1.057  -1.262  0.00  0.00    -0.459 OA
BRANCH  16  24
ATOM     17  C   UNL     1      -6.870   0.737  -3.410  0.00  0.00    +0.017 A 
ATOM     18  C   UNL     1      -6.029   1.610  -4.063  0.00  0.00    +0.027 A 
ATOM     19  C   UNL     1      -4.729   1.795  -3.605  0.00  0.00    +0.050 A 
ATOM     20  C   UNL     1      -4.285   1.080  -2.477  0.00  0.00    +0.043 A 
ATOM     21  C   UNL     1      -5.152   0.203  -1.822  0.00  0.00    +0.029 A 
ATOM     22  C   UNL     1      -6.435   0.035  -2.293  0.00  0.00    +0.019 A 
ATOM     23 BR   UNL     1      -7.610  -1.158  -1.415  0.00  0.00    -0.050 Br
ATOM     24  C   UNL     1      -2.896   1.495  -2.252  0.00  0.00    +0.149 A 
ATOM     25  C   UNL     1      -2.591   2.385  -3.213  0.00  0.00    +0.130 A 
ATOM     26  N   UNL     1      -3.678   2.576  -4.032  0.00  0.00    -0.358 N 
ATOM     27  H   UNL     1      -3.702   3.172  -4.797  0.00  0.00    +0.165 HD
ENDBRANCH  16  24
ENDBRANCH   1  16
TORSDOF 6
