REMARK  Name = ZINC65406166
REMARK  9 active torsions:
REMARK  status: ('A' for Active; 'I' for Inactive)
REMARK    1  A    between atoms: C_1  and  C_2
REMARK    2  A    between atoms: C_4  and  C_28
REMARK    3  A    between atoms: C_15  and  C_17
REMARK    4  A    between atoms: C_18  and  C_27
REMARK    5  A    between atoms: N_20  and  C_23
REMARK    6  A    between atoms: C_21  and  C_22
REMARK    7  A    between atoms: C_23  and  C_24
REMARK    8  A    between atoms: C_23  and  C_25
REMARK    9  A    between atoms: C_23  and  C_26
REMARK                            x       y       z     vdW  Elec       q    Type
REMARK                         _______ _______ _______ _____ _____    ______ ____
ROOT
ATOM      1  C   UNL     1      -0.041   1.480   0.128  0.00  0.00    +0.066 C 
ATOM      2  C   UNL     1      -0.013  -0.026   0.130  0.00  0.00    +0.042 A 
ATOM      3  C   UNL     1      -1.216  -0.747   0.159  0.00  0.00    +0.046 A 
ATOM      4  C   UNL     1      -1.179  -2.102   0.161  0.00  0.00    +0.044 A 
ATOM      5  N   UNL     1       0.028  -2.736   0.134  0.00  0.00    -0.217 N 
ATOM      6  C   UNL     1       1.188  -1.998   0.107  0.00  0.00    +0.162 A 
ATOM      7  N   UNL     1       1.136  -0.658   0.101  0.00  0.00    -0.233 NA
ATOM      8  C   UNL     1       2.229  -2.899   0.085  0.00  0.00    +0.046 A 
ATOM      9  C   UNL     1       1.682  -4.191   0.103  0.00  0.00    +0.153 A 
ATOM     10  N   UNL     1       0.378  -4.094   0.128  0.00  0.00    -0.149 NA
ATOM     11  N   UNL     1       2.503  -5.327   0.103  0.00  0.00    -0.269 N 
ATOM     12  C   UNL     1       3.829  -5.151   0.284  0.00  0.00    +0.219 C 
ATOM     13  O   UNL     1       4.574  -6.087   0.087  0.00  0.00    -0.275 OA
ATOM     14  C   UNL     1       4.416  -3.839   0.720  0.00  0.00    +0.109 C 
ATOM     15  C   UNL     1       3.716  -2.656   0.043  0.00  0.00    +0.068 C 
ATOM     16  C   UNL     1      -2.458  -2.898   0.192  0.00  0.00    +0.066 C 
ATOM     17  H   UNL     1       2.130  -6.214  -0.022  0.00  0.00    +0.156 HD
ENDROOT
BRANCH  15  18
ATOM     18  C   UNL     1       4.044  -1.383   0.779  0.00  0.00    +0.004 A 
ATOM     19  C   UNL     1       3.787  -1.124   2.130  0.00  0.00    +0.064 A 
ATOM     20  N   UNL     1       4.213   0.083   2.402  0.00  0.00    -0.175 NA
ATOM     21  N   UNL     1       4.756   0.630   1.233  0.00  0.00    -0.263 N 
ATOM     22  C   UNL     1       4.645  -0.291   0.253  0.00  0.00    +0.041 A 
ATOM     23  C   UNL     1       5.105  -0.131  -1.173  0.00  0.00    +0.065 C 
ATOM     24  C   UNL     1       3.131  -2.071   3.102  0.00  0.00    +0.068 C 
BRANCH  21  25
ATOM     25  C   UNL     1       5.345   1.964   1.099  0.00  0.00    +0.056 C 
ATOM     26  C   UNL     1       5.137   2.747   2.397  0.00  0.00    +0.036 C 
ATOM     27  C   UNL     1       6.844   1.834   0.817  0.00  0.00    +0.036 C 
ATOM     28  C   UNL     1       4.671   2.706  -0.058  0.00  0.00    +0.036 C 
ENDBRANCH  21  25
ENDBRANCH  15  18
TORSDOF 2
