REMARK  Name = ZINC56202222
REMARK  11 active torsions:
REMARK  status: ('A' for Active; 'I' for Inactive)
REMARK    1  A    between atoms: C_1  and  C_2
REMARK    2  A    between atoms: C_2  and  C_4
REMARK    3  A    between atoms: C_2  and  N_20
REMARK    4  A    between atoms: C_7  and  O_12
REMARK    5  A    between atoms: C_8  and  O_10
REMARK    6  A    between atoms: O_10  and  C_11
REMARK    7  A    between atoms: O_12  and  C_13
REMARK    8  A    between atoms: C_13  and  C_14
REMARK    9  A    between atoms: N_20  and  C_21
REMARK   10  A    between atoms: C_21  and  C_23
REMARK   11  A    between atoms: C_21  and  C_29
REMARK                            x       y       z     vdW  Elec       q    Type
REMARK                         _______ _______ _______ _____ _____    ______ ____
ROOT
ATOM      1  C   UNL     1      -0.245   2.195  -0.466  0.00  0.00    -0.009 C 
ATOM      2  C   UNL     1       0.276   0.786  -0.174  0.00  0.00    -0.042 C 
ENDROOT
BRANCH   2   3
ATOM      3  C   UNL     1       1.343   0.855   0.887  0.00  0.00    -0.058 A 
ATOM      4  C   UNL     1       2.630   1.229   0.548  0.00  0.00    +0.006 A 
ATOM      5  C   UNL     1       3.613   1.293   1.518  0.00  0.00    +0.049 A 
ATOM      6  C   UNL     1       3.309   0.982   2.834  0.00  0.00    +0.162 A 
ATOM      7  C   UNL     1       2.014   0.606   3.175  0.00  0.00    +0.162 A 
ATOM      8  C   UNL     1       1.032   0.548   2.199  0.00  0.00    +0.051 A 
BRANCH   7   9
ATOM      9  O   UNL     1       1.710   0.300   4.465  0.00  0.00    -0.491 OA
ATOM     10  C   UNL     1       0.360  -0.078   4.742  0.00  0.00    +0.277 C 
ENDBRANCH   7   9
BRANCH   6  11
ATOM     11  O   UNL     1       4.275   1.045   3.789  0.00  0.00    -0.484 OA
BRANCH  11  12
ATOM     12  C   UNL     1       5.582   1.438   3.366  0.00  0.00    +0.264 C 
BRANCH  12  13
ATOM     13  C   UNL     1       6.511   1.450   4.552  0.00  0.00    -0.010 A 
ATOM     14  C   UNL     1       6.655   2.600   5.306  0.00  0.00    +0.007 A 
ATOM     15  C   UNL     1       7.508   2.611   6.394  0.00  0.00    +0.000 A 
ATOM     16  C   UNL     1       8.217   1.472   6.728  0.00  0.00    +0.000 A 
ATOM     17  C   UNL     1       8.072   0.322   5.975  0.00  0.00    +0.000 A 
ATOM     18  C   UNL     1       7.216   0.310   4.890  0.00  0.00    +0.007 A 
ENDBRANCH  12  13
ENDBRANCH  11  12
ENDBRANCH   6  11
ENDBRANCH   2   3
BRANCH   2  19
ATOM     19  N   UNL     1       0.841   0.210  -1.401  0.00  0.00    +0.394 N 
ATOM     20  H   UNL     1       1.532   0.839  -1.781  0.00  0.00    -0.083 HD
ATOM     21  H   UNL     1       1.275  -0.676  -1.188  0.00  0.00    -0.083 HD
BRANCH  19  22
ATOM     22  C   UNL     1      -0.230   0.006  -2.386  0.00  0.00    +0.047 C 
BRANCH  22  23
ATOM     23  C   UNL     1      -1.204  -1.019  -1.863  0.00  0.00    -0.053 A 
ATOM     24  C   UNL     1      -0.740  -2.131  -1.186  0.00  0.00    +0.002 A 
ATOM     25  C   UNL     1      -1.634  -3.071  -0.707  0.00  0.00    +0.000 A 
ATOM     26  C   UNL     1      -2.991  -2.898  -0.905  0.00  0.00    +0.000 A 
ATOM     27  C   UNL     1      -3.454  -1.785  -1.581  0.00  0.00    +0.000 A 
ATOM     28  C   UNL     1      -2.561  -0.843  -2.057  0.00  0.00    +0.002 A 
ENDBRANCH  22  23
BRANCH  22  29
ATOM     29  C   UNL     1       0.365  -0.481  -3.682  0.00  0.00    +0.201 C 
ATOM     30  O   UNL     1       1.415  -1.088  -3.677  0.00  0.00    -0.277 OA
ATOM     31  N   UNL     1      -0.270  -0.243  -4.846  0.00  0.00    -0.330 N 
ATOM     32  H   UNL     1      -1.110   0.242  -4.850  0.00  0.00    +0.145 HD
ATOM     33  H   UNL     1       0.113  -0.557  -5.681  0.00  0.00    +0.145 HD
ENDBRANCH  22  29
ENDBRANCH  19  22
ENDBRANCH   2  19
TORSDOF 9
