REMARK  Name = ZINC14639368
REMARK  10 active torsions:
REMARK  status: ('A' for Active; 'I' for Inactive)
REMARK    1  A    between atoms: C_1  and  C_2
REMARK    2  A    between atoms: C_3  and  C_4
REMARK    3  A    between atoms: C_5  and  C_6
REMARK    4  A    between atoms: C_9  and  C_11
REMARK    5  A    between atoms: C_12  and  C_13
REMARK    6  A    between atoms: C_13  and  C_15
REMARK    7  A    between atoms: C_13  and  O_20
REMARK    8  A    between atoms: C_15  and  O_16
REMARK    9  A    between atoms: O_16  and  C_17
REMARK   10  A    between atoms: C_17  and  C_19
REMARK                            x       y       z     vdW  Elec       q    Type
REMARK                         _______ _______ _______ _____ _____    ______ ____
ROOT
ATOM      1  C   UNL     1      -0.022   1.781   0.012  0.00  0.00    +0.064 A 
ATOM      2  C   UNL     1       1.331   2.092   0.001  0.00  0.00    +0.026 A 
ATOM      3  C   UNL     1       2.239   1.069  -0.014  0.00  0.00    +0.026 A 
ATOM      4  C   UNL     1       1.772  -0.236  -0.016  0.00  0.00    +0.063 A 
ATOM      5  S   UNL     1       0.002  -0.004   0.002  0.00  0.00    -0.071 S 
ENDROOT
BRANCH   1   7
ATOM      6  C   UNL     1      -2.072   3.390   0.031  0.00  0.00    -0.009 C 
ATOM      7  C   UNL     1      -1.148   2.665   0.022  0.00  0.00    -0.045 C 
BRANCH   6  10
ATOM      8  C   UNL     1      -5.236   5.875   0.060  0.00  0.00    +0.107 C 
ATOM      9  C   UNL     1      -4.078   4.966   0.050  0.00  0.00    -0.092 C 
ATOM     10  C   UNL     1      -3.155   4.241   0.041  0.00  0.00    -0.015 C 
ENDBRANCH   6  10
ENDBRANCH   1   7
BRANCH   4  11
ATOM     11  C   UNL     1       2.518  -1.459  -0.030  0.00  0.00    -0.056 C 
ATOM     12  C   UNL     1       3.130  -2.461  -0.042  0.00  0.00    -0.062 C 
BRANCH  12  13
ATOM     13  C   UNL     1       3.897  -3.717  -0.056  0.00  0.00    +0.226 C 
BRANCH  13  14
ATOM     14  O   UNL     1       5.295  -3.421  -0.068  0.00  0.00    -0.376 OA
ATOM     15  H   UNL     1       5.596  -2.912   0.697  0.00  0.00    +0.211 HD
ENDBRANCH  13  14
BRANCH  13  16
ATOM     16  C   UNL     1       3.559  -4.535   1.192  0.00  0.00    +0.276 C 
BRANCH  16  17
ATOM     17  O   UNL     1       4.224  -5.824   1.120  0.00  0.00    -0.461 OA
BRANCH  17  18
ATOM     18  C   UNL     1       4.029  -6.668   2.145  0.00  0.00    +0.304 C 
ATOM     19  O   UNL     1       3.326  -6.341   3.072  0.00  0.00    -0.251 OA
ATOM     20  C   UNL     1       4.687  -8.024   2.140  0.00  0.00    +0.136 C 
ENDBRANCH  17  18
ENDBRANCH  16  17
ENDBRANCH  13  16
ENDBRANCH  12  13
ENDBRANCH   4  11
TORSDOF 8
