REMARK  Name = ZINC20411347
REMARK  2 active torsions:
REMARK  status: ('A' for Active; 'I' for Inactive)
REMARK    1  A    between atoms: C_11  and  C_16
REMARK    2  A    between atoms: N_21  and  C_24
REMARK                            x       y       z     vdW  Elec       q    Type
REMARK                         _______ _______ _______ _____ _____    ______ ____
ROOT
ATOM      1  C   UNL     1       3.606  -2.771   4.198  0.00  0.00    +0.001 A 
ATOM      2  C   UNL     1       3.160  -1.746   5.017  0.00  0.00    +0.002 A 
ATOM      3  C   UNL     1       2.753  -0.523   4.513  0.00  0.00    +0.026 A 
ATOM      4  C   UNL     1       2.809  -0.358   3.131  0.00  0.00    +0.047 A 
ATOM      5  C   UNL     1       3.267  -1.411   2.297  0.00  0.00    +0.003 A 
ATOM      6  C   UNL     1       3.672  -2.638   2.833  0.00  0.00    +0.010 A 
ATOM      7  C   UNL     1       3.198  -0.905   0.944  0.00  0.00    -0.022 A 
ATOM      8  C   UNL     1       2.725   0.360   1.015  0.00  0.00    +0.011 A 
ATOM      9  N   UNL     1       2.491   0.694   2.321  0.00  0.00    -0.359 N 
ATOM     10  H   UNL     1       2.110   1.629   2.758  0.00  0.00    +0.166 HD
ATOM     11  C   UNL     1       2.510   1.228  -0.203  0.00  0.00    +0.018 C 
ATOM     12  N   UNL     1       2.505   0.369  -1.398  0.00  0.00    +0.388 N 
ATOM     13  C   UNL     1       3.686  -0.505  -1.435  0.00  0.00    -0.076 C 
ATOM     14  C   UNL     1       3.564  -1.585  -0.351  0.00  0.00    +0.018 C 
ATOM     15  H   UNL     1       1.604  -0.263  -1.391  0.00  0.00    -0.084 HD
ATOM     16  H   UNL     1       2.506   0.997  -2.301  0.00  0.00    -0.084 HD
ENDROOT
BRANCH  11  17
ATOM     17  C   UNL     1       1.189   1.943  -0.087  0.00  0.00    +0.073 A 
ATOM     18  C   UNL     1       1.145   3.302   0.011  0.00  0.00    +0.258 A 
ATOM     19  N   UNL     1      -0.069   3.933   0.115  0.00  0.00    -0.302 N 
ATOM     20  C   UNL     1      -1.210   3.219   0.119  0.00  0.00    +0.164 A 
ATOM     21  S   UNL     1      -2.712   4.030   0.248  0.00  0.00    -0.013 S 
ATOM     22  N   UNL     1      -1.188   1.877   0.018  0.00  0.00    -0.285 N 
ATOM     23  C   UNL     1      -0.017   1.218  -0.080  0.00  0.00    +0.261 A 
ATOM     24  O   UNL     1      -0.002   0.002  -0.167  0.00  0.00    -0.267 OA
ATOM     25  O   UNL     1       2.287   4.022   0.007  0.00  0.00    -0.267 OA
ATOM     26  H   UNL     1      -0.115   5.029   0.195  0.00  0.00    +0.171 HD
BRANCH  22  27
ATOM     27  C   UNL     1      -2.446   1.127   0.019  0.00  0.00    +0.093 C 
ATOM     28  C   UNL     1      -2.625   0.044  -1.047  0.00  0.00    +0.027 C 
ATOM     29  C   UNL     1      -3.406   1.356  -1.151  0.00  0.00    +0.027 C 
ENDBRANCH  22  27
ENDBRANCH  11  17
TORSDOF 2
