REMARK  Name = ZINC40558520
REMARK  4 active torsions:
REMARK  status: ('A' for Active; 'I' for Inactive)
REMARK    1  A    between atoms: C_4  and  CA_7
REMARK    2  A    between atoms: CA_7  and  C_9
REMARK    3  A    between atoms: CA_7  and  N_12
REMARK    4  A    between atoms: C_19  and  C_21
REMARK                            x       y       z     vdW  Elec       q    Type
REMARK                         _______ _______ _______ _____ _____    ______ ____
ROOT
ATOM      1  N   UNL     1       2.890  -1.926  -2.534  0.00  0.00    -0.286 N 
ATOM      2  C   UNL     1       2.989  -2.592  -3.702  0.00  0.00    +0.303 C 
ATOM      3  O   UNL     1       3.063  -1.978  -4.748  0.00  0.00    -0.253 OA
ATOM      4  N   UNL     1       3.008  -3.940  -3.709  0.00  0.00    -0.274 N 
ATOM      5  C   UNL     1       2.920  -4.807  -2.520  0.00  0.00    +0.110 C 
ATOM      6  C   UNL     1       2.366  -6.153  -3.051  0.00  0.00    +0.021 C 
ATOM      7  C   UNL     1       3.069  -6.257  -4.430  0.00  0.00    +0.033 C 
ATOM      8  C   UNL     1       3.112  -4.789  -4.905  0.00  0.00    +0.163 C 
ATOM      9  H   UNL     1       2.831  -2.417  -1.700  0.00  0.00    +0.151 HD
ENDROOT
BRANCH   8  10
ATOM     10  C   UNL     1       4.415  -4.520  -5.613  0.00  0.00    +0.231 C 
ATOM     11  O   UNL     1       5.324  -3.974  -5.023  0.00  0.00    -0.274 OA
ATOM     12  N   UNL     1       4.571  -4.886  -6.900  0.00  0.00    -0.328 N 
ATOM     13  H   UNL     1       3.844  -5.323  -7.372  0.00  0.00    +0.145 HD
ATOM     14  H   UNL     1       5.410  -4.713  -7.356  0.00  0.00    +0.145 HD
ENDBRANCH   8  10
BRANCH   1  15
ATOM     15  CA  UNL     1       2.870  -0.461  -2.526  0.00  0.00    +0.191 C 
BRANCH  15  19
ATOM     16  C   UNL     1      -0.019   1.526   0.010  0.00  0.00    +0.000 C 
ATOM     17  C   UNL     1       1.417   2.055  -0.000  0.00  0.00    +0.000 C 
ATOM     18  C   UNL     1       2.133   1.562  -1.259  0.00  0.00    +0.006 C 
ATOM     19  C   UNL     1       2.154   0.032  -1.268  0.00  0.00    +0.020 C 
ATOM     20  C   UNL     1       0.718  -0.497  -1.257  0.00  0.00    +0.006 C 
ATOM     21  C   UNL     1       0.002  -0.004   0.002  0.00  0.00    +0.000 C 
ENDBRANCH  15  19
BRANCH  15  22
ATOM     22  C   UNL     1       4.284   0.060  -2.537  0.00  0.00    +0.376 C 
ATOM     23  O   UNL     1       5.217  -0.705  -2.367  0.00  0.00    -0.244 OA
ATOM     24  OXT UNL     1       4.494   1.248  -2.716  0.00  0.00    -0.244 OA
ENDBRANCH  15  22
ENDBRANCH   1  15
TORSDOF 4
