REMARK  Name = ZINC44781524
REMARK  5 active torsions:
REMARK  status: ('A' for Active; 'I' for Inactive)
REMARK    1  A    between atoms: C_4  and  C_6
REMARK    2  A    between atoms: C_4  and  C_9
REMARK    3  A    between atoms: C_6  and  N_8
REMARK    4  A    between atoms: C_14  and  C_17
REMARK    5  A    between atoms: C_17  and  C_18
REMARK                            x       y       z     vdW  Elec       q    Type
REMARK                         _______ _______ _______ _____ _____    ______ ____
ROOT
ATOM      1  C   UNL     1       1.931  -0.901  -0.695  0.00  0.00    +0.228 C 
ATOM      2  O   UNL     1       3.021  -0.526  -1.074  0.00  0.00    -0.275 OA
ATOM      3  N   UNL     1       1.217  -1.765  -1.445  0.00  0.00    -0.301 N 
ATOM      4  C   UNL     1      -0.065  -2.294  -0.960  0.00  0.00    +0.108 C 
ATOM      5  C   UNL     1      -1.139  -2.033  -2.021  0.00  0.00    +0.023 C 
ATOM      6  C   UNL     1      -0.681  -2.620  -3.358  0.00  0.00    +0.001 C 
ATOM      7  C   UNL     1       0.613  -1.935  -3.803  0.00  0.00    +0.023 C 
ATOM      8  C   UNL     1       1.704  -2.190  -2.764  0.00  0.00    +0.108 C 
ENDROOT
BRANCH   1  12
ATOM      9  C   UNL     1       2.757  -0.059   2.632  0.00  0.00    +0.001 C 
ATOM     10  C   UNL     1       2.479  -1.571   2.448  0.00  0.00    +0.001 C 
ATOM     11  C   UNL     1       1.188  -1.579   1.592  0.00  0.00    +0.023 C 
ATOM     12  C   UNL     1       1.375  -0.402   0.614  0.00  0.00    +0.091 C 
ATOM     13  C   UNL     1       2.373   0.565   1.275  0.00  0.00    +0.023 C 
BRANCH  12  14
ATOM     14  C   UNL     1       0.058   0.294   0.384  0.00  0.00    +0.061 C 
ATOM     15  S   UNL     1      -1.227  -0.126   1.238  0.00  0.00    -0.040 S 
BRANCH  14  16
ATOM     16  N   UNL     1      -0.037   1.269  -0.541  0.00  0.00    -0.355 N 
ATOM     17  H   UNL     1       0.722   1.474  -1.109  0.00  0.00    +0.143 HD
ATOM     18  H   UNL     1      -0.864   1.766  -0.639  0.00  0.00    +0.143 HD
ENDBRANCH  14  16
ENDBRANCH  12  14
ENDBRANCH   1  12
BRANCH   6  19
ATOM     19  C   UNL     1      -1.766  -2.392  -4.413  0.00  0.00    +0.099 C 
BRANCH  19  20
ATOM     20  C   UNL     1      -1.371  -3.076  -5.696  0.00  0.00    +0.211 C 
ATOM     21  O   UNL     1      -0.325  -3.686  -5.761  0.00  0.00    -0.276 OA
ATOM     22  N   UNL     1      -2.181  -3.010  -6.772  0.00  0.00    -0.329 N 
ATOM     23  H   UNL     1      -3.018  -2.523  -6.720  0.00  0.00    +0.145 HD
ATOM     24  H   UNL     1      -1.927  -3.451  -7.598  0.00  0.00    +0.145 HD
ENDBRANCH  19  20
ENDBRANCH   6  19
TORSDOF 5
