REMARK  Name = ZINC08765339
REMARK  4 active torsions:
REMARK  status: ('A' for Active; 'I' for Inactive)
REMARK    1  A    between atoms: C_1  and  C_2
REMARK    2  A    between atoms: C_2  and  C_3
REMARK    3  A    between atoms: C_2  and  C_4
REMARK    4  A    between atoms: C_4  and  N_5
REMARK                            x       y       z     vdW  Elec       q    Type
REMARK                         _______ _______ _______ _____ _____    ______ ____
ROOT
ATOM      1  N   UNL     1       2.125  -0.091  -1.209  0.00  0.00    -0.267 N 
ATOM      2  C   UNL     1       2.602   1.106  -1.714  0.00  0.00    +0.044 A 
ATOM      3  C   UNL     1       1.908   2.140  -2.345  0.00  0.00    +0.024 A 
ATOM      4  C   UNL     1       2.646   3.239  -2.755  0.00  0.00    +0.002 A 
ATOM      5  C   UNL     1       4.009   3.321  -2.555  0.00  0.00    +0.001 A 
ATOM      6  C   UNL     1       4.712   2.297  -1.929  0.00  0.00    +0.010 A 
ATOM      7  C   UNL     1       3.984   1.201  -1.518  0.00  0.00    +0.024 A 
ATOM      8  C   UNL     1       4.398  -0.061  -0.826  0.00  0.00    +0.206 C 
ATOM      9  C   UNL     1       3.107  -0.837  -0.663  0.00  0.00    +0.267 C 
ATOM     10  O   UNL     1       2.981  -1.925  -0.141  0.00  0.00    -0.271 OA
ATOM     11  N   UNL     1       4.963   0.232   0.494  0.00  0.00    -0.312 N 
ATOM     12  C   UNL     1       6.288   0.647   0.573  0.00  0.00    +0.041 A 
ATOM     13  C   UNL     1       6.736   1.472   1.590  0.00  0.00    +0.024 A 
ATOM     14  C   UNL     1       8.062   1.859   1.622  0.00  0.00    +0.002 A 
ATOM     15  C   UNL     1       8.946   1.428   0.645  0.00  0.00    +0.001 A 
ATOM     16  C   UNL     1       8.516   0.606  -0.375  0.00  0.00    +0.015 A 
ATOM     17  C   UNL     1       7.182   0.206  -0.419  0.00  0.00    +0.058 A 
ATOM     18  C   UNL     1       6.674  -0.678  -1.484  0.00  0.00    +0.248 C 
ATOM     19  O   UNL     1       7.447  -1.273  -2.210  0.00  0.00    -0.270 OA
ATOM     20  N   UNL     1       5.341  -0.820  -1.642  0.00  0.00    -0.279 N 
ATOM     21  H   UNL     1       4.424   0.139   1.295  0.00  0.00    +0.149 HD
ATOM     22  H   UNL     1       5.003  -1.438  -2.310  0.00  0.00    +0.152 HD
ENDROOT
BRANCH   1  23
ATOM     23  C   UNL     1       0.718  -0.497  -1.257  0.00  0.00    +0.116 C 
BRANCH  23  25
ATOM     24  C   UNL     1      -0.019   1.526   0.010  0.00  0.00    +0.009 C 
ATOM     25  C   UNL     1       0.002  -0.004   0.002  0.00  0.00    +0.001 C 
ATOM     26  C   UNL     1      -1.433  -0.534   0.013  0.00  0.00    +0.009 C 
ENDBRANCH  23  25
ENDBRANCH   1  23
TORSDOF 2
