REMARK  Name = ZINC58152292
REMARK  7 active torsions:
REMARK  status: ('A' for Active; 'I' for Inactive)
REMARK    1  A    between atoms: C_1  and  C_2
REMARK    2  A    between atoms: C_2  and  C_4
REMARK    3  A    between atoms: C_2  and  O_18
REMARK    4  A    between atoms: N_6  and  C_7
REMARK    5  A    between atoms: C_8  and  C_15
REMARK    6  A    between atoms: O_18  and  C_19
REMARK    7  A    between atoms: C_19  and  C_21
REMARK                            x       y       z     vdW  Elec       q    Type
REMARK                         _______ _______ _______ _____ _____    ______ ____
ROOT
ATOM      1  C   UNL     1      -0.019   1.526   0.010  0.00  0.00    +0.062 C 
ATOM      2  C   UNL     1       0.002  -0.004   0.002  0.00  0.00    +0.259 C 
ENDROOT
BRANCH   2   3
ATOM      3  C   UNL     1       0.707  -0.490  -1.238  0.00  0.00    +0.258 C 
ATOM      4  O   UNL     1       1.753  -1.097  -1.142  0.00  0.00    -0.271 OA
ATOM      5  N   UNL     1       0.176  -0.250  -2.453  0.00  0.00    -0.276 N 
ATOM      6  H   UNL     1      -0.660   0.235  -2.530  0.00  0.00    +0.155 HD
BRANCH   5   7
ATOM      7  C   UNL     1       0.825  -0.697  -3.594  0.00  0.00    +0.084 A 
ATOM      8  C   UNL     1       0.436  -0.539  -4.911  0.00  0.00    +0.068 A 
ATOM      9  C   UNL     1       1.304  -1.109  -5.940  0.00  0.00    -0.023 A 
ATOM     10  C   UNL     1       2.395  -1.729  -5.455  0.00  0.00    -0.004 A 
ATOM     11  S   UNL     1       2.268  -1.548  -3.694  0.00  0.00    -0.077 S 
ATOM     12  C   UNL     1       3.251  -2.300  -6.553  0.00  0.00    +0.043 C 
ATOM     13  C   UNL     1       2.328  -2.328  -7.792  0.00  0.00    +0.010 C 
ATOM     14  C   UNL     1       1.326  -1.202  -7.464  0.00  0.00    +0.037 C 
BRANCH   8  15
ATOM     15  C   UNL     1      -0.799   0.170  -5.262  0.00  0.00    +0.244 C 
ATOM     16  O   UNL     1      -0.776   1.371  -5.457  0.00  0.00    -0.270 OA
ATOM     17  N   UNL     1      -1.959  -0.508  -5.367  0.00  0.00    -0.325 N 
ATOM     18  H   UNL     1      -1.977  -1.465  -5.211  0.00  0.00    +0.145 HD
ATOM     19  H   UNL     1      -2.775  -0.038  -5.599  0.00  0.00    +0.145 HD
ENDBRANCH   8  15
ENDBRANCH   5   7
ENDBRANCH   2   3
BRANCH   2  20
ATOM     20  O   UNL     1       0.693  -0.477   1.160  0.00  0.00    -0.452 OA
BRANCH  20  21
ATOM     21  C   UNL     1      -0.042  -0.697   2.261  0.00  0.00    +0.320 C 
ATOM     22  O   UNL     1      -1.233  -0.493   2.243  0.00  0.00    -0.250 OA
BRANCH  21  23
ATOM     23  C   UNL     1       0.618  -1.196   3.521  0.00  0.00    +0.165 C 
ATOM     24  C   UNL     1       1.293  -2.511   3.240  0.00  0.00    +0.013 A 
ATOM     25  C   UNL     1       2.510  -2.522   2.581  0.00  0.00    +0.008 A 
ATOM     26  C   UNL     1       3.146  -3.720   2.315  0.00  0.00    +0.001 A 
ATOM     27  C   UNL     1       2.567  -4.913   2.707  0.00  0.00    +0.004 A 
ATOM     28  C   UNL     1       1.353  -4.908   3.364  0.00  0.00    +0.046 A 
ATOM     29  C   UNL     1       0.711  -3.705   3.634  0.00  0.00    +0.133 A 
ATOM     30  O   UNL     1      -0.479  -3.720   4.281  0.00  0.00    -0.455 OA
ATOM     31  C   UNL     1      -0.916  -2.610   4.922  0.00  0.00    +0.133 A 
ATOM     32  C   UNL     1      -0.421  -1.357   4.596  0.00  0.00    +0.013 A 
ATOM     33  C   UNL     1      -0.884  -0.238   5.265  0.00  0.00    +0.008 A 
ATOM     34  C   UNL     1      -1.839  -0.365   6.257  0.00  0.00    +0.001 A 
ATOM     35  C   UNL     1      -2.334  -1.614   6.584  0.00  0.00    +0.004 A 
ATOM     36  C   UNL     1      -1.876  -2.735   5.919  0.00  0.00    +0.046 A 
ENDBRANCH  21  23
ENDBRANCH  20  21
ENDBRANCH   2  20
TORSDOF 6
