REMARK  Name = ZINC53736502
REMARK  5 active torsions:
REMARK  status: ('A' for Active; 'I' for Inactive)
REMARK    1  A    between atoms: C_1  and  C_2
REMARK    2  A    between atoms: C_2  and  C_4
REMARK    3  A    between atoms: C_2  and  O_22
REMARK    4  A    between atoms: C_8  and  N_21
REMARK    5  A    between atoms: N_12  and  C_13
REMARK                            x       y       z     vdW  Elec       q    Type
REMARK                         _______ _______ _______ _____ _____    ______ ____
ROOT
ATOM      1  C   UNL     1       0.731  -0.503   1.223  0.00  0.00    +0.140 A 
ATOM      2  N   UNL     1       2.022  -0.470   1.386  0.00  0.00    -0.230 NA
ATOM      3  C   UNL     1       2.343  -0.997   2.595  0.00  0.00    +0.091 A 
ATOM      4  C   UNL     1       3.553  -1.202   3.264  0.00  0.00    +0.052 A 
ATOM      5  C   UNL     1       3.552  -1.778   4.520  0.00  0.00    +0.027 A 
ATOM      6  C   UNL     1       2.352  -2.156   5.122  0.00  0.00    +0.025 A 
ATOM      7  C   UNL     1       1.154  -1.958   4.471  0.00  0.00    +0.030 A 
ATOM      8  C   UNL     1       1.139  -1.380   3.209  0.00  0.00    +0.069 A 
ATOM      9  N   UNL     1       0.135  -1.049   2.317  0.00  0.00    -0.322 N 
ENDROOT
BRANCH   9  10
ATOM     10  C   UNL     1      -1.302  -1.252   2.512  0.00  0.00    +0.092 C 
ATOM     11  C   UNL     1      -1.762  -0.451   3.727  0.00  0.00    +0.048 C 
ATOM     12  C   UNL     1      -3.292  -0.430   3.790  0.00  0.00    +0.168 C 
ATOM     13  S   UNL     1      -3.893  -2.130   4.019  0.00  0.00    -0.031 S 
ATOM     14  O   UNL     1      -5.297  -2.146   3.799  0.00  0.00    -0.174 OA
ATOM     15  O   UNL     1      -3.379  -2.630   5.246  0.00  0.00    -0.174 OA
ATOM     16  C   UNL     1      -3.083  -3.006   2.649  0.00  0.00    +0.168 C 
ATOM     17  C   UNL     1      -1.577  -2.740   2.712  0.00  0.00    +0.048 C 
ENDBRANCH   9  10
BRANCH   5  18
ATOM     18  N   UNL     1       4.762  -1.985   5.192  0.00  0.00    -0.358 N 
ATOM     19  H   UNL     1       5.598  -1.724   4.776  0.00  0.00    +0.142 HD
ATOM     20  H   UNL     1       4.764  -2.389   6.074  0.00  0.00    +0.142 HD
ENDBRANCH   5  18
BRANCH   1  22
ATOM     21  C   UNL     1      -0.019   1.526   0.010  0.00  0.00    +0.046 C 
ATOM     22  C   UNL     1       0.002  -0.004   0.002  0.00  0.00    +0.177 C 
BRANCH  22  23
ATOM     23  O   UNL     1       0.671  -0.465  -1.174  0.00  0.00    -0.384 OA
ATOM     24  H   UNL     1       1.588  -0.167  -1.247  0.00  0.00    +0.210 HD
ENDBRANCH  22  23
ENDBRANCH   1  22
TORSDOF 4
