REMARK  Name = ZINC38598552
REMARK  12 active torsions:
REMARK  status: ('A' for Active; 'I' for Inactive)
REMARK    1  A    between atoms: C_1  and  C_2
REMARK    2  A    between atoms: C_2  and  C_3
REMARK    3  A    between atoms: C_2  and  C_4
REMARK    4  A    between atoms: C_4  and  C_6
REMARK    5  A    between atoms: C_4  and  N_19
REMARK    6  A    between atoms: C_6  and  N_8
REMARK    7  A    between atoms: C_20  and  C_22
REMARK    8  A    between atoms: C_22  and  N_23
REMARK    9  A    between atoms: C_28  and  O_36
REMARK   10  A    between atoms: C_29  and  O_34
REMARK   11  A    between atoms: O_34  and  C_35
REMARK   12  A    between atoms: O_36  and  C_37
REMARK                            x       y       z     vdW  Elec       q    Type
REMARK                         _______ _______ _______ _____ _____    ______ ____
ROOT
ATOM      1  N   UNL     1      -1.413  -1.998   0.005  0.00  0.00    -0.302 N 
ATOM      2  C   UNL     1      -1.292  -2.677   1.163  0.00  0.00    +0.231 C 
ATOM      3  O   UNL     1      -1.198  -2.075   2.212  0.00  0.00    -0.274 OA
ATOM      4  H   UNL     1      -1.488  -2.480  -0.834  0.00  0.00    +0.150 HD
ENDROOT
BRANCH   1   5
ATOM      5  C   UNL     1      -1.433  -0.534   0.013  0.00  0.00    +0.164 C 
BRANCH   5   7
ATOM      6  C   UNL     1      -0.019   1.526   0.010  0.00  0.00    +0.009 C 
ATOM      7  C   UNL     1       0.002  -0.004   0.002  0.00  0.00    +0.012 C 
ATOM      8  C   UNL     1       0.742  -0.511   1.242  0.00  0.00    +0.009 C 
ENDBRANCH   5   7
BRANCH   5   9
ATOM      9  C   UNL     1      -2.162  -0.034  -1.208  0.00  0.00    +0.259 C 
ATOM     10  O   UNL     1      -2.621  -0.827  -2.008  0.00  0.00    -0.272 OA
BRANCH   9  11
ATOM     11  N   UNL     1      -2.303   1.271  -1.410  0.00  0.00    -0.155 NA
ATOM     12  C   UNL     1      -2.947   1.712  -2.489  0.00  0.00    +0.164 A 
ATOM     13  N   UNL     1      -3.177   2.999  -2.852  0.00  0.00    -0.335 N 
ATOM     14  H   UNL     1      -2.856   3.727  -2.296  0.00  0.00    +0.168 HD
ATOM     15  C   UNL     1      -3.869   3.271  -4.017  0.00  0.00    +0.055 A 
ATOM     16  C   UNL     1      -4.213   4.511  -4.574  0.00  0.00    +0.027 A 
ATOM     17  C   UNL     1      -4.914   4.578  -5.755  0.00  0.00    +0.002 A 
ATOM     18  C   UNL     1      -5.299   3.430  -6.427  0.00  0.00    +0.001 A 
ATOM     19  C   UNL     1      -4.972   2.193  -5.898  0.00  0.00    +0.017 A 
ATOM     20  C   UNL     1      -4.271   2.125  -4.717  0.00  0.00    +0.039 A 
ATOM     21  S   UNL     1      -3.653   0.801  -3.712  0.00  0.00    -0.052 S 
ENDBRANCH   9  11
ENDBRANCH   5   9
ENDBRANCH   1   5
BRANCH   2  22
ATOM     22  C   UNL     1      -1.271  -4.184   1.155  0.00  0.00    +0.205 C 
BRANCH  22  23
ATOM     23  N   UNL     1      -1.131  -4.678   2.527  0.00  0.00    -0.273 N 
ATOM     24  C   UNL     1       0.206  -4.897   3.078  0.00  0.00    +0.214 C 
ATOM     25  N   UNL     1       0.213  -4.625   4.520  0.00  0.00    -0.328 N 
ATOM     26  C   UNL     1      -0.843  -5.099   5.295  0.00  0.00    +0.044 A 
ATOM     27  C   UNL     1      -0.676  -5.422   6.629  0.00  0.00    +0.073 A 
ATOM     28  C   UNL     1      -1.759  -5.875   7.367  0.00  0.00    +0.163 A 
ATOM     29  C   UNL     1      -3.015  -6.006   6.771  0.00  0.00    +0.162 A 
ATOM     30  C   UNL     1      -3.190  -5.693   5.439  0.00  0.00    +0.064 A 
ATOM     31  C   UNL     1      -2.103  -5.242   4.688  0.00  0.00    +0.061 A 
ATOM     32  C   UNL     1      -2.236  -4.918   3.260  0.00  0.00    +0.250 C 
ATOM     33  O   UNL     1      -3.336  -4.869   2.743  0.00  0.00    -0.270 OA
ATOM     34  H   UNL     1       0.939  -4.125   4.926  0.00  0.00    +0.148 HD
BRANCH  29  35
ATOM     35  O   UNL     1      -4.071  -6.445   7.508  0.00  0.00    -0.491 OA
ATOM     36  C   UNL     1      -5.328  -6.556   6.838  0.00  0.00    +0.277 C 
ENDBRANCH  29  35
BRANCH  28  37
ATOM     37  O   UNL     1      -1.597  -6.194   8.677  0.00  0.00    -0.491 OA
ATOM     38  C   UNL     1      -0.287  -6.039   9.226  0.00  0.00    +0.277 C 
ENDBRANCH  28  37
ENDBRANCH  22  23
ENDBRANCH   2  22
TORSDOF 8
