REMARK  Name = ZINC36848794
REMARK  10 active torsions:
REMARK  status: ('A' for Active; 'I' for Inactive)
REMARK    1  A    between atoms: C_1  and  C_2
REMARK    2  A    between atoms: C_5  and  C_9
REMARK    3  A    between atoms: C_7  and  C_8
REMARK    4  A    between atoms: C_9  and  C_11
REMARK    5  A    between atoms: C_9  and  N_12
REMARK    6  A    between atoms: C_13  and  C_15
REMARK    7  A    between atoms: C_15  and  N_16
REMARK    8  A    between atoms: C_19  and  C_23
REMARK    9  A    between atoms: C_19  and  C_24
REMARK   10  A    between atoms: C_27  and  C_30
REMARK                            x       y       z     vdW  Elec       q    Type
REMARK                         _______ _______ _______ _____ _____    ______ ____
ROOT
ATOM      1  N   UNL     1      -2.740  -7.858  -1.729  0.00  0.00    -0.215 N 
ATOM      2  C   UNL     1      -2.094  -8.986  -2.087  0.00  0.00    +0.251 C 
ATOM      3  O   UNL     1      -1.067  -9.071  -2.724  0.00  0.00    -0.272 OA
ATOM      4  C   UNL     1      -2.921 -10.126  -1.526  0.00  0.00    +0.135 C 
ATOM      5  N   UNL     1      -4.040  -9.444  -0.854  0.00  0.00    -0.281 N 
ATOM      6  C   UNL     1      -3.844  -8.124  -1.023  0.00  0.00    +0.310 C 
ATOM      7  O   UNL     1      -4.589  -7.269  -0.587  0.00  0.00    -0.252 OA
ATOM      8  C   UNL     1      -3.435 -11.024  -2.653  0.00  0.00    +0.047 C 
ATOM      9  H   UNL     1      -4.775  -9.865  -0.380  0.00  0.00    +0.152 HD
ENDROOT
BRANCH   4  10
ATOM     10  C   UNL     1      -2.116 -10.926  -0.534  0.00  0.00    -0.015 A 
ATOM     11  C   UNL     1      -0.742 -11.016  -0.675  0.00  0.00    +0.007 A 
ATOM     12  C   UNL     1       0.001 -11.747   0.229  0.00  0.00    +0.019 A 
ATOM     13  C   UNL     1      -0.637 -12.396   1.288  0.00  0.00    +0.052 A 
ATOM     14  C   UNL     1      -2.023 -12.301   1.425  0.00  0.00    +0.019 A 
ATOM     15  C   UNL     1      -2.753 -11.563   0.516  0.00  0.00    +0.007 A 
BRANCH  13  16
ATOM     16  C   UNL     1       0.128 -13.157   2.230  0.00  0.00    +0.099 C 
ATOM     17  N   UNL     1       0.735 -13.761   2.977  0.00  0.00    -0.191 NA
ENDBRANCH  13  16
ENDBRANCH   4  10
BRANCH   1  18
ATOM     18  C   UNL     1      -2.284  -6.507  -2.067  0.00  0.00    +0.213 C 
BRANCH  18  20
ATOM     19  N   UNL     1      -0.828  -4.769  -1.077  0.00  0.00    -0.307 N 
ATOM     20  C   UNL     1      -1.371  -5.999  -0.981  0.00  0.00    +0.231 C 
ATOM     21  O   UNL     1      -1.125  -6.697  -0.019  0.00  0.00    -0.274 OA
ATOM     22  H   UNL     1      -1.024  -4.212  -1.846  0.00  0.00    +0.149 HD
BRANCH  19  23
ATOM     23  C   UNL     1       0.059  -4.275  -0.021  0.00  0.00    +0.100 C 
ATOM     24  C   UNL     1       1.485  -4.766  -0.282  0.00  0.00    +0.033 C 
BRANCH  23  29
ATOM     25  C   UNL     1      -0.018   1.503   0.010  0.00  0.00    +0.044 C 
ATOM     26  C   UNL     1       0.002  -0.004   0.002  0.00  0.00    -0.048 A 
ATOM     27  C   UNL     1       0.006  -0.689  -1.199  0.00  0.00    +0.004 A 
ATOM     28  C   UNL     1       0.025  -2.071  -1.207  0.00  0.00    +0.006 A 
ATOM     29  C   UNL     1       0.040  -2.768  -0.013  0.00  0.00    -0.027 A 
ATOM     30  C   UNL     1       0.037  -2.084   1.188  0.00  0.00    +0.009 A 
ATOM     31  C   UNL     1       0.023  -0.702   1.195  0.00  0.00    -0.047 A 
ATOM     32  C   UNL     1       0.025   0.045   2.504  0.00  0.00    +0.044 C 
ENDBRANCH  23  29
ENDBRANCH  19  23
ENDBRANCH  18  20
ENDBRANCH   1  18
TORSDOF 6
