REMARK  Name = ZINC66940287
REMARK  6 active torsions:
REMARK  status: ('A' for Active; 'I' for Inactive)
REMARK    1  A    between atoms: C_1  and  C_2
REMARK    2  A    between atoms: C_2  and  C_26
REMARK    3  A    between atoms: C_5  and  N_13
REMARK    4  A    between atoms: N_13  and  C_14
REMARK    5  A    between atoms: C_14  and  C_16
REMARK    6  A    between atoms: C_14  and  C_23
REMARK                            x       y       z     vdW  Elec       q    Type
REMARK                         _______ _______ _______ _____ _____    ______ ____
ROOT
ATOM      1  N   UNL     1      -1.143  -3.381   1.296  0.00  0.00    +0.394 N 
ATOM      2  H   UNL     1      -0.468  -3.731   0.632  0.00  0.00    -0.083 HD
ATOM      3  H   UNL     1      -0.662  -2.989   2.091  0.00  0.00    -0.083 HD
ENDROOT
BRANCH   1   8
ATOM      4  C   UNL     1      -2.803   0.420  -2.508  0.00  0.00    +0.016 C 
ATOM      5  C   UNL     1      -2.164  -0.846  -1.933  0.00  0.00    -0.010 C 
ATOM      6  C   UNL     1      -3.258  -1.754  -1.375  0.00  0.00    +0.010 C 
ATOM      7  C   UNL     1      -2.590  -2.906  -0.615  0.00  0.00    -0.010 C 
ATOM      8  C   UNL     1      -1.962  -2.342   0.658  0.00  0.00    -0.039 C 
ATOM      9  C   UNL     1      -1.094  -1.153   0.338  0.00  0.00    -0.058 A 
ATOM     10  C   UNL     1      -1.189  -0.464  -0.850  0.00  0.00    -0.040 A 
ATOM     11  C   UNL     1      -0.363   0.628  -1.080  0.00  0.00    +0.004 A 
ATOM     12  C   UNL     1       0.554   1.026  -0.129  0.00  0.00    +0.000 A 
ATOM     13  C   UNL     1       0.652   0.332   1.062  0.00  0.00    +0.000 A 
ATOM     14  C   UNL     1      -0.169  -0.752   1.293  0.00  0.00    +0.002 A 
ATOM     15  C   UNL     1      -1.417  -1.584  -3.047  0.00  0.00    +0.016 C 
ENDBRANCH   1   8
BRANCH   1  16
ATOM     16  C   UNL     1      -2.008  -4.482   1.740  0.00  0.00    +0.047 C 
BRANCH  16  17
ATOM     17  C   UNL     1      -1.156  -5.613   2.257  0.00  0.00    -0.053 A 
ATOM     18  C   UNL     1      -0.037  -5.341   3.022  0.00  0.00    +0.005 A 
ATOM     19  C   UNL     1       0.744  -6.377   3.497  0.00  0.00    +0.038 A 
ATOM     20  C   UNL     1       0.406  -7.688   3.207  0.00  0.00    +0.123 A 
ATOM     21  C   UNL     1      -0.715  -7.959   2.440  0.00  0.00    +0.038 A 
ATOM     22  C   UNL     1      -1.498  -6.921   1.971  0.00  0.00    +0.005 A 
ATOM     23  F   UNL     1       1.170  -8.701   3.670  0.00  0.00    -0.205 F 
ENDBRANCH  16  17
BRANCH  16  24
ATOM     24  C   UNL     1      -2.917  -3.995   2.839  0.00  0.00    +0.201 C 
ATOM     25  O   UNL     1      -2.574  -3.069   3.544  0.00  0.00    -0.277 OA
ATOM     26  N   UNL     1      -4.111  -4.587   3.038  0.00  0.00    -0.330 N 
ATOM     27  H   UNL     1      -4.385  -5.327   2.475  0.00  0.00    +0.145 HD
ATOM     28  H   UNL     1      -4.696  -4.274   3.746  0.00  0.00    +0.145 HD
ENDBRANCH  16  24
ENDBRANCH   1  16
TORSDOF 4
