REMARK  Name = ZINC53160671
REMARK  7 active torsions:
REMARK  status: ('A' for Active; 'I' for Inactive)
REMARK    1  A    between atoms: C_1  and  C_2
REMARK    2  A    between atoms: C_2  and  C_3
REMARK    3  A    between atoms: C_2  and  C_4
REMARK    4  A    between atoms: C_2  and  C_8
REMARK    5  A    between atoms: N_5  and  O_6
REMARK    6  A    between atoms: N_10  and  C_11
REMARK    7  A    between atoms: C_11  and  C_12
REMARK                            x       y       z     vdW  Elec       q    Type
REMARK                         _______ _______ _______ _____ _____    ______ ____
ROOT
ATOM      1  C   UNL     1       0.707  -0.490  -1.238  0.00  0.00    +0.226 C 
ATOM      2  O   UNL     1       0.120  -1.191  -2.034  0.00  0.00    -0.275 OA
ATOM      3  N   UNL     1       1.991  -0.146  -1.462  0.00  0.00    -0.310 N 
ATOM      4  H   UNL     1       2.461   0.415  -0.825  0.00  0.00    +0.149 HD
ENDROOT
BRANCH   1   6
ATOM      5  C   UNL     1      -0.019   1.526   0.010  0.00  0.00    +0.028 C 
ATOM      6  C   UNL     1       0.002  -0.004   0.002  0.00  0.00    +0.099 C 
ATOM      7  C   UNL     1       0.742  -0.511   1.242  0.00  0.00    +0.028 C 
BRANCH   6   8
ATOM      8  C   UNL     1      -1.412  -0.526   0.013  0.00  0.00    +0.146 C 
ATOM      9  N   UNL     1      -2.405   0.300   0.027  0.00  0.00    -0.076 NA
ATOM     10  N   UNL     1      -1.645  -1.883   0.008  0.00  0.00    -0.343 N 
ATOM     11  H   UNL     1      -0.899  -2.503  -0.003  0.00  0.00    +0.144 HD
ATOM     12  H   UNL     1      -2.555  -2.219   0.015  0.00  0.00    +0.144 HD
BRANCH   9  13
ATOM     13  O   UNL     1      -3.733  -0.190   0.037  0.00  0.00    -0.408 OA
ATOM     14  H   UNL     1      -4.408   0.503   0.047  0.00  0.00    +0.328 HD
ENDBRANCH   9  13
ENDBRANCH   6   8
ENDBRANCH   1   6
BRANCH   3  15
ATOM     15  C   UNL     1       2.677  -0.618  -2.667  0.00  0.00    +0.139 C 
BRANCH  15  16
ATOM     16  C   UNL     1       4.091  -0.097  -2.678  0.00  0.00    -0.029 A 
ATOM     17  C   UNL     1       4.373   1.121  -3.268  0.00  0.00    +0.008 A 
ATOM     18  C   UNL     1       5.669   1.602  -3.278  0.00  0.00    +0.040 A 
ATOM     19  C   UNL     1       6.685   0.863  -2.697  0.00  0.00    +0.142 A 
ATOM     20  C   UNL     1       6.402  -0.358  -2.106  0.00  0.00    +0.076 A 
ATOM     21  C   UNL     1       5.103  -0.834  -2.092  0.00  0.00    +0.028 A 
ATOM     22 CL   UNL     1       7.675  -1.287  -1.377  0.00  0.00    -0.081 Cl
ATOM     23  F   UNL     1       7.952   1.331  -2.707  0.00  0.00    -0.204 F 
ENDBRANCH  15  16
ENDBRANCH   3  15
TORSDOF 5
