REMARK  Name = ZINC33249483
REMARK  5 active torsions:
REMARK  status: ('A' for Active; 'I' for Inactive)
REMARK    1  A    between atoms: C_1  and  C_2
REMARK    2  A    between atoms: C_9  and  C_11
REMARK    3  A    between atoms: C_11  and  N_12
REMARK    4  A    between atoms: C_15  and  S_23
REMARK    5  A    between atoms: S_23  and  N_26
REMARK                            x       y       z     vdW  Elec       q    Type
REMARK                         _______ _______ _______ _____ _____    ______ ____
ROOT
ATOM      1  N   UNL     1       6.223   0.187  -2.667  0.00  0.00    -0.261 N 
ATOM      2  C   UNL     1       5.310  -0.663  -2.050  0.00  0.00    +0.052 A 
ATOM      3  C   UNL     1       4.853  -0.365  -0.771  0.00  0.00    +0.053 A 
ATOM      4  C   UNL     1       3.950  -1.200  -0.142  0.00  0.00    +0.107 A 
ATOM      5  C   UNL     1       3.496  -2.344  -0.773  0.00  0.00    +0.030 A 
ATOM      6  C   UNL     1       3.937  -2.650  -2.048  0.00  0.00    +0.018 A 
ATOM      7  C   UNL     1       4.840  -1.815  -2.684  0.00  0.00    +0.030 A 
ATOM      8  S   UNL     1       5.412  -2.194  -4.310  0.00  0.00    -0.114 S 
ATOM      9  C   UNL     1       5.740  -0.547  -5.007  0.00  0.00    +0.170 C 
ATOM     10  C   UNL     1       6.452   0.283  -3.974  0.00  0.00    +0.230 C 
ATOM     11  O   UNL     1       7.281   1.083  -4.353  0.00  0.00    -0.274 OA
ENDROOT
BRANCH   4  12
ATOM     12  S   UNL     1       3.380  -0.810   1.478  0.00  0.00    +0.061 S 
ATOM     13  O   UNL     1       4.372   0.017   2.070  0.00  0.00    -0.153 OA
ATOM     14  O   UNL     1       2.958  -2.033   2.066  0.00  0.00    -0.153 OA
BRANCH  12  15
ATOM     15  N   UNL     1       2.024   0.126   1.308  0.00  0.00    -0.177 NA
ATOM     16  C   UNL     1       0.693  -0.492   1.228  0.00  0.00    +0.109 C 
ATOM     17  C   UNL     1      -0.011   0.014  -0.035  0.00  0.00    +0.017 C 
ATOM     18  C   UNL     1      -0.028   1.544  -0.027  0.00  0.00    +0.003 C 
ATOM     19  C   UNL     1       1.409   2.072  -0.030  0.00  0.00    +0.017 C 
ATOM     20  C   UNL     1       2.129   1.589   1.233  0.00  0.00    +0.109 C 
ENDBRANCH  12  15
ENDBRANCH   4  12
BRANCH   1  21
ATOM     21  C   UNL     1       7.009   1.061  -1.792  0.00  0.00    +0.209 C 
BRANCH  21  30
ATOM     22  C   UNL     1       4.089   8.207  -0.253  0.00  0.00    +0.045 C 
ATOM     23  C   UNL     1       4.868   6.928  -0.416  0.00  0.00    -0.032 A 
ATOM     24  C   UNL     1       6.149   6.815   0.106  0.00  0.00    +0.008 A 
ATOM     25  C   UNL     1       6.828   5.621  -0.062  0.00  0.00    +0.044 A 
ATOM     26  C   UNL     1       6.211   4.584  -0.753  0.00  0.00    +0.125 A 
ATOM     27  N   UNL     1       4.988   4.730  -1.236  0.00  0.00    -0.240 NA
ATOM     28  C   UNL     1       4.315   5.855  -1.087  0.00  0.00    +0.116 A 
ATOM     29  N   UNL     1       6.886   3.377  -0.934  0.00  0.00    -0.269 N 
ATOM     30  C   UNL     1       6.338   2.406  -1.691  0.00  0.00    +0.236 C 
ATOM     31  O   UNL     1       5.305   2.615  -2.291  0.00  0.00    -0.274 OA
ATOM     32  H   UNL     1       7.865   3.218  -0.458  0.00  0.00    +0.156 HD
ENDBRANCH  21  30
ENDBRANCH   1  21
TORSDOF 4
