REMARK  Name = ZINC67311257
REMARK  6 active torsions:
REMARK  status: ('A' for Active; 'I' for Inactive)
REMARK    1  A    between atoms: C_1  and  C_2
REMARK    2  A    between atoms: C_5  and  N_11
REMARK    3  A    between atoms: C_7  and  C_8
REMARK    4  A    between atoms: N_14  and  C_15
REMARK    5  A    between atoms: C_15  and  C_16
REMARK    6  A    between atoms: C_26  and  C_29
REMARK                            x       y       z     vdW  Elec       q    Type
REMARK                         _______ _______ _______ _____ _____    ______ ____
ROOT
ATOM      1  N   UNL     1       0.072  -4.785  -0.429  0.00  0.00    -0.269 N 
ATOM      2  C   UNL     1       0.075  -5.466  -1.592  0.00  0.00    +0.304 C 
ATOM      3  O   UNL     1       0.032  -4.864  -2.648  0.00  0.00    -0.252 OA
ATOM      4  N   UNL     1       0.127  -6.812  -1.585  0.00  0.00    -0.295 N 
ATOM      5  H   UNL     1       0.034  -5.265   0.413  0.00  0.00    +0.156 HD
ATOM      6  H   UNL     1       0.161  -7.292  -0.743  0.00  0.00    +0.151 HD
ENDROOT
BRANCH   1  11
ATOM      7  C   UNL     1       0.300   0.893  -0.433  0.00  0.00    +0.044 C 
ATOM      8  C   UNL     1       0.237  -0.613  -0.435  0.00  0.00    -0.038 A 
ATOM      9  C   UNL     1       0.875  -1.331   0.556  0.00  0.00    +0.006 A 
ATOM     10  C   UNL     1       0.821  -2.712   0.559  0.00  0.00    +0.023 A 
ATOM     11  C   UNL     1       0.123  -3.387  -0.436  0.00  0.00    +0.035 A 
ATOM     12  C   UNL     1      -0.521  -2.675  -1.435  0.00  0.00    +0.036 A 
ATOM     13  C   UNL     1      -0.471  -1.281  -1.435  0.00  0.00    +0.041 A 
BRANCH  13  14
ATOM     14  C   UNL     1      -1.160  -0.513  -2.494  0.00  0.00    +0.242 C 
ATOM     15  O   UNL     1      -1.058   0.697  -2.533  0.00  0.00    -0.270 OA
ATOM     16  N   UNL     1      -1.902  -1.157  -3.418  0.00  0.00    -0.325 N 
ATOM     17  H   UNL     1      -1.984  -2.123  -3.387  0.00  0.00    +0.145 HD
ATOM     18  H   UNL     1      -2.355  -0.653  -4.113  0.00  0.00    +0.145 HD
ENDBRANCH  13  14
ENDBRANCH   1  11
BRANCH   4  19
ATOM     19  C   UNL     1       0.130  -7.552  -2.850  0.00  0.00    +0.142 C 
BRANCH  19  20
ATOM     20  C   UNL     1       0.192  -9.031  -2.567  0.00  0.00    -0.014 A 
ATOM     21  C   UNL     1       1.418  -9.673  -2.453  0.00  0.00    +0.010 A 
ATOM     22  C   UNL     1       1.430 -11.031  -2.192  0.00  0.00    +0.042 A 
ATOM     23  C   UNL     1       0.220 -11.705  -2.055  0.00  0.00    +0.099 A 
ATOM     24  N   UNL     1      -0.928 -11.057  -2.171  0.00  0.00    -0.349 N 
ATOM     25  C   UNL     1      -0.970  -9.760  -2.413  0.00  0.00    +0.089 A 
ATOM     26  N   UNL     1       0.218 -13.070  -1.794  0.00  0.00    -0.312 N 
ATOM     27  C   UNL     1      -1.038 -13.836  -1.781  0.00  0.00    +0.134 C 
ATOM     28  C   UNL     1      -0.862 -15.068  -2.676  0.00  0.00    +0.179 C 
ATOM     29  O   UNL     1       0.317 -15.774  -2.280  0.00  0.00    -0.374 OA
ATOM     30  C   UNL     1       1.526 -15.025  -2.430  0.00  0.00    +0.132 C 
ATOM     31  C   UNL     1       1.472 -13.792  -1.528  0.00  0.00    +0.137 C 
ATOM     32  C   UNL     1       2.719 -15.898  -2.037  0.00  0.00    +0.039 C 
ATOM     33  H   UNL     1      -1.760 -11.546  -2.071  0.00  0.00    +0.167 HD
ENDBRANCH  19  20
ENDBRANCH   4  19
TORSDOF 4
