REMARK  Name = ZINC49622769
REMARK  6 active torsions:
REMARK  status: ('A' for Active; 'I' for Inactive)
REMARK    1  A    between atoms: C_1  and  C_2
REMARK    2  A    between atoms: C_2  and  O_3
REMARK    3  A    between atoms: O_3  and  C_4
REMARK    4  A    between atoms: C_11  and  N_13
REMARK    5  A    between atoms: C_14  and  C_16
REMARK    6  A    between atoms: C_16  and  N_17
REMARK                            x       y       z     vdW  Elec       q    Type
REMARK                         _______ _______ _______ _____ _____    ______ ____
ROOT
ATOM      1  C   UNL     1       0.777  -1.811  -1.336  0.00  0.00    +0.122 A 
ATOM      2  C   UNL     1       0.243  -2.679  -0.388  0.00  0.00    +0.048 A 
ATOM      3  C   UNL     1       0.335  -4.028  -0.526  0.00  0.00    +0.032 A 
ATOM      4  C   UNL     1       0.980  -4.602  -1.646  0.00  0.00    +0.081 A 
ATOM      5  C   UNL     1       1.512  -3.697  -2.594  0.00  0.00    +0.044 A 
ATOM      6  C   UNL     1       1.413  -2.335  -2.452  0.00  0.00    +0.063 A 
ATOM      7  S   UNL     1       2.215  -4.786  -3.808  0.00  0.00    -0.048 S 
ATOM      8  C   UNL     1       1.775  -6.325  -3.012  0.00  0.00    +0.197 A 
ATOM      9  N   UNL     1       1.152  -5.911  -1.927  0.00  0.00    -0.221 NA
ENDROOT
BRANCH   8  10
ATOM     10  N   UNL     1       2.020  -7.600  -3.422  0.00  0.00    -0.188 NA
ATOM     11  C   UNL     1       1.617  -8.606  -2.699  0.00  0.00    +0.232 C 
ATOM     12  O   UNL     1       0.957  -8.385  -1.546  0.00  0.00    -0.273 OA
BRANCH  11  13
ATOM     13  C   UNL     1       1.888 -10.017  -3.153  0.00  0.00    +0.024 C 
BRANCH  13  14
ATOM     14  N   UNL     1       2.616  -9.989  -4.429  0.00  0.00    +0.386 N 
ATOM     15  C   UNL     1       1.762  -9.397  -5.465  0.00  0.00    -0.078 C 
ATOM     16  C   UNL     1       2.543  -9.291  -6.777  0.00  0.00    -0.019 C 
ATOM     17  C   UNL     1       2.984 -10.690  -7.216  0.00  0.00    -0.004 C 
ATOM     18  C   UNL     1       3.813 -11.328  -6.096  0.00  0.00    -0.019 C 
ATOM     19  C   UNL     1       2.985 -11.358  -4.810  0.00  0.00    -0.078 C 
ATOM     20  H   UNL     1       3.452  -9.433  -4.327  0.00  0.00    -0.081 HD
ENDBRANCH  13  14
ENDBRANCH  11  13
ENDBRANCH   8  10
BRANCH   1  21
ATOM     21  O   UNL     1       0.671  -0.465  -1.174  0.00  0.00    -0.492 OA
BRANCH  21  23
ATOM     22  C   UNL     1      -0.019   1.526   0.010  0.00  0.00    +0.048 C 
ATOM     23  C   UNL     1       0.002  -0.004   0.002  0.00  0.00    +0.225 C 
ENDBRANCH  21  23
ENDBRANCH   1  21
TORSDOF 5
