REMARK  Name = ZINC21603580
REMARK  12 active torsions:
REMARK  status: ('A' for Active; 'I' for Inactive)
REMARK    1  A    between atoms: C_1  and  C_2
REMARK    2  A    between atoms: C_2  and  C_4
REMARK    3  A    between atoms: C_2  and  O_14
REMARK    4  A    between atoms: N_9  and  C_10
REMARK    5  A    between atoms: C_10  and  C_11
REMARK    6  A    between atoms: C_10  and  C_12
REMARK    7  A    between atoms: C_10  and  C_13
REMARK    8  A    between atoms: O_14  and  C_15
REMARK    9  A    between atoms: C_15  and  C_17
REMARK   10  A    between atoms: C_21  and  O_24
REMARK   11  A    between atoms: C_22  and  O_23
REMARK   12  A    between atoms: O_24  and  C_25
REMARK                            x       y       z     vdW  Elec       q    Type
REMARK                         _______ _______ _______ _____ _____    ______ ____
ROOT
ATOM      1  C   UNL     1      -0.493   4.021   1.276  0.00  0.00    +0.062 C 
ATOM      2  C   UNL     1      -1.213   3.508   0.027  0.00  0.00    +0.259 C 
ENDROOT
BRANCH   2   3
ATOM      3  C   UNL     1      -1.192   2.002   0.019  0.00  0.00    +0.261 C 
ATOM      4  O   UNL     1      -2.234   1.381   0.020  0.00  0.00    -0.271 OA
ATOM      5  N   UNL     1      -0.016   1.344   0.009  0.00  0.00    -0.237 N 
ATOM      6  C   UNL     1       0.002  -0.004   0.002  0.00  0.00    +0.306 C 
ATOM      7  O   UNL     1      -1.042  -0.626   0.009  0.00  0.00    -0.252 OA
ATOM      8  N   UNL     1       1.178  -0.662  -0.013  0.00  0.00    -0.294 N 
ATOM      9  H   UNL     1       0.929   1.907   0.008  0.00  0.00    +0.159 HD
ATOM     10  H   UNL     1       2.123  -0.099  -0.019  0.00  0.00    +0.151 HD
BRANCH   8  11
ATOM     11  C   UNL     1       1.198  -2.127  -0.021  0.00  0.00    +0.028 C 
ATOM     12  C   UNL     1       0.472  -2.640  -1.266  0.00  0.00    +0.031 C 
ATOM     13  C   UNL     1       2.647  -2.617  -0.037  0.00  0.00    +0.031 C 
ATOM     14  C   UNL     1       0.496  -2.653   1.232  0.00  0.00    +0.031 C 
ENDBRANCH   8  11
ENDBRANCH   2   3
BRANCH   2  15
ATOM     15  O   UNL     1      -2.588   3.974   0.036  0.00  0.00    -0.449 OA
BRANCH  15  16
ATOM     16  C   UNL     1      -2.837   5.158  -0.557  0.00  0.00    +0.344 C 
ATOM     17  O   UNL     1      -1.930   5.785  -1.067  0.00  0.00    -0.245 OA
BRANCH  16  18
ATOM     18  C   UNL     1      -4.210   5.693  -0.586  0.00  0.00    +0.104 A 
ATOM     19  C   UNL     1      -5.258   4.975   0.001  0.00  0.00    +0.019 A 
ATOM     20  C   UNL     1      -6.539   5.479  -0.028  0.00  0.00    +0.005 A 
ATOM     21  C   UNL     1      -6.799   6.696  -0.637  0.00  0.00    +0.049 A 
ATOM     22  C   UNL     1      -5.774   7.419  -1.221  0.00  0.00    +0.162 A 
ATOM     23  C   UNL     1      -4.472   6.926  -1.196  0.00  0.00    +0.173 A 
BRANCH  23  24
ATOM     24  O   UNL     1      -3.463   7.635  -1.763  0.00  0.00    -0.503 OA
ATOM     25  H   UNL     1      -3.672   8.603  -2.241  0.00  0.00    +0.292 HD
ENDBRANCH  23  24
BRANCH  22  26
ATOM     26  O   UNL     1      -6.037   8.614  -1.816  0.00  0.00    -0.491 OA
ATOM     27  C   UNL     1      -7.394   9.061  -1.801  0.00  0.00    +0.277 C 
ENDBRANCH  22  26
ENDBRANCH  16  18
ENDBRANCH  15  16
ENDBRANCH   2  15
TORSDOF 7
