REMARK  Name = ZINC39664369
REMARK  7 active torsions:
REMARK  status: ('A' for Active; 'I' for Inactive)
REMARK    1  A    between atoms: C_1  and  C_2
REMARK    2  A    between atoms: C_4  and  C_9
REMARK    3  A    between atoms: C_13  and  C_22
REMARK    4  A    between atoms: N_24  and  C_25
REMARK    5  A    between atoms: C_25  and  C_26
REMARK    6  A    between atoms: C_26  and  C_28
REMARK    7  A    between atoms: C_26  and  N_34
REMARK                            x       y       z     vdW  Elec       q    Type
REMARK                         _______ _______ _______ _____ _____    ______ ____
ROOT
ATOM      1  C   UNL     1       0.029  -2.826  -2.517  0.00  0.00    +0.247 C 
ATOM      2  O   UNL     1      -0.088  -2.228  -3.568  0.00  0.00    -0.270 OA
ATOM      3  N   UNL     1       0.152  -4.168  -2.514  0.00  0.00    -0.296 N 
ATOM      4  C   UNL     1       0.174  -5.077  -1.344  0.00  0.00    +0.121 C 
ATOM      5  C   UNL     1      -0.641  -6.311  -1.792  0.00  0.00    +0.100 C 
ATOM      6  C   UNL     1      -0.554  -6.301  -3.328  0.00  0.00    -0.004 C 
ATOM      7  C   UNL     1       0.291  -5.070  -3.683  0.00  0.00    +0.115 C 
ATOM      8  C   UNL     1      -1.948  -6.170  -3.934  0.00  0.00    -0.010 C 
ATOM      9  C   UNL     1      -1.842  -6.221  -5.461  0.00  0.00    -0.082 C 
ATOM     10  N   UNL     1      -1.226  -7.489  -5.869  0.00  0.00    +0.379 N 
ATOM     11  C   UNL     1       0.148  -7.566  -5.358  0.00  0.00    -0.082 C 
ATOM     12  C   UNL     1       0.126  -7.572  -3.827  0.00  0.00    -0.010 C 
ATOM     13  H   UNL     1      -1.765  -8.258  -5.498  0.00  0.00    -0.086 HD
ATOM     14  H   UNL     1      -1.212  -7.547  -6.876  0.00  0.00    -0.086 HD
ENDROOT
BRANCH   1  18
ATOM     15  C   UNL     1      -1.234   1.209   0.131  0.00  0.00    +0.047 C 
ATOM     16  C   UNL     1      -0.571  -0.141   0.038  0.00  0.00    -0.015 A 
ATOM     17  C   UNL     1      -0.580  -0.831  -1.156  0.00  0.00    +0.019 A 
ATOM     18  C   UNL     1       0.035  -2.082  -1.240  0.00  0.00    +0.037 A 
ATOM     19  C   UNL     1       0.656  -2.627  -0.114  0.00  0.00    +0.016 A 
ATOM     20  C   UNL     1       0.658  -1.929   1.074  0.00  0.00    +0.039 A 
ATOM     21  C   UNL     1       0.051  -0.685   1.151  0.00  0.00    +0.126 A 
ATOM     22  F   UNL     1       0.061  -0.002   2.317  0.00  0.00    -0.205 F 
ENDBRANCH   1  18
BRANCH   5  23
ATOM     23  C   UNL     1      -0.030  -7.572  -1.238  0.00  0.00    +0.218 C 
ATOM     24  O   UNL     1       1.149  -7.601  -0.953  0.00  0.00    -0.275 OA
ATOM     25  N   UNL     1      -0.794  -8.668  -1.058  0.00  0.00    -0.313 N 
ATOM     26  H   UNL     1      -1.737  -8.645  -1.285  0.00  0.00    +0.149 HD
BRANCH  25  27
ATOM     27  C   UNL     1      -0.201  -9.894  -0.519  0.00  0.00    +0.127 C 
BRANCH  27  28
ATOM     28  C   UNL     1      -1.298 -10.937  -0.298  0.00  0.00    +0.104 C 
BRANCH  28  29
ATOM     29  C   UNL     1      -2.306 -10.405   0.687  0.00  0.00    -0.029 A 
ATOM     30  C   UNL     1      -2.036 -10.444   2.042  0.00  0.00    +0.005 A 
ATOM     31  C   UNL     1      -2.961  -9.956   2.946  0.00  0.00    +0.000 A 
ATOM     32  C   UNL     1      -4.156  -9.427   2.494  0.00  0.00    +0.000 A 
ATOM     33  C   UNL     1      -4.426  -9.387   1.139  0.00  0.00    +0.000 A 
ATOM     34  C   UNL     1      -3.499  -9.871   0.235  0.00  0.00    +0.005 A 
ENDBRANCH  28  29
BRANCH  28  35
ATOM     35  N   UNL     1      -0.701 -12.171   0.231  0.00  0.00    -0.290 NA
ATOM     36  C   UNL     1       0.427 -12.610  -0.603  0.00  0.00    +0.113 C 
ATOM     37  C   UNL     1       1.055 -13.862   0.015  0.00  0.00    +0.175 C 
ATOM     38  O   UNL     1       0.055 -14.875   0.149  0.00  0.00    -0.377 OA
ATOM     39  C   UNL     1      -1.059 -14.481   0.956  0.00  0.00    +0.175 C 
ATOM     40  C   UNL     1      -1.708 -13.236   0.347  0.00  0.00    +0.113 C 
ENDBRANCH  28  35
ENDBRANCH  27  28
ENDBRANCH  25  27
ENDBRANCH   5  23
TORSDOF 6
