REMARK  Name = ZINC65182068
REMARK  14 active torsions:
REMARK  status: ('A' for Active; 'I' for Inactive)
REMARK    1  A    between atoms: C_1  and  C_2
REMARK    2  A    between atoms: C_2  and  C_3
REMARK    3  A    between atoms: C_2  and  C_4
REMARK    4  A    between atoms: C_4  and  N_5
REMARK    5  A    between atoms: N_8  and  N_9
REMARK    6  A    between atoms: C_10  and  C_12
REMARK    7  A    between atoms: C_13  and  C_14
REMARK    8  A    between atoms: C_17  and  O_22
REMARK    9  A    between atoms: C_18  and  O_20
REMARK   10  A    between atoms: O_20  and  C_21
REMARK   11  A    between atoms: O_22  and  C_23
REMARK   12  A    between atoms: C_23  and  C_24
REMARK   13  A    between atoms: C_24  and  C_25
REMARK   14  A    between atoms: C_24  and  C_26
REMARK                            x       y       z     vdW  Elec       q    Type
REMARK                         _______ _______ _______ _____ _____    ______ ____
ROOT
ATOM      1  C   UNL     1      -0.049  -6.756  -0.587  0.00  0.00    +0.069 C 
ATOM      2  C   UNL     1      -0.034  -8.100  -0.705  0.00  0.00    +0.013 C 
ENDROOT
BRANCH   2   3
ATOM      3  C   UNL     1       1.247  -8.813  -0.819  0.00  0.00    -0.021 A 
ATOM      4  C   UNL     1       2.451  -8.101  -0.798  0.00  0.00    +0.012 A 
ATOM      5  C   UNL     1       3.649  -8.771  -0.904  0.00  0.00    +0.050 A 
ATOM      6  C   UNL     1       3.667 -10.154  -1.031  0.00  0.00    +0.162 A 
ATOM      7  C   UNL     1       2.471 -10.871  -1.052  0.00  0.00    +0.162 A 
ATOM      8  C   UNL     1       1.265 -10.207  -0.941  0.00  0.00    +0.057 A 
BRANCH   7   9
ATOM      9  O   UNL     1       2.493 -12.225  -1.177  0.00  0.00    -0.491 OA
ATOM     10  C   UNL     1       1.231 -12.896  -1.192  0.00  0.00    +0.277 C 
ENDBRANCH   7   9
BRANCH   6  11
ATOM     11  O   UNL     1       4.851 -10.810  -1.136  0.00  0.00    -0.488 OA
BRANCH  11  12
ATOM     12  C   UNL     1       6.038 -10.014  -1.108  0.00  0.00    +0.232 C 
BRANCH  12  13
ATOM     13  C   UNL     1       7.263 -10.921  -1.237  0.00  0.00    +0.020 C 
ATOM     14  C   UNL     1       8.526 -10.062  -1.332  0.00  0.00    +0.010 C 
ATOM     15  C   UNL     1       7.357 -11.830  -0.010  0.00  0.00    +0.010 C 
ENDBRANCH  12  13
ENDBRANCH  11  12
ENDBRANCH   6  11
ENDBRANCH   2   3
BRANCH   1  17
ATOM     16  N   UNL     1      -1.339  -4.704  -0.356  0.00  0.00    -0.230 N 
ATOM     17  C   UNL     1      -1.323  -6.046  -0.474  0.00  0.00    +0.253 C 
ATOM     18  O   UNL     1      -2.370  -6.668  -0.487  0.00  0.00    -0.269 OA
ATOM     19  H   UNL     1      -0.505  -4.208  -0.346  0.00  0.00    +0.173 HD
BRANCH  16  23
ATOM     20  N   UNL     1      -1.416  -1.993  -0.116  0.00  0.00    -0.298 N 
ATOM     21  C   UNL     1      -2.575  -2.682  -0.130  0.00  0.00    +0.316 C 
ATOM     22  O   UNL     1      -3.634  -2.092  -0.036  0.00  0.00    -0.251 OA
ATOM     23  N   UNL     1      -2.559  -4.024  -0.248  0.00  0.00    -0.218 N 
ATOM     24  H   UNL     1      -0.572  -2.463  -0.190  0.00  0.00    +0.150 HD
ATOM     25  H   UNL     1      -3.393  -4.520  -0.258  0.00  0.00    +0.174 HD
BRANCH  20  26
ATOM     26  C   UNL     1      -1.433  -0.534   0.013  0.00  0.00    +0.108 C 
BRANCH  26  28
ATOM     27  C   UNL     1      -0.019   1.526   0.010  0.00  0.00    +0.009 C 
ATOM     28  C   UNL     1       0.002  -0.004   0.002  0.00  0.00    -0.000 C 
ATOM     29  C   UNL     1       0.742  -0.511   1.242  0.00  0.00    +0.009 C 
ENDBRANCH  26  28
ENDBRANCH  20  26
ENDBRANCH  16  23
ENDBRANCH   1  17
TORSDOF 9
