REMARK  Name = ZINC25110952
REMARK  8 active torsions:
REMARK  status: ('A' for Active; 'I' for Inactive)
REMARK    1  A    between atoms: C_1  and  C_2
REMARK    2  A    between atoms: C_5  and  C_8
REMARK    3  A    between atoms: C_8  and  C_31
REMARK    4  A    between atoms: N_11  and  C_15
REMARK    5  A    between atoms: C_15  and  C_16
REMARK    6  A    between atoms: C_16  and  C_18
REMARK    7  A    between atoms: C_16  and  O_30
REMARK    8  A    between atoms: C_18  and  N_19
REMARK                            x       y       z     vdW  Elec       q    Type
REMARK                         _______ _______ _______ _____ _____    ______ ____
ROOT
ATOM      1  C   UNL     1       0.058  -4.275  -0.021  0.00  0.00    +0.135 C 
ATOM      2  C   UNL     1       0.763  -4.793  -1.260  0.00  0.00    +0.251 C 
ATOM      3  O   UNL     1       0.438  -4.617  -2.414  0.00  0.00    -0.272 OA
ATOM      4  N   UNL     1       1.825  -5.490  -0.810  0.00  0.00    -0.221 N 
ATOM      5  C   UNL     1       1.889  -5.485   0.526  0.00  0.00    +0.310 C 
ATOM      6  O   UNL     1       2.758  -6.046   1.163  0.00  0.00    -0.252 OA
ATOM      7  N   UNL     1       0.883  -4.789   1.086  0.00  0.00    -0.281 N 
ATOM      8  C   UNL     1      -1.365  -4.831   0.060  0.00  0.00    +0.047 C 
ATOM      9  H   UNL     1       0.606  -4.566   2.127  0.00  0.00    +0.152 HD
ENDROOT
BRANCH   1  14
ATOM     10  C   UNL     1      -0.018   1.503   0.010  0.00  0.00    +0.044 C 
ATOM     11  C   UNL     1       0.002  -0.004   0.002  0.00  0.00    -0.050 A 
ATOM     12  C   UNL     1      -0.006  -0.689  -1.199  0.00  0.00    +0.004 A 
ATOM     13  C   UNL     1       0.018  -2.071  -1.206  0.00  0.00    +0.006 A 
ATOM     14  C   UNL     1       0.039  -2.768  -0.013  0.00  0.00    -0.015 A 
ATOM     15  C   UNL     1       0.041  -2.084   1.188  0.00  0.00    +0.006 A 
ATOM     16  C   UNL     1       0.023  -0.702   1.195  0.00  0.00    +0.004 A 
ENDBRANCH   1  14
BRANCH   4  17
ATOM     17  C   UNL     1       2.790  -6.170  -1.678  0.00  0.00    +0.151 C 
BRANCH  17  18
ATOM     18  C   UNL     1       3.930  -5.210  -2.023  0.00  0.00    +0.150 C 
BRANCH  18  19
ATOM     19  O   UNL     1       3.402  -4.068  -2.701  0.00  0.00    -0.389 OA
ATOM     20  H   UNL     1       4.076  -3.263  -3.031  0.00  0.00    +0.210 HD
ENDBRANCH  18  19
BRANCH  18  21
ATOM     21  C   UNL     1       4.938  -5.920  -2.929  0.00  0.00    +0.150 C 
BRANCH  21  22
ATOM     22  N   UNL     1       6.087  -5.042  -3.163  0.00  0.00    -0.232 N 
ATOM     23  C   UNL     1       6.182  -4.167  -4.181  0.00  0.00    +0.254 C 
ATOM     24  O   UNL     1       5.342  -3.983  -5.038  0.00  0.00    -0.270 OA
ATOM     25  C   UNL     1       7.479  -3.466  -4.079  0.00  0.00    +0.049 A 
ATOM     26  C   UNL     1       8.109  -2.482  -4.825  0.00  0.00    +0.014 A 
ATOM     27  C   UNL     1       9.366  -2.034  -4.451  0.00  0.00    +0.001 A 
ATOM     28  C   UNL     1       9.995  -2.561  -3.338  0.00  0.00    +0.001 A 
ATOM     29  C   UNL     1       9.377  -3.545  -2.582  0.00  0.00    +0.014 A 
ATOM     30  C   UNL     1       8.120  -4.003  -2.945  0.00  0.00    +0.049 A 
ATOM     31  C   UNL     1       7.189  -5.009  -2.392  0.00  0.00    +0.254 C 
ATOM     32  O   UNL     1       7.385  -5.691  -1.407  0.00  0.00    -0.270 OA
ENDBRANCH  21  22
ENDBRANCH  18  21
ENDBRANCH  17  18
ENDBRANCH   4  17
TORSDOF 6
