REMARK  Name = ZINC67466830
REMARK  10 active torsions:
REMARK  status: ('A' for Active; 'I' for Inactive)
REMARK    1  A    between atoms: C_1  and  C_2
REMARK    2  A    between atoms: C_2  and  C_3
REMARK    3  A    between atoms: C_3  and  C_5
REMARK    4  A    between atoms: C_3  and  N_6
REMARK    5  A    between atoms: C_7  and  C_9
REMARK    6  A    between atoms: C_12  and  N_15
REMARK    7  A    between atoms: C_16  and  C_18
REMARK    8  A    between atoms: C_18  and  N_19
REMARK    9  A    between atoms: N_22  and  C_23
REMARK   10  A    between atoms: C_27  and  C_29
REMARK                            x       y       z     vdW  Elec       q    Type
REMARK                         _______ _______ _______ _____ _____    ______ ____
ROOT
ATOM      1  N   UNL     1      -6.038   1.907  -5.997  0.00  0.00    -0.284 N 
ATOM      2  C   UNL     1      -7.377   1.773  -6.082  0.00  0.00    +0.234 C 
ATOM      3  O   UNL     1      -8.010   1.385  -5.123  0.00  0.00    -0.274 OA
ATOM      4  H   UNL     1      -5.540   2.284  -6.739  0.00  0.00    +0.155 HD
ENDROOT
BRANCH   1   8
ATOM      5  C   UNL     1      -4.040   0.701  -2.546  0.00  0.00    +0.037 A 
ATOM      6  C   UNL     1      -5.171   0.004  -2.981  0.00  0.00    +0.015 A 
ATOM      7  C   UNL     1      -5.830   0.406  -4.121  0.00  0.00    +0.024 A 
ATOM      8  C   UNL     1      -5.370   1.504  -4.842  0.00  0.00    +0.033 A 
ATOM      9  C   UNL     1      -4.244   2.200  -4.412  0.00  0.00    +0.024 A 
ATOM     10  C   UNL     1      -3.584   1.807  -3.269  0.00  0.00    +0.015 A 
BRANCH   5  12
ATOM     11  N   UNL     1      -3.773  -0.792  -0.628  0.00  0.00    -0.309 N 
ATOM     12  C   UNL     1      -3.332   0.274  -1.324  0.00  0.00    +0.244 C 
ATOM     13  O   UNL     1      -2.351   0.884  -0.945  0.00  0.00    -0.270 OA
ATOM     14  H   UNL     1      -4.555  -1.279  -0.930  0.00  0.00    +0.149 HD
BRANCH  11  15
ATOM     15  C   UNL     1      -3.070  -1.216   0.586  0.00  0.00    +0.070 C 
ATOM     16  C   UNL     1      -3.583  -0.410   1.780  0.00  0.00    +0.028 C 
BRANCH  15  18
ATOM     17  C   UNL     1      -2.702  -3.521  -0.306  0.00  0.00    +0.005 C 
ATOM     18  C   UNL     1      -3.325  -2.705   0.829  0.00  0.00    +0.018 C 
ENDBRANCH  15  18
ENDBRANCH  11  15
ENDBRANCH   5  12
ENDBRANCH   1   8
BRANCH   2  19
ATOM     19  C   UNL     1      -8.087   2.104  -7.370  0.00  0.00    +0.202 C 
BRANCH  19  20
ATOM     20  N   UNL     1      -9.525   1.877  -7.207  0.00  0.00    -0.291 N 
ATOM     21  C   UNL     1     -10.364   2.109  -8.236  0.00  0.00    +0.304 C 
ATOM     22  O   UNL     1      -9.928   2.507  -9.299  0.00  0.00    -0.252 OA
ATOM     23  N   UNL     1     -11.687   1.901  -8.086  0.00  0.00    -0.269 N 
ATOM     24  H   UNL     1      -9.873   1.560  -6.359  0.00  0.00    +0.151 HD
ATOM     25  H   UNL     1     -12.045   1.658  -7.217  0.00  0.00    +0.156 HD
BRANCH  23  26
ATOM     26  C   UNL     1     -12.545   2.034  -9.183  0.00  0.00    +0.035 A 
ATOM     27  C   UNL     1     -13.835   2.516  -9.004  0.00  0.00    +0.023 A 
ATOM     28  C   UNL     1     -14.680   2.646 -10.089  0.00  0.00    +0.002 A 
ATOM     29  C   UNL     1     -14.242   2.297 -11.353  0.00  0.00    +0.003 A 
ATOM     30  C   UNL     1     -12.958   1.817 -11.535  0.00  0.00    -0.049 A 
ATOM     31  C   UNL     1     -12.107   1.690 -10.455  0.00  0.00    +0.026 A 
ATOM     32  C   UNL     1     -12.485   1.437 -12.915  0.00  0.00    +0.044 C 
ENDBRANCH  23  26
ENDBRANCH  19  20
ENDBRANCH   2  19
TORSDOF 7
