REMARK  Name = ZINC21158641
REMARK  4 active torsions:
REMARK  status: ('A' for Active; 'I' for Inactive)
REMARK    1  A    between atoms: C_1  and  C_2
REMARK    2  A    between atoms: C_5  and  C_32
REMARK    3  A    between atoms: C_6  and  N_8
REMARK    4  A    between atoms: C_14  and  C_16
REMARK                            x       y       z     vdW  Elec       q    Type
REMARK                         _______ _______ _______ _____ _____    ______ ____
ROOT
ATOM      1  C   UNL     1       4.696   8.032   1.392  0.00  0.00    +0.078 C 
ATOM      2  C   UNL     1       3.384   7.959   2.177  0.00  0.00    +0.032 C 
ATOM      3  C   UNL     1       3.538   8.727   3.492  0.00  0.00    +0.108 C 
ATOM      4  N   UNL     1       3.883  10.125   3.207  0.00  0.00    -0.303 N 
ATOM      5  C   UNL     1       5.164  10.222   2.496  0.00  0.00    +0.108 C 
ATOM      6  C   UNL     1       5.058   9.500   1.151  0.00  0.00    +0.032 C 
ATOM      7  C   UNL     1       3.902  10.875   4.365  0.00  0.00    +0.174 A 
ATOM      8  N   UNL     1       2.863  10.989   5.243  0.00  0.00    -0.327 N 
ATOM      9  H   UNL     1       1.919  10.459   5.049  0.00  0.00    +0.169 HD
ATOM     10  C   UNL     1       3.280  11.823   6.267  0.00  0.00    +0.065 A 
ATOM     11  C   UNL     1       2.680  12.303   7.421  0.00  0.00    +0.028 A 
ATOM     12  C   UNL     1       3.382  13.142   8.262  0.00  0.00    +0.002 A 
ATOM     13  C   UNL     1       4.685  13.510   7.961  0.00  0.00    +0.002 A 
ATOM     14  C   UNL     1       5.296  13.043   6.819  0.00  0.00    +0.028 A 
ATOM     15  C   UNL     1       4.599  12.193   5.957  0.00  0.00    +0.065 A 
ATOM     16  N   UNL     1       4.923  11.578   4.788  0.00  0.00    -0.327 N 
ATOM     17  H   UNL     1       5.856  11.599   4.206  0.00  0.00    +0.169 HD
ENDROOT
BRANCH   1  24
ATOM     18  N   UNL     1       5.861   3.507  -0.396  0.00  0.00    -0.327 N 
ATOM     19  C   UNL     1       5.605   4.368  -1.558  0.00  0.00    +0.124 C 
ATOM     20  C   UNL     1       4.406   5.275  -1.264  0.00  0.00    +0.126 C 
ATOM     21  N   UNL     1       4.659   5.990  -0.004  0.00  0.00    -0.298 N 
ATOM     22  C   UNL     1       5.056   5.205   1.174  0.00  0.00    +0.126 C 
ATOM     23  C   UNL     1       6.230   4.300   0.784  0.00  0.00    +0.124 C 
ATOM     24  C   UNL     1       4.532   7.330   0.068  0.00  0.00    +0.219 C 
ATOM     25  O   UNL     1       4.284   7.971  -0.931  0.00  0.00    -0.275 OA
BRANCH  18  31
ATOM     26  C   UNL     1      10.514   2.446  -1.571  0.00  0.00    +0.044 C 
ATOM     27  C   UNL     1       9.105   2.011  -1.258  0.00  0.00    -0.049 A 
ATOM     28  C   UNL     1       8.783   0.666  -1.252  0.00  0.00    +0.004 A 
ATOM     29  C   UNL     1       7.490   0.264  -0.971  0.00  0.00    +0.005 A 
ATOM     30  C   UNL     1       6.519   1.203  -0.685  0.00  0.00    -0.029 A 
ATOM     31  C   UNL     1       6.841   2.554  -0.685  0.00  0.00    +0.033 A 
ATOM     32  C   UNL     1       8.139   2.956  -0.973  0.00  0.00    +0.026 A 
ATOM     33  C   UNL     1       5.112   0.762  -0.372  0.00  0.00    +0.045 C 
ENDBRANCH  18  31
ENDBRANCH   1  24
TORSDOF 2
