REMARK  Name = ZINC51226278
REMARK  3 active torsions:
REMARK  status: ('A' for Active; 'I' for Inactive)
REMARK    1  A    between atoms: N_10  and  C_13
REMARK    2  A    between atoms: C_13  and  C_14
REMARK    3  A    between atoms: C_14  and  N_16
REMARK                            x       y       z     vdW  Elec       q    Type
REMARK                         _______ _______ _______ _____ _____    ______ ____
ROOT
ATOM      1  C   UNL     1       2.370   1.437   0.009  0.00  0.00    +0.005 A 
ATOM      2  C   UNL     1       1.127   2.057   0.003  0.00  0.00    +0.018 A 
ATOM      3  C   UNL     1      -0.015   1.282  -0.012  0.00  0.00    +0.084 A 
ATOM      4  N   UNL     1       0.061  -0.036  -0.020  0.00  0.00    -0.350 N 
ATOM      5  C   UNL     1       1.227  -0.664  -0.014  0.00  0.00    +0.099 A 
ATOM      6  C   UNL     1       2.418   0.054   0.001  0.00  0.00    +0.042 A 
ATOM      7  N   UNL     1       1.260  -2.054  -0.022  0.00  0.00    -0.314 N 
ATOM      8  C   UNL     1       2.535  -2.777  -0.142  0.00  0.00    +0.122 C 
ATOM      9  C   UNL     1       2.615  -3.814   0.984  0.00  0.00    +0.104 C 
ATOM     10  N   UNL     1       1.414  -4.660   0.951  0.00  0.00    -0.291 NA
ATOM     11  C   UNL     1       0.200  -3.874   1.206  0.00  0.00    +0.104 C 
ATOM     12  C   UNL     1       0.023  -2.839   0.095  0.00  0.00    +0.122 C 
ATOM     13  H   UNL     1      -0.757  -0.557  -0.031  0.00  0.00    +0.166 HD
ENDROOT
BRANCH  10  14
ATOM     14  C   UNL     1       1.529  -5.774   1.902  0.00  0.00    +0.182 C 
BRANCH  14  15
ATOM     15  C   UNL     1       0.405  -6.750   1.671  0.00  0.00    +0.252 C 
ATOM     16  O   UNL     1      -0.414  -6.539   0.796  0.00  0.00    -0.272 OA
BRANCH  15  17
ATOM     17  N   UNL     1       0.309  -7.841   2.420  0.00  0.00    -0.155 NA
ATOM     18  C   UNL     1      -0.687  -8.706   2.215  0.00  0.00    +0.163 A 
ATOM     19  N   UNL     1      -1.680  -8.644   1.296  0.00  0.00    -0.339 N 
ATOM     20  C   UNL     1      -2.626  -9.648   1.241  0.00  0.00    +0.028 A 
ATOM     21  C   UNL     1      -2.468 -10.625   2.139  0.00  0.00    +0.012 A 
ATOM     22  S   UNL     1      -1.009 -10.140   3.030  0.00  0.00    -0.057 S 
ATOM     23  C   UNL     1      -3.532 -11.679   2.027  0.00  0.00    +0.044 C 
ATOM     24  C   UNL     1      -4.651 -11.015   1.194  0.00  0.00    +0.011 C 
ATOM     25  C   UNL     1      -3.858  -9.961   0.393  0.00  0.00    +0.054 C 
ATOM     26  H   UNL     1      -1.726  -7.898   0.678  0.00  0.00    +0.167 HD
ENDBRANCH  15  17
ENDBRANCH  14  15
ENDBRANCH  10  14
TORSDOF 3
