REMARK  Name = ZINC48923282
REMARK  8 active torsions:
REMARK  status: ('A' for Active; 'I' for Inactive)
REMARK    1  A    between atoms: C_1  and  C_2
REMARK    2  A    between atoms: C_2  and  C_3
REMARK    3  A    between atoms: C_2  and  C_4
REMARK    4  A    between atoms: C_4  and  C_5
REMARK    5  A    between atoms: C_5  and  N_6
REMARK    6  A    between atoms: N_6  and  C_7
REMARK    7  A    between atoms: N_6  and  C_8
REMARK    8  A    between atoms: C_13  and  N_14
REMARK                            x       y       z     vdW  Elec       q    Type
REMARK                         _______ _______ _______ _____ _____    ______ ____
ROOT
ATOM      1  C   UNL     1      -3.790  -1.903  -1.790  0.00  0.00    +0.052 A 
ATOM      2  C   UNL     1      -3.747  -3.007  -0.957  0.00  0.00    +0.053 A 
ATOM      3  C   UNL     1      -4.027  -4.272  -1.470  0.00  0.00    +0.080 A 
ATOM      4  C   UNL     1      -4.353  -4.412  -2.839  0.00  0.00    +0.067 A 
ATOM      5  C   UNL     1      -4.393  -3.292  -3.670  0.00  0.00    +0.040 A 
ATOM      6  C   UNL     1      -4.118  -2.045  -3.145  0.00  0.00    +0.047 A 
ATOM      7  C   UNL     1      -4.642  -5.760  -3.344  0.00  0.00    +0.259 A 
ATOM      8  O   UNL     1      -4.928  -5.949  -4.512  0.00  0.00    -0.267 OA
ATOM      9  N   UNL     1      -4.577  -6.784  -2.462  0.00  0.00    -0.313 N 
ATOM     10  H   UNL     1      -4.762  -7.688  -2.761  0.00  0.00    +0.170 HD
ATOM     11  C   UNL     1      -4.255  -6.559  -1.161  0.00  0.00    +0.199 A 
ATOM     12  N   UNL     1      -3.995  -5.379  -0.685  0.00  0.00    -0.237 NA
ENDROOT
BRANCH   6  13
ATOM     13  N   UNL     1      -4.162  -0.916  -3.973  0.00  0.00    -0.357 N 
ATOM     14  H   UNL     1      -3.966  -0.039  -3.608  0.00  0.00    +0.142 HD
ATOM     15  H   UNL     1      -4.389  -1.011  -4.911  0.00  0.00    +0.142 HD
ENDBRANCH   6  13
BRANCH   1  16
ATOM     16  N   UNL     1      -3.510  -0.638  -1.275  0.00  0.00    -0.331 N 
ATOM     17  C   UNL     1      -4.590   0.184  -0.724  0.00  0.00    +0.129 C 
BRANCH  16  18
ATOM     18  C   UNL     1      -2.135  -0.131  -1.286  0.00  0.00    +0.105 C 
BRANCH  18  19
ATOM     19  C   UNL     1      -1.433  -0.534   0.013  0.00  0.00    +0.022 C 
BRANCH  19  21
ATOM     20  C   UNL     1      -0.019   1.526   0.010  0.00  0.00    +0.007 C 
ATOM     21  C   UNL     1       0.002  -0.004   0.002  0.00  0.00    -0.016 C 
ATOM     22  C   UNL     1       0.742  -0.511   1.242  0.00  0.00    +0.007 C 
ENDBRANCH  19  21
ENDBRANCH  18  19
ENDBRANCH  16  18
ENDBRANCH   1  16
TORSDOF 5
