REMARK  Name = ZINC04282201
REMARK  8 active torsions:
REMARK  status: ('A' for Active; 'I' for Inactive)
REMARK    1  A    between atoms: C_1  and  C_2
REMARK    2  A    between atoms: C_11  and  O_13
REMARK    3  A    between atoms: O_13  and  C_14
REMARK    4  A    between atoms: C_16  and  O_29
REMARK    5  A    between atoms: C_18  and  O_28
REMARK    6  A    between atoms: C_20  and  O_27
REMARK    7  A    between atoms: C_22  and  C_25
REMARK    8  A    between atoms: C_25  and  O_26
REMARK                            x       y       z     vdW  Elec       q    Type
REMARK                         _______ _______ _______ _____ _____    ______ ____
ROOT
ATOM      1  C   UNL     1       3.549   1.912  -0.021  0.00  0.00    +0.339 C 
ATOM      2  C   UNL     1       4.759   1.012  -0.287  0.00  0.00    +0.214 C 
ATOM      3  C   UNL     1       4.886  -0.008   0.849  0.00  0.00    +0.180 C 
ATOM      4  C   UNL     1       4.998   0.739   2.181  0.00  0.00    +0.177 C 
ATOM      5  C   UNL     1       3.780   1.649   2.352  0.00  0.00    +0.179 C 
ATOM      6  O   UNL     1       3.703   2.553   1.247  0.00  0.00    -0.331 OA
ENDROOT
BRANCH   4   7
ATOM      7  O   UNL     1       5.044  -0.203   3.255  0.00  0.00    -0.386 OA
ATOM      8  H   UNL     1       5.793  -0.813   3.210  0.00  0.00    +0.210 HD
ENDBRANCH   4   7
BRANCH   3   9
ATOM      9  O   UNL     1       6.054  -0.806   0.648  0.00  0.00    -0.386 OA
ATOM     10  H   UNL     1       6.050  -1.308  -0.179  0.00  0.00    +0.210 HD
ENDBRANCH   3   9
BRANCH   2  11
ATOM     11  O   UNL     1       4.580   0.326  -1.528  0.00  0.00    -0.383 OA
ATOM     12  H   UNL     1       4.488   0.912  -2.292  0.00  0.00    +0.210 HD
ENDBRANCH   2  11
BRANCH   1  13
ATOM     13  O   UNL     1       2.359   1.121  -0.014  0.00  0.00    -0.461 OA
BRANCH  13  24
ATOM     14  C   UNL     1      -2.558   5.376   0.055  0.00  0.00    +0.045 C 
ATOM     15  C   UNL     1      -2.505   3.870   0.046  0.00  0.00    -0.033 A 
ATOM     16  C   UNL     1      -3.646   3.132   0.053  0.00  0.00    +0.096 A 
ATOM     17  C   UNL     1      -3.570   1.724   0.045  0.00  0.00    +0.337 A 
ATOM     18  O   UNL     1      -4.600   1.074   0.050  0.00  0.00    -0.245 OA
ATOM     19  O   UNL     1      -2.391   1.081   0.030  0.00  0.00    -0.422 OA
ATOM     20  C   UNL     1      -1.221   1.755   0.017  0.00  0.00    +0.143 A 
ATOM     21  C   UNL     1      -1.223   3.162   0.031  0.00  0.00    +0.021 A 
ATOM     22  C   UNL     1      -0.013   3.865   0.023  0.00  0.00    +0.015 A 
ATOM     23  C   UNL     1       1.168   3.180   0.008  0.00  0.00    +0.046 A 
ATOM     24  C   UNL     1       1.177   1.787   0.000  0.00  0.00    +0.128 A 
ATOM     25  C   UNL     1      -0.013   1.076   0.008  0.00  0.00    +0.092 A 
ENDBRANCH  13  24
ENDBRANCH   1  13
BRANCH   5  26
ATOM     26  C   UNL     1       3.914   2.444   3.652  0.00  0.00    +0.190 C 
BRANCH  26  27
ATOM     27  O   UNL     1       2.725   3.207   3.869  0.00  0.00    -0.392 OA
ATOM     28  H   UNL     1       2.740   3.737   4.678  0.00  0.00    +0.210 HD
ENDBRANCH  26  27
ENDBRANCH   5  26
TORSDOF 7
