REMARK  Name = ZINC40170926
REMARK  9 active torsions:
REMARK  status: ('A' for Active; 'I' for Inactive)
REMARK    1  A    between atoms: C_1  and  C_2
REMARK    2  A    between atoms: C_5  and  C_8
REMARK    3  A    between atoms: C_11  and  N_16
REMARK    4  A    between atoms: C_12  and  C_13
REMARK    5  A    between atoms: C_17  and  C_19
REMARK    6  A    between atoms: C_19  and  C_21
REMARK    7  A    between atoms: C_19  and  N_22
REMARK    8  A    between atoms: C_23  and  C_30
REMARK    9  A    between atoms: C_25  and  C_29
REMARK                            x       y       z     vdW  Elec       q    Type
REMARK                         _______ _______ _______ _____ _____    ______ ____
ROOT
ATOM      1  C   UNL     1       0.273  -4.167   1.595  0.00  0.00    +0.003 A 
ATOM      2  C   UNL     1      -0.693  -4.734   0.826  0.00  0.00    +0.056 A 
ATOM      3  S   UNL     1      -0.259  -6.460   0.831  0.00  0.00    -0.081 S 
ATOM      4  C   UNL     1       1.115  -6.421   1.792  0.00  0.00    +0.085 A 
ATOM      5  C   UNL     1       1.268  -5.084   2.121  0.00  0.00    +0.073 A 
ENDROOT
BRANCH   1  10
ATOM      6  C   UNL     1       0.421   1.487   2.673  0.00  0.00    +0.044 C 
ATOM      7  C   UNL     1       0.383   0.007   2.391  0.00  0.00    -0.050 A 
ATOM      8  C   UNL     1       0.242  -0.443   1.090  0.00  0.00    +0.004 A 
ATOM      9  C   UNL     1       0.206  -1.797   0.826  0.00  0.00    +0.009 A 
ATOM     10  C   UNL     1       0.311  -2.712   1.872  0.00  0.00    -0.017 A 
ATOM     11  C   UNL     1       0.453  -2.252   3.181  0.00  0.00    +0.009 A 
ATOM     12  C   UNL     1       0.493  -0.896   3.433  0.00  0.00    +0.004 A 
ENDBRANCH   1  10
BRANCH   5  13
ATOM     13  C   UNL     1       2.375  -4.620   2.961  0.00  0.00    +0.244 C 
ATOM     14  O   UNL     1       2.244  -4.575   4.170  0.00  0.00    -0.270 OA
ATOM     15  N   UNL     1       3.538  -4.242   2.395  0.00  0.00    -0.325 N 
ATOM     16  H   UNL     1       3.643  -4.278   1.431  0.00  0.00    +0.145 HD
ATOM     17  H   UNL     1       4.271  -3.935   2.951  0.00  0.00    +0.145 HD
ENDBRANCH   5  13
BRANCH   4  18
ATOM     18  N   UNL     1       1.919  -7.485   2.168  0.00  0.00    -0.278 N 
ATOM     19  C   UNL     1       1.625  -8.732   1.750  0.00  0.00    +0.240 C 
ATOM     20  O   UNL     1       0.657  -8.923   1.044  0.00  0.00    -0.273 OA
ATOM     21  H   UNL     1       2.693  -7.333   2.733  0.00  0.00    +0.155 HD
BRANCH  19  22
ATOM     22  C   UNL     1       2.499  -9.890   2.159  0.00  0.00    +0.175 C 
ATOM     23  C   UNL     1       2.512 -10.005   3.684  0.00  0.00    +0.041 C 
BRANCH  22  24
ATOM     24  N   UNL     1       1.972 -11.128   1.580  0.00  0.00    -0.285 N 
ATOM     25  C   UNL     1       2.727 -11.842   0.705  0.00  0.00    +0.023 A 
ATOM     26  C   UNL     1       2.223 -12.990   0.176  0.00  0.00    +0.044 A 
ATOM     27  C   UNL     1       0.941 -13.403   0.549  0.00  0.00    +0.045 A 
ATOM     28  N   UNL     1       0.241 -12.682   1.401  0.00  0.00    -0.198 NA
ATOM     29  C   UNL     1       0.744 -11.559   1.920  0.00  0.00    +0.349 A 
ATOM     30  O   UNL     1       0.077 -10.912   2.711  0.00  0.00    -0.244 OA
ATOM     31  C   UNL     1       0.360 -14.671  -0.023  0.00  0.00    +0.066 C 
ATOM     32  C   UNL     1       4.106 -11.369   0.324  0.00  0.00    +0.064 C 
ENDBRANCH  22  24
ENDBRANCH  19  22
ENDBRANCH   4  18
TORSDOF 5
