REMARK  Name = ZINC22449599
REMARK  8 active torsions:
REMARK  status: ('A' for Active; 'I' for Inactive)
REMARK    1  A    between atoms: C_1  and  C_2
REMARK    2  A    between atoms: C_2  and  C_3
REMARK    3  A    between atoms: C_3  and  C_4
REMARK    4  A    between atoms: C_5  and  C_25
REMARK    5  A    between atoms: C_15  and  C_18
REMARK    6  A    between atoms: C_18  and  C_19
REMARK    7  A    between atoms: C_25  and  O_26
REMARK    8  A    between atoms: O_26  and  C_27
REMARK                            x       y       z     vdW  Elec       q    Type
REMARK                         _______ _______ _______ _____ _____    ______ ____
ROOT
ATOM      1  C   UNL     1      -0.081   1.140   2.568  0.00  0.00    +0.041 A 
ATOM      2  C   UNL     1       1.001   1.819   3.049  0.00  0.00    +0.079 A 
ATOM      3  N   UNL     1       1.718   1.311   4.048  0.00  0.00    -0.218 NA
ATOM      4  C   UNL     1       1.408   0.152   4.595  0.00  0.00    +0.199 A 
ATOM      5  N   UNL     1       0.340  -0.568   4.159  0.00  0.00    -0.295 N 
ATOM      6  H   UNL     1       0.100  -1.535   4.627  0.00  0.00    +0.172 HD
ATOM      7  C   UNL     1      -0.423  -0.093   3.151  0.00  0.00    +0.256 A 
ATOM      8  O   UNL     1      -1.387  -0.724   2.750  0.00  0.00    -0.267 OA
ATOM      9  N   UNL     1       2.173  -0.333   5.621  0.00  0.00    -0.301 N 
ATOM     10  C   UNL     1       1.336  -0.723   6.763  0.00  0.00    +0.108 C 
ATOM     11  C   UNL     1       2.205  -1.393   7.830  0.00  0.00    +0.023 C 
ATOM     12  C   UNL     1       3.295  -0.416   8.281  0.00  0.00    -0.004 C 
ATOM     13  C   UNL     1       4.122   0.011   7.065  0.00  0.00    +0.023 C 
ATOM     14  C   UNL     1       3.197   0.640   6.021  0.00  0.00    +0.108 C 
ENDROOT
BRANCH   1  15
ATOM     15  C   UNL     1      -0.900   1.706   1.437  0.00  0.00    +0.042 C 
BRANCH  15  17
ATOM     16  C   UNL     1      -1.217   1.726  -1.041  0.00  0.00    +0.004 C 
ATOM     17  C   UNL     1      -0.386   1.152   0.108  0.00  0.00    +0.001 C 
ENDBRANCH  15  17
ENDBRANCH   1  15
BRANCH  12  18
ATOM     18  C   UNL     1       4.205  -1.100   9.303  0.00  0.00    +0.038 C 
BRANCH  18  19
ATOM     19  C   UNL     1       3.416  -1.410  10.550  0.00  0.00    -0.047 A 
ATOM     20  C   UNL     1       3.354  -0.486  11.576  0.00  0.00    +0.003 A 
ATOM     21  C   UNL     1       2.627  -0.768  12.717  0.00  0.00    +0.000 A 
ATOM     22  C   UNL     1       1.970  -1.978  12.837  0.00  0.00    +0.000 A 
ATOM     23  C   UNL     1       2.036  -2.904  11.812  0.00  0.00    +0.000 A 
ATOM     24  C   UNL     1       2.759  -2.620  10.669  0.00  0.00    +0.003 A 
ENDBRANCH  18  19
ENDBRANCH  12  18
BRANCH   2  25
ATOM     25  C   UNL     1       1.385   3.146   2.446  0.00  0.00    +0.215 C 
BRANCH  25  26
ATOM     26  O   UNL     1       1.199   4.180   3.414  0.00  0.00    -0.377 OA
ATOM     27  C   UNL     1       1.536   5.486   2.941  0.00  0.00    +0.194 C 
ENDBRANCH  25  26
ENDBRANCH   2  25
TORSDOF 6
