REMARK  Name = ZINC44785315
REMARK  9 active torsions:
REMARK  status: ('A' for Active; 'I' for Inactive)
REMARK    1  A    between atoms: C_1  and  C_2
REMARK    2  A    between atoms: C_2  and  C_4
REMARK    3  A    between atoms: C_2  and  N_7
REMARK    4  A    between atoms: C_4  and  C_5
REMARK    5  A    between atoms: C_4  and  C_6
REMARK    6  A    between atoms: N_7  and  C_8
REMARK    7  A    between atoms: C_9  and  C_11
REMARK    8  A    between atoms: C_11  and  C_18
REMARK    9  A    between atoms: N_19  and  O_20
REMARK                            x       y       z     vdW  Elec       q    Type
REMARK                         _______ _______ _______ _____ _____    ______ ____
ROOT
ATOM      1  C   UNL     1       0.701  -1.739  -3.362  0.00  0.00    +0.105 C 
ATOM      2  C   UNL     1       1.812  -2.745  -2.998  0.00  0.00    +0.024 C 
ATOM      3  C   UNL     1       1.276  -3.693  -1.960  0.00  0.00    +0.001 C 
ATOM      4  C   UNL     1       0.707  -4.984  -2.579  0.00  0.00    +0.000 C 
ATOM      5  C   UNL     1      -0.118  -4.722  -3.854  0.00  0.00    +0.000 C 
ATOM      6  C   UNL     1      -1.008  -3.515  -3.725  0.00  0.00    +0.001 C 
ATOM      7  C   UNL     1      -0.264  -2.293  -4.301  0.00  0.00    +0.024 C 
ENDROOT
BRANCH   1   8
ATOM      8  C   UNL     1       1.333  -0.517  -3.977  0.00  0.00    +0.147 C 
ATOM      9  N   UNL     1       0.939  -0.098  -5.134  0.00  0.00    -0.076 NA
ATOM     10  N   UNL     1       2.332   0.153  -3.306  0.00  0.00    -0.343 N 
ATOM     11  H   UNL     1       2.678  -0.202  -2.472  0.00  0.00    +0.144 HD
ATOM     12  H   UNL     1       2.689   0.979  -3.667  0.00  0.00    +0.144 HD
BRANCH   9  13
ATOM     13  O   UNL     1       1.534   1.050  -5.711  0.00  0.00    -0.408 OA
ATOM     14  H   UNL     1       1.173   1.286  -6.577  0.00  0.00    +0.328 HD
ENDBRANCH   9  13
ENDBRANCH   1   8
BRANCH   1  17
ATOM     15  N   UNL     1      -1.006  -0.414  -2.158  0.00  0.00    -0.301 N 
ATOM     16  C   UNL     1      -1.226   0.351  -3.388  0.00  0.00    +0.132 C 
ATOM     17  C   UNL     1      -0.022  -1.333  -2.104  0.00  0.00    +0.229 C 
ATOM     18  O   UNL     1       0.283  -1.833  -1.042  0.00  0.00    -0.275 OA
BRANCH  15  20
ATOM     19  C   UNL     1      -3.293  -0.591  -1.311  0.00  0.00    +0.028 C 
ATOM     20  C   UNL     1      -1.856  -0.180  -0.988  0.00  0.00    +0.075 C 
BRANCH  20  21
ATOM     21  C   UNL     1      -1.820   1.305  -0.621  0.00  0.00    +0.003 C 
ATOM     22  C   UNL     1      -2.799   1.571   0.525  0.00  0.00    +0.009 C 
ATOM     23  C   UNL     1      -0.406   1.688  -0.181  0.00  0.00    +0.009 C 
ENDBRANCH  20  21
ENDBRANCH  15  20
ENDBRANCH   1  17
TORSDOF 5
