REMARK  Name = ZINC20208702
REMARK  7 active torsions:
REMARK  status: ('A' for Active; 'I' for Inactive)
REMARK    1  A    between atoms: C_1  and  C_2
REMARK    2  A    between atoms: C_3  and  C_12
REMARK    3  A    between atoms: C_22  and  S_24
REMARK    4  A    between atoms: S_24  and  C_27
REMARK    5  A    between atoms: C_27  and  C_28
REMARK    6  A    between atoms: C_28  and  C_29
REMARK    7  A    between atoms: C_28  and  C_30
REMARK                            x       y       z     vdW  Elec       q    Type
REMARK                         _______ _______ _______ _____ _____    ______ ____
ROOT
ATOM      1  C   UNL     1      -0.087  -0.191  -2.388  0.00  0.00    +0.026 C 
ATOM      2  C   UNL     1      -0.922   0.874  -2.676  0.00  0.00    +0.079 C 
ATOM      3  C   UNL     1      -1.717   1.555  -1.619  0.00  0.00    +0.132 C 
ATOM      4  N   UNL     1      -1.303   1.693  -0.386  0.00  0.00    -0.385 N 
ATOM      5  N   UNL     1      -2.962   2.038  -2.076  0.00  0.00    -0.152 N 
ATOM      6  C   UNL     1      -3.091   2.284  -3.427  0.00  0.00    +0.182 C 
ATOM      7  N   UNL     1      -2.218   2.033  -4.370  0.00  0.00    -0.152 NA
ATOM      8  C   UNL     1      -1.068   1.400  -4.053  0.00  0.00    +0.273 C 
ATOM      9  O   UNL     1      -0.177   1.261  -4.876  0.00  0.00    -0.268 OA
ATOM     10  S   UNL     1      -4.716   2.985  -3.523  0.00  0.00    -0.015 S 
ATOM     11  C   UNL     1      -5.148   2.812  -1.797  0.00  0.00    +0.235 C 
ATOM     12  N   UNL     1      -4.064   2.298  -1.291  0.00  0.00    -0.145 NA
ATOM     13  H   UNL     1      -0.464   1.293  -0.108  0.00  0.00    +0.157 HD
ATOM     14  H   UNL     1      -1.834   2.196   0.251  0.00  0.00    +0.157 HD
ENDROOT
BRANCH   1  17
ATOM     15  C   UNL     1       2.420  -0.437  -0.578  0.00  0.00    +0.064 C 
ATOM     16  C   UNL     1       1.016  -0.876  -0.251  0.00  0.00    +0.021 A 
ATOM     17  C   UNL     1      -0.075  -0.748  -1.089  0.00  0.00    +0.004 A 
ATOM     18  C   UNL     1      -1.226  -1.309  -0.353  0.00  0.00    +0.007 A 
ATOM     19  C   UNL     1      -2.577  -1.468  -0.649  0.00  0.00    +0.010 A 
ATOM     20  C   UNL     1      -3.415  -2.046   0.279  0.00  0.00    +0.001 A 
ATOM     21  C   UNL     1      -2.918  -2.467   1.504  0.00  0.00    +0.002 A 
ATOM     22  C   UNL     1      -1.583  -2.315   1.809  0.00  0.00    +0.026 A 
ATOM     23  C   UNL     1      -0.720  -1.734   0.884  0.00  0.00    +0.047 A 
ATOM     24  N   UNL     1       0.633  -1.460   0.902  0.00  0.00    -0.358 N 
ATOM     25  H   UNL     1       1.226  -1.659   1.643  0.00  0.00    +0.166 HD
ENDBRANCH   1  17
BRANCH  11  26
ATOM     26  S   UNL     1      -6.657   3.229  -0.987  0.00  0.00    +0.022 S 
ATOM     27  O   UNL     1      -7.662   3.035  -1.972  0.00  0.00    -0.167 OA
ATOM     28  O   UNL     1      -6.653   2.458   0.207  0.00  0.00    -0.167 OA
BRANCH  26  29
ATOM     29  C   UNL     1      -6.501   4.993  -0.592  0.00  0.00    +0.177 C 
BRANCH  29  30
ATOM     30  C   UNL     1      -7.768   5.469   0.122  0.00  0.00    +0.004 C 
ATOM     31  C   UNL     1      -7.587   6.922   0.566  0.00  0.00    +0.009 C 
ATOM     32  C   UNL     1      -8.958   5.372  -0.834  0.00  0.00    +0.009 C 
ENDBRANCH  29  30
ENDBRANCH  26  29
ENDBRANCH  11  26
TORSDOF 4
