REMARK  Name = ZINC00255115
REMARK  8 active torsions:
REMARK  status: ('A' for Active; 'I' for Inactive)
REMARK    1  A    between atoms: C_1  and  C_2
REMARK    2  A    between atoms: C_5  and  N_9
REMARK    3  A    between atoms: C_6  and  C_8
REMARK    4  A    between atoms: C_10  and  C_19
REMARK    5  A    between atoms: C_12  and  C_14
REMARK    6  A    between atoms: N_21  and  C_22
REMARK    7  A    between atoms: C_22  and  C_23
REMARK    8  A    between atoms: C_22  and  C_24
REMARK                            x       y       z     vdW  Elec       q    Type
REMARK                         _______ _______ _______ _____ _____    ______ ____
ROOT
ATOM      1  N   UNL     1      -0.602   3.268  -0.179  0.00  0.00    -0.227 N 
ATOM      2  C   UNL     1      -1.081   2.061   0.258  0.00  0.00    +0.130 A 
ATOM      3  C   UNL     1       0.009   1.270   0.550  0.00  0.00    +0.066 A 
ATOM      4  C   UNL     1       1.165   2.018   0.272  0.00  0.00    +0.129 A 
ATOM      5  N   UNL     1       0.797   3.209  -0.162  0.00  0.00    -0.163 NA
ENDROOT
BRANCH   1  10
ATOM      6  C   UNL     1      -3.735   7.714  -1.792  0.00  0.00    +0.044 C 
ATOM      7  C   UNL     1      -2.903   6.533  -1.363  0.00  0.00    -0.050 A 
ATOM      8  C   UNL     1      -3.047   5.317  -2.007  0.00  0.00    +0.005 A 
ATOM      9  C   UNL     1      -2.282   4.235  -1.621  0.00  0.00    +0.028 A 
ATOM     10  C   UNL     1      -1.375   4.365  -0.577  0.00  0.00    +0.069 A 
ATOM     11  C   UNL     1      -1.232   5.587   0.068  0.00  0.00    -0.025 A 
ATOM     12  C   UNL     1      -1.997   6.668  -0.328  0.00  0.00    +0.008 A 
ATOM     13  C   UNL     1      -0.245   5.735   1.196  0.00  0.00    +0.046 C 
ENDBRANCH   1  10
BRANCH   4  14
ATOM     14  C   UNL     1       2.558   1.551   0.438  0.00  0.00    +0.155 A 
ATOM     15  C   UNL     1       3.678   2.271   0.166  0.00  0.00    +0.051 A 
ATOM     16  C   UNL     1       4.777   1.442   0.470  0.00  0.00    +0.042 A 
ATOM     17  C   UNL     1       4.278   0.267   0.900  0.00  0.00    +0.196 A 
ATOM     18  O   UNL     1       2.936   0.337   0.879  0.00  0.00    -0.461 OA
ENDBRANCH   4  14
BRANCH   2  19
ATOM     19  C   UNL     1      -2.496   1.681   0.393  0.00  0.00    +0.263 C 
ATOM     20  O   UNL     1      -2.793   0.537   0.680  0.00  0.00    -0.269 OA
ATOM     21  N   UNL     1      -3.462   2.600   0.198  0.00  0.00    -0.308 N 
ATOM     22  H   UNL     1      -3.224   3.526   0.032  0.00  0.00    +0.149 HD
BRANCH  21  23
ATOM     23  C   UNL     1      -4.871   2.201   0.239  0.00  0.00    +0.067 C 
ATOM     24  C   UNL     1      -5.728   3.401   0.649  0.00  0.00    +0.027 C 
ATOM     25  C   UNL     1      -5.303   1.715  -1.146  0.00  0.00    +0.027 C 
ENDBRANCH  21  23
ENDBRANCH   2  19
TORSDOF 4
