REMARK  Name = ZINC35668500
REMARK  9 active torsions:
REMARK  status: ('A' for Active; 'I' for Inactive)
REMARK    1  A    between atoms: C_1  and  C_2
REMARK    2  A    between atoms: C_4  and  C_26
REMARK    3  A    between atoms: C_5  and  O_9
REMARK    4  A    between atoms: O_9  and  C_10
REMARK    5  A    between atoms: C_10  and  C_11
REMARK    6  A    between atoms: N_13  and  C_14
REMARK    7  A    between atoms: C_14  and  N_16
REMARK    8  A    between atoms: N_16  and  C_17
REMARK    9  A    between atoms: C_22  and  C_23
REMARK                            x       y       z     vdW  Elec       q    Type
REMARK                         _______ _______ _______ _____ _____    ______ ____
ROOT
ATOM      1  C   UNL     1       1.279  -6.229   0.410  0.00  0.00    +0.256 C 
ATOM      2  O   UNL     1       0.181  -6.689   0.642  0.00  0.00    -0.272 OA
ATOM      3  N   UNL     1       2.315  -7.054   0.160  0.00  0.00    -0.265 N 
ATOM      4  H   UNL     1       3.193  -6.686  -0.025  0.00  0.00    +0.157 HD
ENDROOT
BRANCH   3   5
ATOM      5  C   UNL     1       2.131  -8.389   0.168  0.00  0.00    +0.141 C 
ATOM      6  S   UNL     1       0.581  -9.038   0.494  0.00  0.00    -0.018 S 
BRANCH   5   7
ATOM      7  N   UNL     1       3.168  -9.213  -0.083  0.00  0.00    -0.296 N 
ATOM      8  H   UNL     1       4.029  -8.846  -0.336  0.00  0.00    +0.154 HD
BRANCH   7   9
ATOM      9  C   UNL     1       3.002 -10.590   0.022  0.00  0.00    +0.047 A 
ATOM     10  C   UNL     1       1.907 -11.208  -0.566  0.00  0.00    +0.024 A 
ATOM     11  C   UNL     1       1.745 -12.574  -0.461  0.00  0.00    +0.002 A 
ATOM     12  C   UNL     1       2.670 -13.341   0.230  0.00  0.00    +0.001 A 
ATOM     13  C   UNL     1       3.764 -12.747   0.820  0.00  0.00    +0.017 A 
ATOM     14  C   UNL     1       3.946 -11.363   0.719  0.00  0.00    +0.084 A 
BRANCH  14  15
ATOM     15  C   UNL     1       5.114 -10.722   1.342  0.00  0.00    +0.388 C 
ATOM     16  O   UNL     1       5.984 -11.409   1.861  0.00  0.00    -0.241 OA
ATOM     17  O   UNL     1       5.217  -9.503   1.340  0.00  0.00    -0.241 OA
ENDBRANCH  14  15
ENDBRANCH   7   9
ENDBRANCH   5   7
ENDBRANCH   3   5
BRANCH   1  18
ATOM     18  C   UNL     1       1.484  -4.736   0.402  0.00  0.00    +0.325 C 
BRANCH  18  19
ATOM     19  O   UNL     1       0.246  -4.084   0.693  0.00  0.00    -0.481 OA
BRANCH  19  24
ATOM     20  C   UNL     1       0.292   1.548   0.823  0.00  0.00    +0.044 C 
ATOM     21  C   UNL     1       0.280   0.041   0.788  0.00  0.00    -0.049 A 
ATOM     22  C   UNL     1       0.016  -0.620  -0.397  0.00  0.00    +0.010 A 
ATOM     23  C   UNL     1       0.004  -2.001  -0.432  0.00  0.00    -0.007 A 
ATOM     24  C   UNL     1       0.258  -2.725   0.724  0.00  0.00    +0.138 A 
ATOM     25  C   UNL     1       0.523  -2.059   1.913  0.00  0.00    +0.060 A 
ATOM     26  C   UNL     1       0.539  -0.677   1.941  0.00  0.00    +0.022 A 
ATOM     27 BR   UNL     1       0.869  -3.042   3.491  0.00  0.00    -0.047 Br
ATOM     28  C   UNL     1      -0.284  -2.720  -1.724  0.00  0.00    +0.047 C 
ENDBRANCH  19  24
ENDBRANCH  18  19
ENDBRANCH   1  18
TORSDOF 7
