REMARK  Name = ZINC12661201
REMARK  11 active torsions:
REMARK  status: ('A' for Active; 'I' for Inactive)
REMARK    1  A    between atoms: C_1  and  C_2
REMARK    2  A    between atoms: C_2  and  C_41
REMARK    3  A    between atoms: C_5  and  C_8
REMARK    4  A    between atoms: C_10  and  O_22
REMARK    5  A    between atoms: C_18  and  C_20
REMARK    6  A    between atoms: C_18  and  C_21
REMARK    7  A    between atoms: O_22  and  C_23
REMARK    8  A    between atoms: C_23  and  C_24
REMARK    9  A    between atoms: N_26  and  N_27
REMARK   10  A    between atoms: C_28  and  C_30
REMARK   11  A    between atoms: C_39  and  O_40
REMARK                            x       y       z     vdW  Elec       q    Type
REMARK                         _______ _______ _______ _____ _____    ______ ____
ROOT
ATOM      1  C   UNL     1      -7.253   5.346   0.100  0.00  0.00    +0.255 C 
ATOM      2  O   UNL     1      -7.260   4.134   0.094  0.00  0.00    -0.272 OA
ATOM      3  N   UNL     1      -6.081   6.013   0.092  0.00  0.00    -0.232 N 
ATOM      4  H   UNL     1      -6.075   6.983   0.097  0.00  0.00    +0.173 HD
ENDROOT
BRANCH   3   5
ATOM      5  N   UNL     1      -4.872   5.305   0.077  0.00  0.00    -0.230 N 
ATOM      6  C   UNL     1      -3.701   5.971   0.069  0.00  0.00    +0.264 C 
ATOM      7  O   UNL     1      -3.693   7.187   0.075  0.00  0.00    -0.269 OA
ATOM      8  H   UNL     1      -4.878   4.335   0.072  0.00  0.00    +0.173 HD
BRANCH   6   9
ATOM      9  C   UNL     1      -2.428   5.225   0.053  0.00  0.00    +0.080 A 
ATOM     10  C   UNL     1      -2.442   3.840   0.046  0.00  0.00    +0.025 A 
ATOM     11  C   UNL     1      -1.229   3.137   0.031  0.00  0.00    -0.017 A 
ATOM     12  C   UNL     1      -1.206   1.730   0.017  0.00  0.00    +0.008 A 
ATOM     13  C   UNL     1      -0.013   1.076   0.008  0.00  0.00    +0.001 A 
ATOM     14  C   UNL     1       1.191   1.779   0.000  0.00  0.00    +0.001 A 
ATOM     15  C   UNL     1       1.208   3.140   0.007  0.00  0.00    +0.008 A 
ATOM     16  C   UNL     1      -0.003   3.852   0.022  0.00  0.00    -0.014 A 
ATOM     17  C   UNL     1      -0.016   5.257   0.029  0.00  0.00    +0.054 A 
ATOM     18  C   UNL     1      -1.204   5.927   0.044  0.00  0.00    +0.130 A 
BRANCH  18  19
ATOM     19  O   UNL     1      -1.209   7.285   0.050  0.00  0.00    -0.506 OA
ATOM     20  H   UNL     1      -1.201   7.674   0.936  0.00  0.00    +0.292 HD
ENDBRANCH  18  19
ENDBRANCH   6   9
ENDBRANCH   3   5
BRANCH   1  21
ATOM     21  C   UNL     1      -8.553   6.108   0.117  0.00  0.00    +0.257 C 
BRANCH  21  22
ATOM     22  O   UNL     1      -9.645   5.186   0.123  0.00  0.00    -0.362 OA
BRANCH  22  24
ATOM     23  C   UNL     1     -11.975   4.927  -0.577  0.00  0.00    +0.184 C 
ATOM     24  C   UNL     1     -10.931   5.809   0.138  0.00  0.00    +0.184 C 
ATOM     25  C   UNL     1     -11.485   5.888   1.582  0.00  0.00    +0.209 C 
ATOM     26  C   UNL     1     -12.151   4.484   1.731  0.00  0.00    +0.285 C 
ATOM     27  O   UNL     1     -12.652   4.162   0.425  0.00  0.00    -0.340 OA
ATOM     28  O   UNL     1     -13.272   4.753   2.596  0.00  0.00    -0.318 OA
ATOM     29  C   UNL     1     -13.553   6.156   2.518  0.00  0.00    +0.168 C 
ATOM     30  O   UNL     1     -12.632   6.763   1.597  0.00  0.00    -0.338 OA
ATOM     31  C   UNL     1     -13.392   6.790   3.900  0.00  0.00    +0.074 C 
ATOM     32  C   UNL     1     -14.986   6.362   2.022  0.00  0.00    +0.074 C 
BRANCH  23  37
ATOM     33  C   UNL     1     -10.829   0.835  -0.380  0.00  0.00    +0.074 C 
ATOM     34  C   UNL     1     -10.417   1.841  -1.457  0.00  0.00    +0.165 C 
ATOM     35  O   UNL     1     -11.407   1.865  -2.499  0.00  0.00    -0.347 OA
ATOM     36  C   UNL     1     -12.278   2.970  -2.157  0.00  0.00    +0.197 C 
ATOM     37  C   UNL     1     -11.274   3.990  -1.564  0.00  0.00    +0.179 C 
ATOM     38  O   UNL     1     -10.318   3.154  -0.881  0.00  0.00    -0.341 OA
ATOM     39  C   UNL     1      -9.063   1.437  -2.043  0.00  0.00    +0.074 C 
ENDBRANCH  23  37
ENDBRANCH  22  24
ENDBRANCH  21  22
ENDBRANCH   1  21
TORSDOF 7
