REMARK  Name = ZINC13615483
REMARK  4 active torsions:
REMARK  status: ('A' for Active; 'I' for Inactive)
REMARK    1  A    between atoms: C_1  and  O_2
REMARK    2  A    between atoms: O_2  and  C_3
REMARK    3  A    between atoms: C_5  and  N_26
REMARK    4  A    between atoms: C_10  and  C_19
REMARK                            x       y       z     vdW  Elec       q    Type
REMARK                         _______ _______ _______ _____ _____    ______ ____
ROOT
ATOM      1  C   UNL     1       2.755  -0.720  -2.254  0.00  0.00    +0.143 A 
ATOM      2  C   UNL     1       4.043  -0.272  -2.483  0.00  0.00    +0.080 A 
ATOM      3  C   UNL     1       4.468   0.912  -1.911  0.00  0.00    +0.130 A 
ATOM      4  C   UNL     1       3.611   1.643  -1.115  0.00  0.00    +0.039 A 
ATOM      5  C   UNL     1       2.314   1.203  -0.877  0.00  0.00    -0.014 A 
ATOM      6  C   UNL     1       1.884   0.019  -1.448  0.00  0.00    +0.074 A 
ATOM      7  N   UNL     1       0.593  -0.477  -1.251  0.00  0.00    -0.334 N 
ATOM      8  C   UNL     1       0.002  -0.004   0.002  0.00  0.00    +0.105 C 
ATOM      9  C   UNL     1      -0.019   1.526   0.010  0.00  0.00    +0.029 C 
ATOM     10  C   UNL     1       1.435   2.045  -0.001  0.00  0.00    +0.049 C 
ATOM     11  C   UNL     1       1.872   1.950   1.443  0.00  0.00    -0.023 C 
ATOM     12  C   UNL     1       0.829   1.914   2.235  0.00  0.00    -0.030 C 
ATOM     13  C   UNL     1      -0.453   1.987   1.430  0.00  0.00    +0.033 C 
ATOM     14  H   UNL     1      -0.002  -0.258  -2.036  0.00  0.00    +0.147 HD
ENDROOT
BRANCH   8  15
ATOM     15  C   UNL     1      -1.407  -0.526   0.122  0.00  0.00    -0.027 A 
ATOM     16  C   UNL     1      -2.228  -0.560  -0.990  0.00  0.00    +0.008 A 
ATOM     17  C   UNL     1      -3.518  -1.044  -0.882  0.00  0.00    +0.038 A 
ATOM     18  C   UNL     1      -3.991  -1.484   0.342  0.00  0.00    +0.123 A 
ATOM     19  C   UNL     1      -3.170  -1.444   1.456  0.00  0.00    +0.038 A 
ATOM     20  C   UNL     1      -1.878  -0.966   1.345  0.00  0.00    +0.008 A 
ATOM     21  F   UNL     1      -5.254  -1.952   0.450  0.00  0.00    -0.205 F 
ENDBRANCH   8  15
BRANCH   3  22
ATOM     22  N   UNL     1       5.846   1.397  -2.153  0.00  0.00    +0.057 N 
ATOM     23  O   UNL     1       6.221   2.441  -1.649  0.00  0.00    -0.126 OA
ATOM     24  O   UNL     1       6.604   0.753  -2.856  0.00  0.00    -0.126 OA
ENDBRANCH   3  22
BRANCH   1  26
ATOM     25  C   UNL     1       3.273  -2.591  -3.627  0.00  0.00    +0.277 C 
ATOM     26  O   UNL     1       2.333  -1.885  -2.815  0.00  0.00    -0.493 OA
ENDBRANCH   1  26
TORSDOF 3
