REMARK  Name = ZINC03442448
REMARK  6 active torsions:
REMARK  status: ('A' for Active; 'I' for Inactive)
REMARK    1  A    between atoms: C_3  and  C_7
REMARK    2  A    between atoms: C_10  and  S_13
REMARK    3  A    between atoms: N_11  and  N_12
REMARK    4  A    between atoms: S_13  and  C_14
REMARK    5  A    between atoms: C_14  and  C_15
REMARK    6  A    between atoms: N_17  and  N_18
REMARK                            x       y       z     vdW  Elec       q    Type
REMARK                         _______ _______ _______ _____ _____    ______ ____
ROOT
ATOM      1  C   UNL     1      -0.718   1.572   1.248  0.00  0.00    +0.240 C 
ATOM      2  O   UNL     1      -1.714   2.256   1.150  0.00  0.00    -0.273 OA
ATOM      3  N   UNL     1      -0.242   1.246   2.466  0.00  0.00    -0.223 N 
ATOM      4  H   UNL     1       0.555   0.699   2.544  0.00  0.00    +0.174 HD
ENDROOT
BRANCH   3   5
ATOM      5  N   UNL     1      -0.897   1.698   3.618  0.00  0.00    -0.137 N 
ATOM      6  C   UNL     1      -1.667   0.919   4.407  0.00  0.00    +0.263 C 
ATOM      7  O   UNL     1      -1.913  -0.259   4.261  0.00  0.00    -0.271 OA
ATOM      8  C   UNL     1      -2.157   1.826   5.514  0.00  0.00    +0.114 C 
ATOM      9  C   UNL     1      -1.666   1.324   6.867  0.00  0.00    +0.035 C 
ATOM     10  C   UNL     1      -2.149   2.270   7.970  0.00  0.00    +0.003 C 
ATOM     11  C   UNL     1      -3.678   2.332   7.954  0.00  0.00    +0.000 C 
ATOM     12  C   UNL     1      -4.153   2.860   6.599  0.00  0.00    +0.003 C 
ATOM     13  C   UNL     1      -3.679   1.917   5.490  0.00  0.00    +0.035 C 
ATOM     14  N   UNL     1      -1.558   3.129   5.199  0.00  0.00    -0.284 N 
ATOM     15  C   UNL     1      -0.834   2.954   4.077  0.00  0.00    +0.326 C 
ATOM     16  O   UNL     1      -0.197   3.838   3.539  0.00  0.00    -0.251 OA
ATOM     17  H   UNL     1      -1.659   3.952   5.702  0.00  0.00    +0.151 HD
ENDBRANCH   3   5
BRANCH   1  18
ATOM     18  C   UNL     1      -0.013   1.086   0.008  0.00  0.00    +0.174 C 
BRANCH  18  19
ATOM     19  S   UNL     1      -0.888   1.685  -1.458  0.00  0.00    -0.075 S 
BRANCH  19  23
ATOM     20  C   UNL     1       0.962   0.411  -4.655  0.00  0.00    +0.183 A 
ATOM     21  N   UNL     1       1.689  -0.088  -3.683  0.00  0.00    -0.127 NA
ATOM     22  N   UNL     1       1.196   0.252  -2.547  0.00  0.00    -0.121 NA
ATOM     23  C   UNL     1       0.122   0.990  -2.724  0.00  0.00    +0.209 A 
ATOM     24  N   UNL     1      -0.068   1.112  -4.070  0.00  0.00    -0.224 N 
BRANCH  20  27
ATOM     25  C   UNL     1       2.267  -0.850  -7.941  0.00  0.00    +0.020 A 
ATOM     26  C   UNL     1       2.079  -0.737  -6.574  0.00  0.00    +0.014 A 
ATOM     27  C   UNL     1       1.200   0.246  -6.105  0.00  0.00    +0.039 A 
ATOM     28  C   UNL     1       0.547   1.064  -7.029  0.00  0.00    +0.122 A 
ATOM     29  N   UNL     1       0.764   0.920  -8.320  0.00  0.00    -0.263 NA
ATOM     30  C   UNL     1       1.587   0.003  -8.791  0.00  0.00    +0.111 A 
ENDBRANCH  20  27
BRANCH  24  31
ATOM     31  N   UNL     1      -1.069   1.791  -4.705  0.00  0.00    -0.295 N 
ATOM     32  H   UNL     1      -0.804   2.749  -4.877  0.00  0.00    +0.163 HD
ATOM     33  H   UNL     1      -1.333   1.329  -5.562  0.00  0.00    +0.163 HD
ENDBRANCH  24  31
ENDBRANCH  19  23
ENDBRANCH  18  19
ENDBRANCH   1  18
TORSDOF 6
