REMARK  Name = ZINC66584786
REMARK  5 active torsions:
REMARK  status: ('A' for Active; 'I' for Inactive)
REMARK    1  A    between atoms: C_1  and  C_2
REMARK    2  A    between atoms: C_2  and  N_3
REMARK    3  A    between atoms: C_5  and  S_8
REMARK    4  A    between atoms: S_8  and  N_11
REMARK    5  A    between atoms: N_11  and  C_12
REMARK                            x       y       z     vdW  Elec       q    Type
REMARK                         _______ _______ _______ _____ _____    ______ ____
ROOT
ATOM      1  N   UNL     1      -4.203  -4.144  -0.684  0.00  0.00    -0.097 NA
ENDROOT
BRANCH   1   2
ATOM      2  C   UNL     1      -4.999  -5.191  -1.151  0.00  0.00    +0.083 A 
ATOM      3  C   UNL     1      -5.900  -4.975  -2.179  0.00  0.00    +0.027 A 
ATOM      4  C   UNL     1      -6.692  -6.015  -2.645  0.00  0.00    +0.004 A 
ATOM      5  C   UNL     1      -6.595  -7.274  -2.095  0.00  0.00    +0.026 A 
ATOM      6  C   UNL     1      -5.696  -7.517  -1.060  0.00  0.00    +0.048 A 
ATOM      7  C   UNL     1      -4.887  -6.469  -0.588  0.00  0.00    +0.024 A 
ATOM      8  C   UNL     1      -4.062  -7.042   0.478  0.00  0.00    +0.029 A 
ATOM      9  C   UNL     1      -4.397  -8.338   0.581  0.00  0.00    +0.083 A 
ATOM     10  N   UNL     1      -5.378  -8.638  -0.327  0.00  0.00    -0.361 N 
ATOM     11  H   UNL     1      -5.782  -9.512  -0.442  0.00  0.00    +0.165 HD
ENDBRANCH   1   2
BRANCH   1  12
ATOM     12  S   UNL     1      -4.340  -2.636  -1.354  0.00  0.00    +0.095 S 
ATOM     13  O   UNL     1      -5.638  -2.161  -1.024  0.00  0.00    -0.148 OA
ATOM     14  O   UNL     1      -3.887  -2.746  -2.696  0.00  0.00    -0.148 OA
BRANCH  12  17
ATOM     15  N   UNL     1      -1.372  -0.511   0.012  0.00  0.00    -0.270 N 
ATOM     16  C   UNL     1      -1.907  -1.373  -0.878  0.00  0.00    +0.137 A 
ATOM     17  C   UNL     1      -3.194  -1.589  -0.520  0.00  0.00    +0.148 A 
ATOM     18  C   UNL     1      -3.455  -0.834   0.628  0.00  0.00    +0.163 A 
ATOM     19  N   UNL     1      -2.361  -0.192   0.952  0.00  0.00    -0.178 NA
BRANCH  15  21
ATOM     20  C   UNL     1      -0.019   1.526   0.010  0.00  0.00    +0.029 C 
ATOM     21  C   UNL     1       0.002  -0.004   0.002  0.00  0.00    +0.140 C 
ENDBRANCH  15  21
ENDBRANCH  12  17
ENDBRANCH   1  12
TORSDOF 4
