REMARK  Name = ZINC62824749
REMARK  4 active torsions:
REMARK  status: ('A' for Active; 'I' for Inactive)
REMARK    1  A    between atoms: C_3  and  N_11
REMARK    2  A    between atoms: C_4  and  C_8
REMARK    3  A    between atoms: N_14  and  C_15
REMARK    4  A    between atoms: C_15  and  C_16
REMARK                            x       y       z     vdW  Elec       q    Type
REMARK                         _______ _______ _______ _____ _____    ______ ____
ROOT
ATOM      1  N   UNL     1       3.428   2.072  -0.040  0.00  0.00    -0.269 N 
ATOM      2  C   UNL     1       3.348   3.410  -0.172  0.00  0.00    +0.304 C 
ATOM      3  O   UNL     1       2.261   3.956  -0.182  0.00  0.00    -0.253 OA
ATOM      4  N   UNL     1       4.472   4.144  -0.292  0.00  0.00    -0.297 N 
ATOM      5  H   UNL     1       4.294   1.644   0.052  0.00  0.00    +0.156 HD
ATOM      6  H   UNL     1       5.338   3.709  -0.284  0.00  0.00    +0.150 HD
ENDROOT
BRANCH   1   9
ATOM      7  C   UNL     1      -0.029   1.001  -0.656  0.00  0.00    +0.016 A 
ATOM      8  C   UNL     1       1.121   1.766  -0.662  0.00  0.00    +0.025 A 
ATOM      9  C   UNL     1       2.269   1.302  -0.035  0.00  0.00    +0.049 A 
ATOM     10  C   UNL     1       2.254   0.051   0.605  0.00  0.00    +0.085 A 
ATOM     11  C   UNL     1       1.082  -0.712   0.602  0.00  0.00    +0.031 A 
ATOM     12  C   UNL     1      -0.047  -0.234  -0.026  0.00  0.00    +0.014 A 
ATOM     13  I   UNL     1      -1.802  -1.379  -0.029  0.00  0.00    -0.044 I 
BRANCH  10  14
ATOM     14  C   UNL     1       3.464  -0.453   1.273  0.00  0.00    +0.388 C 
ATOM     15  O   UNL     1       3.478  -1.582   1.744  0.00  0.00    -0.241 OA
ATOM     16  O   UNL     1       4.457   0.258   1.358  0.00  0.00    -0.241 OA
ENDBRANCH  10  14
ENDBRANCH   1   9
BRANCH   4  17
ATOM     17  C   UNL     1       4.384   5.600  -0.436  0.00  0.00    +0.139 C 
BRANCH  17  18
ATOM     18  C   UNL     1       5.793   6.186  -0.554  0.00  0.00    +0.161 C 
ATOM     19  C   UNL     1       5.703   7.708  -0.701  0.00  0.00    +0.193 C 
ATOM     20  O   UNL     1       7.023   8.258  -0.698  0.00  0.00    -0.375 OA
ATOM     21  C   UNL     1       7.772   7.944   0.480  0.00  0.00    +0.188 C 
ATOM     22  C   UNL     1       7.862   6.422   0.627  0.00  0.00    +0.188 C 
ATOM     23  O   UNL     1       6.542   5.870   0.624  0.00  0.00    -0.370 OA
ENDBRANCH  17  18
ENDBRANCH   4  17
TORSDOF 4
