REMARK  Name = ZINC18188767
REMARK  6 active torsions:
REMARK  status: ('A' for Active; 'I' for Inactive)
REMARK    1  A    between atoms: C_3  and  C_24
REMARK    2  A    between atoms: C_6  and  C_9
REMARK    3  A    between atoms: C_9  and  N_10
REMARK    4  A    between atoms: N_13  and  C_14
REMARK    5  A    between atoms: C_24  and  N_25
REMARK    6  A    between atoms: N_28  and  C_29
REMARK                            x       y       z     vdW  Elec       q    Type
REMARK                         _______ _______ _______ _____ _____    ______ ____
ROOT
ATOM      1  C   UNL     1      -0.019   1.526   0.010  0.00  0.00    +0.001 C 
ATOM      2  C   UNL     1       1.417   2.055  -0.000  0.00  0.00    +0.005 C 
ATOM      3  C   UNL     1       2.133   1.562  -1.259  0.00  0.00    +0.006 C 
ATOM      4  C   UNL     1       2.154   0.032  -1.268  0.00  0.00    +0.010 C 
ATOM      5  C   UNL     1       0.718  -0.497  -1.257  0.00  0.00    +0.006 C 
ATOM      6  C   UNL     1       0.002  -0.004   0.002  0.00  0.00    +0.005 C 
ENDROOT
BRANCH   5   7
ATOM      7  C   UNL     1       0.739  -2.027  -1.265  0.00  0.00    +0.109 C 
BRANCH   7   8
ATOM      8  N   UNL     1      -0.631  -2.534  -1.375  0.00  0.00    -0.299 N 
ATOM      9  C   UNL     1      -0.859  -3.862  -1.402  0.00  0.00    +0.300 C 
ATOM     10  O   UNL     1       0.073  -4.640  -1.334  0.00  0.00    -0.253 OA
ATOM     11  N   UNL     1      -2.119  -4.328  -1.503  0.00  0.00    -0.294 N 
ATOM     12  H   UNL     1      -1.375  -1.913  -1.429  0.00  0.00    +0.150 HD
ATOM     13  H   UNL     1      -2.863  -3.707  -1.557  0.00  0.00    +0.151 HD
BRANCH  11  14
ATOM     14  C   UNL     1      -2.367  -5.771  -1.532  0.00  0.00    +0.037 C 
ATOM     15  C   UNL     1      -1.841  -6.405  -0.242  0.00  0.00    +0.029 C 
ATOM     16  C   UNL     1      -2.100  -7.912  -0.272  0.00  0.00    -0.008 C 
ATOM     17  C   UNL     1      -3.603  -8.170  -0.391  0.00  0.00    +0.007 C 
ATOM     18  C   UNL     1      -4.129  -7.537  -1.680  0.00  0.00    -0.008 C 
ATOM     19  C   UNL     1      -3.870  -6.029  -1.650  0.00  0.00    +0.029 C 
ATOM     20  C   UNL     1      -3.409  -8.154  -2.881  0.00  0.00    +0.007 C 
ATOM     21  C   UNL     1      -1.906  -7.896  -2.763  0.00  0.00    -0.008 C 
ATOM     22  C   UNL     1      -1.380  -8.529  -1.473  0.00  0.00    +0.007 C 
ATOM     23  C   UNL     1      -1.647  -6.388  -2.733  0.00  0.00    +0.029 C 
ENDBRANCH  11  14
ENDBRANCH   7   8
ENDBRANCH   5   7
BRANCH   3  24
ATOM     24  C   UNL     1       3.568   2.091  -1.270  0.00  0.00    +0.109 C 
BRANCH  24  25
ATOM     25  N   UNL     1       3.549   3.552  -1.383  0.00  0.00    -0.299 N 
ATOM     26  C   UNL     1       4.707   4.241  -1.411  0.00  0.00    +0.300 C 
ATOM     27  O   UNL     1       5.768   3.650  -1.344  0.00  0.00    -0.253 OA
ATOM     28  N   UNL     1       4.689   5.585  -1.515  0.00  0.00    -0.294 N 
ATOM     29  H   UNL     1       2.703   4.023  -1.436  0.00  0.00    +0.150 HD
ATOM     30  H   UNL     1       3.843   6.056  -1.568  0.00  0.00    +0.151 HD
BRANCH  28  31
ATOM     31  C   UNL     1       5.948   6.333  -1.546  0.00  0.00    +0.037 C 
ATOM     32  C   UNL     1       6.729   6.072  -0.257  0.00  0.00    +0.029 C 
ATOM     33  C   UNL     1       8.044   6.854  -0.289  0.00  0.00    -0.008 C 
ATOM     34  C   UNL     1       7.745   8.350  -0.410  0.00  0.00    +0.007 C 
ATOM     35  C   UNL     1       6.963   8.611  -1.700  0.00  0.00    -0.008 C 
ATOM     36  C   UNL     1       5.649   7.829  -1.667  0.00  0.00    +0.029 C 
ATOM     37  C   UNL     1       7.796   8.159  -2.901  0.00  0.00    +0.007 C 
ATOM     38  C   UNL     1       8.095   6.663  -2.780  0.00  0.00    -0.008 C 
ATOM     39  C   UNL     1       8.877   6.402  -1.491  0.00  0.00    +0.007 C 
ATOM     40  C   UNL     1       6.781   5.881  -2.747  0.00  0.00    +0.029 C 
ENDBRANCH  28  31
ENDBRANCH  24  25
ENDBRANCH   3  24
TORSDOF 6
