REMARK  Name = ZINC12112114
REMARK  9 active torsions:
REMARK  status: ('A' for Active; 'I' for Inactive)
REMARK    1  A    between atoms: C_1  and  C_2
REMARK    2  A    between atoms: C_7  and  C_8
REMARK    3  A    between atoms: C_9  and  C_21
REMARK    4  A    between atoms: N_11  and  C_13
REMARK    5  A    between atoms: C_21  and  N_52
REMARK    6  A    between atoms: C_22  and  C_23
REMARK    7  A    between atoms: C_22  and  N_52
REMARK    8  A    between atoms: C_24  and  C_30
REMARK    9  A    between atoms: C_28  and  C_29
REMARK                            x       y       z     vdW  Elec       q    Type
REMARK                         _______ _______ _______ _____ _____    ______ ____
ROOT
ATOM      1  C   UNL     1       1.270  -2.180   0.163  0.00  0.00    +0.095 A 
ATOM      2  C   UNL     1       2.395  -2.971  -0.142  0.00  0.00    -0.019 A 
ATOM      3  C   UNL     1       1.978  -4.249  -0.282  0.00  0.00    +0.117 A 
ATOM      4  N   UNL     1       0.635  -4.274  -0.083  0.00  0.00    -0.236 N 
ATOM      5  N   UNL     1       0.214  -2.967   0.195  0.00  0.00    -0.166 NA
ENDROOT
BRANCH   4   6
ATOM      6  C   UNL     1      -0.186  -5.409  -0.143  0.00  0.00    +0.101 A 
ATOM      7  C   UNL     1       0.363  -6.650  -0.435  0.00  0.00    +0.033 A 
ATOM      8  C   UNL     1      -0.447  -7.767  -0.489  0.00  0.00    +0.040 A 
ATOM      9  C   UNL     1      -1.808  -7.650  -0.264  0.00  0.00    +0.126 A 
ATOM     10  C   UNL     1      -2.361  -6.413   0.023  0.00  0.00    +0.078 A 
ATOM     11  C   UNL     1      -1.553  -5.292   0.084  0.00  0.00    +0.151 A 
ATOM     12  F   UNL     1      -2.092  -4.085   0.363  0.00  0.00    -0.203 F 
ATOM     13  F   UNL     1      -2.598  -8.744  -0.323  0.00  0.00    -0.205 F 
ENDBRANCH   4   6
BRANCH   1  20
ATOM     14  C   UNL     1      -0.100  -1.100   2.471  0.00  0.00    +0.044 C 
ATOM     15  C   UNL     1       0.616  -0.186   1.510  0.00  0.00    -0.041 A 
ATOM     16  C   UNL     1       0.622   1.177   1.726  0.00  0.00    +0.004 A 
ATOM     17  C   UNL     1       1.278   2.017   0.845  0.00  0.00    +0.000 A 
ATOM     18  C   UNL     1       1.932   1.496  -0.258  0.00  0.00    +0.001 A 
ATOM     19  C   UNL     1       1.933   0.135  -0.483  0.00  0.00    +0.010 A 
ATOM     20  C   UNL     1       1.273  -0.716   0.401  0.00  0.00    +0.005 A 
ENDBRANCH   1  20
BRANCH   2  21
ATOM     21  C   UNL     1       3.812  -2.480  -0.285  0.00  0.00    -0.043 C 
BRANCH  21  22
ATOM     22  N   UNL     1       4.368  -2.213   1.055  0.00  0.00    +0.385 N 
ATOM     23  H   UNL     1       4.353  -3.079   1.607  0.00  0.00    -0.085 HD
ATOM     24  H   UNL     1       3.797  -1.499   1.523  0.00  0.00    -0.085 HD
BRANCH  22  25
ATOM     25  C   UNL     1       5.758  -1.730   0.946  0.00  0.00    -0.043 C 
BRANCH  25  26
ATOM     26  C   UNL     1       6.298  -1.466   2.328  0.00  0.00    -0.021 A 
ATOM     27  C   UNL     1       6.947  -2.357   3.112  0.00  0.00    +0.035 A 
ATOM     28  N   UNL     1       7.266  -1.734   4.266  0.00  0.00    -0.281 N 
ATOM     29  H   UNL     1       7.752  -2.141   5.040  0.00  0.00    +0.189 HD
ATOM     30  N   UNL     1       6.799  -0.416   4.188  0.00  0.00    -0.179 NA
ATOM     31  C   UNL     1       6.224  -0.255   3.023  0.00  0.00    +0.061 A 
ATOM     32  C   UNL     1       5.588   1.016   2.521  0.00  0.00    +0.068 C 
ATOM     33  C   UNL     1       7.257  -3.790   2.761  0.00  0.00    +0.065 C 
ENDBRANCH  25  26
ENDBRANCH  22  25
ENDBRANCH  21  22
ENDBRANCH   2  21
TORSDOF 6
