REMARK  Name = ZINC37369320
REMARK  5 active torsions:
REMARK  status: ('A' for Active; 'I' for Inactive)
REMARK    1  A    between atoms: C_1  and  C_2
REMARK    2  A    between atoms: C_7  and  N_8
REMARK    3  A    between atoms: N_8  and  S_9
REMARK    4  A    between atoms: S_9  and  N_12
REMARK    5  A    between atoms: C_17  and  C_19
REMARK                            x       y       z     vdW  Elec       q    Type
REMARK                         _______ _______ _______ _____ _____    ______ ____
ROOT
ATOM      1  N   UNL     1       0.463   1.005   2.033  0.00  0.00    -0.206 N 
ATOM      2  H   UNL     1      -0.003   1.781   2.380  0.00  0.00    +0.175 HD
ENDROOT
BRANCH   1   9
ATOM      3  C   UNL     1       1.323   3.439   0.840  0.00  0.00    +0.046 C 
ATOM      4  C   UNL     1       1.301   2.140   0.076  0.00  0.00    -0.028 A 
ATOM      5  C   UNL     1       1.712   2.107  -1.243  0.00  0.00    +0.006 A 
ATOM      6  C   UNL     1       1.693   0.916  -1.945  0.00  0.00    +0.015 A 
ATOM      7  C   UNL     1       1.262  -0.246  -1.329  0.00  0.00    +0.020 A 
ATOM      8  C   UNL     1       0.849  -0.219  -0.011  0.00  0.00    +0.040 A 
ATOM      9  C   UNL     1       0.873   0.975   0.698  0.00  0.00    +0.053 A 
ATOM     10 BR   UNL     1       1.236  -1.872  -2.294  0.00  0.00    -0.050 Br
ENDBRANCH   1   9
BRANCH   1  11
ATOM     11  S   UNL     1       0.771  -0.286   3.023  0.00  0.00    +0.112 S 
ATOM     12  O   UNL     1       0.375   0.102   4.331  0.00  0.00    -0.138 OA
ATOM     13  O   UNL     1       0.238  -1.433   2.374  0.00  0.00    -0.138 OA
BRANCH  11  14
ATOM     14  N   UNL     1       2.414  -0.488   3.067  0.00  0.00    -0.161 NA
ATOM     15  C   UNL     1       3.061  -1.536   2.264  0.00  0.00    +0.111 C 
ATOM     16  C   UNL     1       4.162  -0.895   1.413  0.00  0.00    +0.017 C 
ATOM     17  C   UNL     1       5.118  -0.119   2.322  0.00  0.00    +0.003 C 
ATOM     18  C   UNL     1       4.351   0.995   3.039  0.00  0.00    +0.020 C 
ATOM     19  C   UNL     1       3.253   0.380   3.904  0.00  0.00    +0.078 C 
ATOM     20  C   UNL     1       2.396   1.493   4.509  0.00  0.00    +0.026 C 
ENDBRANCH  11  14
ENDBRANCH   1  11
TORSDOF 3
