REMARK  Name = ZINC39361949
REMARK  12 active torsions:
REMARK  status: ('A' for Active; 'I' for Inactive)
REMARK    1  A    between atoms: C_1  and  C_2
REMARK    2  A    between atoms: C_2  and  O_3
REMARK    3  A    between atoms: O_3  and  C_4
REMARK    4  A    between atoms: C_4  and  C_6
REMARK    5  A    between atoms: C_6  and  C_8
REMARK    6  A    between atoms: C_6  and  S_9
REMARK    7  A    between atoms: S_9  and  C_10
REMARK    8  A    between atoms: C_14  and  C_25
REMARK    9  A    between atoms: N_16  and  C_17
REMARK   10  A    between atoms: C_19  and  C_24
REMARK   11  A    between atoms: C_22  and  C_23
REMARK   12  A    between atoms: C_25  and  C_26
REMARK                            x       y       z     vdW  Elec       q    Type
REMARK                         _______ _______ _______ _____ _____    ______ ____
ROOT
ATOM      1  C   UNL     1       3.055  -4.345   4.123  0.00  0.00    +0.218 C 
ATOM      2  N   UNL     1       4.060  -3.292   4.398  0.00  0.00    -0.226 NA
ATOM      3  N   UNL     1       4.044  -3.145   5.862  0.00  0.00    -0.234 NA
ATOM      4  C   UNL     1       2.605  -3.307   6.198  0.00  0.00    +0.163 C 
ATOM      5  N   UNL     1       2.130  -4.354   5.269  0.00  0.00    -0.287 N 
ATOM      6  H   UNL     1       4.973  -3.571   4.072  0.00  0.00    +0.143 HD
ATOM      7  H   UNL     1       4.379  -2.234   6.137  0.00  0.00    +0.143 HD
ENDROOT
BRANCH   5   8
ATOM      8  C   UNL     1       1.022  -5.187   5.443  0.00  0.00    +0.036 A 
ATOM      9  C   UNL     1       1.187  -6.465   5.962  0.00  0.00    +0.026 A 
ATOM     10  C   UNL     1       0.090  -7.286   6.133  0.00  0.00    -0.049 A 
ATOM     11  C   UNL     1      -1.172  -6.837   5.788  0.00  0.00    +0.004 A 
ATOM     12  C   UNL     1      -1.340  -5.566   5.271  0.00  0.00    +0.005 A 
ATOM     13  C   UNL     1      -0.247  -4.737   5.103  0.00  0.00    -0.029 A 
ATOM     14  C   UNL     1      -0.432  -3.350   4.545  0.00  0.00    +0.045 C 
ATOM     15  C   UNL     1       0.268  -8.672   6.697  0.00  0.00    +0.044 C 
ENDBRANCH   5   8
BRANCH   1  16
ATOM     16  S   UNL     1       2.152  -3.959   2.598  0.00  0.00    -0.107 S 
BRANCH  16  17
ATOM     17  C   UNL     1       3.284  -4.471   1.276  0.00  0.00    +0.155 C 
ATOM     18  C   UNL     1       4.487  -3.527   1.240  0.00  0.00    +0.031 C 
BRANCH  17  19
ATOM     19  C   UNL     1       2.565  -4.420  -0.048  0.00  0.00    +0.320 C 
ATOM     20  O   UNL     1       1.618  -3.685  -0.193  0.00  0.00    -0.250 OA
BRANCH  19  21
ATOM     21  O   UNL     1       2.978  -5.192  -1.065  0.00  0.00    -0.464 OA
BRANCH  21  23
ATOM     22  C   UNL     1       2.863  -6.040  -3.326  0.00  0.00    +0.048 C 
ATOM     23  C   UNL     1       2.251  -5.093  -2.292  0.00  0.00    +0.229 C 
ENDBRANCH  21  23
ENDBRANCH  19  21
ENDBRANCH  17  19
ENDBRANCH  16  17
ENDBRANCH   1  16
BRANCH   4  24
ATOM     24  C   UNL     1       2.442  -3.762   7.650  0.00  0.00    +0.093 C 
BRANCH  24  25
ATOM     25  C   UNL     1       2.903  -2.665   8.575  0.00  0.00    +0.029 A 
ATOM     26  N   UNL     1       4.228  -2.546   8.894  0.00  0.00    -0.311 N 
ATOM     27  C   UNL     1       4.650  -1.570   9.718  0.00  0.00    +0.327 A 
ATOM     28  O   UNL     1       5.832  -1.482   9.988  0.00  0.00    -0.247 OA
ATOM     29  N   UNL     1       3.781  -0.688  10.247  0.00  0.00    -0.275 N 
ATOM     30  C   UNL     1       2.467  -0.771   9.958  0.00  0.00    +0.254 A 
ATOM     31  O   UNL     1       1.680   0.026  10.436  0.00  0.00    -0.268 OA
ATOM     32  C   UNL     1       2.010  -1.791   9.088  0.00  0.00    +0.091 A 
ATOM     33  H   UNL     1       4.102   0.010  10.840  0.00  0.00    +0.173 HD
ATOM     34  H   UNL     1       4.870  -3.171   8.522  0.00  0.00    +0.170 HD
ENDBRANCH  24  25
ENDBRANCH   4  24
TORSDOF 8
