REMARK  Name = ZINC39730364
REMARK  7 active torsions:
REMARK  status: ('A' for Active; 'I' for Inactive)
REMARK    1  A    between atoms: C_1  and  C_2
REMARK    2  A    between atoms: C_2  and  C_38
REMARK    3  A    between atoms: C_6  and  C_26
REMARK    4  A    between atoms: C_12  and  S_16
REMARK    5  A    between atoms: S_16  and  C_17
REMARK    6  A    between atoms: C_17  and  C_18
REMARK    7  A    between atoms: C_30  and  N_32
REMARK                            x       y       z     vdW  Elec       q    Type
REMARK                         _______ _______ _______ _____ _____    ______ ____
ROOT
ATOM      1  C   UNL     1      -0.019   1.526   0.010  0.00  0.00    +0.011 C 
ATOM      2  C   UNL     1       0.002  -0.004   0.002  0.00  0.00    -0.023 C 
ATOM      3  C   UNL     1       0.736  -0.501  -1.247  0.00  0.00    +0.062 C 
ATOM      4  C   UNL     1       2.164  -0.013  -1.210  0.00  0.00    +0.051 C 
ATOM      5  C   UNL     1       2.812   0.157   0.019  0.00  0.00    +0.025 C 
ATOM      6  C   UNL     1       4.263   0.592   0.046  0.00  0.00    +0.073 C 
ATOM      7  C   UNL     1       4.522   1.477  -1.168  0.00  0.00    +0.156 C 
ATOM      8  C   UNL     1       3.978   0.812  -2.402  0.00  0.00    +0.145 C 
ATOM      9  N   UNL     1       4.685   0.774  -3.512  0.00  0.00    -0.208 NA
ATOM     10  C   UNL     1       5.941   1.219  -3.567  0.00  0.00    +0.182 C 
ATOM     11  N   UNL     1       6.580   1.676  -2.497  0.00  0.00    -0.154 NA
ATOM     12  C   UNL     1       5.977   1.785  -1.334  0.00  0.00    +0.250 C 
ATOM     13  O   UNL     1       6.623   2.156  -0.372  0.00  0.00    -0.273 OA
ATOM     14  N   UNL     1       2.797   0.204  -2.346  0.00  0.00    -0.236 NA
ATOM     15  C   UNL     1       2.175  -0.062   1.191  0.00  0.00    +0.162 C 
ATOM     16  O   UNL     1       2.841   0.131   2.344  0.00  0.00    -0.292 OA
ATOM     17  C   UNL     1       0.742  -0.515   1.242  0.00  0.00    +0.086 C 
ATOM     18  C   UNL     1      -1.432  -0.537   0.005  0.00  0.00    +0.011 C 
ENDROOT
BRANCH   6  19
ATOM     19  C   UNL     1       5.157  -0.620  -0.008  0.00  0.00    -0.037 A 
ATOM     20  C   UNL     1       5.093  -1.478  -1.090  0.00  0.00    +0.004 A 
ATOM     21  C   UNL     1       5.913  -2.590  -1.140  0.00  0.00    +0.003 A 
ATOM     22  C   UNL     1       6.797  -2.844  -0.107  0.00  0.00    +0.033 A 
ATOM     23  C   UNL     1       6.861  -1.985   0.974  0.00  0.00    +0.126 A 
ATOM     24  C   UNL     1       6.044  -0.871   1.022  0.00  0.00    +0.037 A 
BRANCH  23  25
ATOM     25  N   UNL     1       7.806  -2.257   2.080  0.00  0.00    +0.056 N 
ATOM     26  O   UNL     1       8.523  -3.230   2.037  0.00  0.00    -0.126 OA
ATOM     27  O   UNL     1       7.862  -1.507   3.026  0.00  0.00    -0.126 OA
ENDBRANCH  23  25
ENDBRANCH   6  19
BRANCH  10  28
ATOM     28  S   UNL     1       6.781   1.199  -5.115  0.00  0.00    -0.084 S 
BRANCH  28  29
ATOM     29  C   UNL     1       8.421   1.875  -4.733  0.00  0.00    +0.115 C 
BRANCH  29  30
ATOM     30  C   UNL     1       9.253   1.914  -5.989  0.00  0.00    -0.002 A 
ATOM     31  C   UNL     1      10.032   0.826  -6.336  0.00  0.00    +0.007 A 
ATOM     32  C   UNL     1      10.796   0.862  -7.487  0.00  0.00    +0.000 A 
ATOM     33  C   UNL     1      10.782   1.985  -8.293  0.00  0.00    +0.003 A 
ATOM     34  C   UNL     1      10.004   3.074  -7.948  0.00  0.00    +0.038 A 
ATOM     35  C   UNL     1       9.234   3.037  -6.798  0.00  0.00    +0.127 A 
ATOM     36  F   UNL     1       8.469   4.099  -6.462  0.00  0.00    -0.205 F 
ENDBRANCH  29  30
ENDBRANCH  28  29
ENDBRANCH  10  28
TORSDOF 5
