REMARK  Name = ZINC50274162
REMARK  12 active torsions:
REMARK  status: ('A' for Active; 'I' for Inactive)
REMARK    1  A    between atoms: C_1  and  C_2
REMARK    2  A    between atoms: C_2  and  C_3
REMARK    3  A    between atoms: C_3  and  C_5
REMARK    4  A    between atoms: C_3  and  C_6
REMARK    5  A    between atoms: C_9  and  C_12
REMARK    6  A    between atoms: C_12  and  C_14
REMARK    7  A    between atoms: C_12  and  N_17
REMARK    8  A    between atoms: C_14  and  C_15
REMARK    9  A    between atoms: C_14  and  C_16
REMARK   10  A    between atoms: N_17  and  C_18
REMARK   11  A    between atoms: C_18  and  C_19
REMARK   12  A    between atoms: C_24  and  C_29
REMARK                            x       y       z     vdW  Elec       q    Type
REMARK                         _______ _______ _______ _____ _____    ______ ____
ROOT
ATOM      1  N   UNL     1      -1.169  -6.654  -1.903  0.00  0.00    -0.304 NA
ATOM      2  H   UNL     1      -2.036  -6.602  -2.415  0.00  0.00    +0.123 HD
ENDROOT
BRANCH   1   3
ATOM      3  C   UNL     1      -1.366  -6.290  -0.494  0.00  0.00    +0.087 C 
BRANCH   3   7
ATOM      4  C   UNL     1      -1.416  -2.035  -0.119  0.00  0.00    -0.045 A 
ATOM      5  C   UNL     1      -0.774  -2.805   0.832  0.00  0.00    +0.004 A 
ATOM      6  C   UNL     1      -0.758  -4.182   0.711  0.00  0.00    +0.005 A 
ATOM      7  C   UNL     1      -1.384  -4.789  -0.361  0.00  0.00    -0.030 A 
ATOM      8  C   UNL     1      -2.027  -4.019  -1.312  0.00  0.00    +0.005 A 
ATOM      9  C   UNL     1      -2.047  -2.642  -1.189  0.00  0.00    +0.004 A 
BRANCH   4  10
ATOM     10  C   UNL     1      -1.433  -0.534   0.013  0.00  0.00    +0.016 C 
ATOM     11  C   UNL     1      -2.110  -0.145   1.329  0.00  0.00    +0.012 C 
BRANCH  10  13
ATOM     12  C   UNL     1      -0.019   1.526   0.010  0.00  0.00    +0.004 C 
ATOM     13  C   UNL     1       0.002  -0.004   0.002  0.00  0.00    +0.004 C 
ENDBRANCH  10  13
ENDBRANCH   4  10
ENDBRANCH   3   7
BRANCH   3  14
ATOM     14  C   UNL     1      -2.697  -6.861  -0.001  0.00  0.00    +0.004 C 
ATOM     15  C   UNL     1      -2.903  -6.482   1.467  0.00  0.00    +0.009 C 
ATOM     16  C   UNL     1      -3.840  -6.289  -0.841  0.00  0.00    +0.009 C 
ENDBRANCH   3  14
ENDBRANCH   1   3
BRANCH   1  17
ATOM     17  C   UNL     1      -0.567  -7.989  -2.022  0.00  0.00    +0.135 C 
BRANCH  17  18
ATOM     18  C   UNL     1      -0.380  -8.328  -3.478  0.00  0.00    +0.037 A 
ATOM     19  C   UNL     1       0.884  -8.495  -4.003  0.00  0.00    +0.093 A 
ATOM     20  C   UNL     1       1.037  -8.809  -5.354  0.00  0.00    +0.259 A 
ATOM     21  O   UNL     1       2.154  -8.958  -5.824  0.00  0.00    -0.267 OA
ATOM     22  N   UNL     1      -0.064  -8.949  -6.150  0.00  0.00    -0.261 N 
ATOM     23  C   UNL     1      -0.076  -9.255  -7.490  0.00  0.00    +0.033 A 
ATOM     24  C   UNL     1      -1.223  -9.365  -8.160  0.00  0.00    +0.070 A 
ATOM     25  S   UNL     1      -2.426  -9.029  -6.884  0.00  0.00    -0.059 S 
ATOM     26  C   UNL     1      -1.280  -8.767  -5.548  0.00  0.00    +0.158 A 
ATOM     27  N   UNL     1      -1.432  -8.477  -4.279  0.00  0.00    -0.338 N 
ATOM     28  C   UNL     1       1.228  -9.469  -8.213  0.00  0.00    +0.064 C 
ATOM     29  H   UNL     1      -2.325  -8.366  -3.919  0.00  0.00    +0.168 HD
ENDBRANCH  17  18
ENDBRANCH   1  17
TORSDOF 7
