REMARK  Name = ZINC16957696
REMARK  9 active torsions:
REMARK  status: ('A' for Active; 'I' for Inactive)
REMARK    1  A    between atoms: C_3  and  N_35
REMARK    2  A    between atoms: C_6  and  C_7
REMARK    3  A    between atoms: C_7  and  C_9
REMARK    4  A    between atoms: C_7  and  O_34
REMARK    5  A    between atoms: C_9  and  C_20
REMARK    6  A    between atoms: N_10  and  N_11
REMARK    7  A    between atoms: C_12  and  C_14
REMARK    8  A    between atoms: C_21  and  O_33
REMARK    9  A    between atoms: C_25  and  N_30
REMARK                            x       y       z     vdW  Elec       q    Type
REMARK                         _______ _______ _______ _____ _____    ______ ____
ROOT
ATOM      1  C   UNL     1      -5.081   1.050   0.061  0.00  0.00    +0.122 C 
ATOM      2  N   UNL     1      -6.283   1.543   0.076  0.00  0.00    -0.179 NA
ENDROOT
BRANCH   1   3
ATOM      3  C   UNL     1      -3.918   1.941   0.202  0.00  0.00    +0.151 A 
ATOM      4  C   UNL     1      -4.106   3.345   0.248  0.00  0.00    +0.241 A 
ATOM      5  N   UNL     1      -3.074   4.151   0.373  0.00  0.00    -0.210 NA
ATOM      6  C   UNL     1      -1.837   3.642   0.458  0.00  0.00    +0.095 A 
ATOM      7  C   UNL     1      -0.721   4.483   0.593  0.00  0.00    +0.062 A 
ATOM      8  C   UNL     1       0.527   3.943   0.678  0.00  0.00    +0.128 A 
ATOM      9  C   UNL     1       0.715   2.564   0.633  0.00  0.00    +0.035 A 
ATOM     10  C   UNL     1      -0.343   1.717   0.503  0.00  0.00    +0.032 A 
ATOM     11  C   UNL     1      -1.645   2.238   0.407  0.00  0.00    +0.090 A 
ATOM     12  N   UNL     1      -2.701   1.427   0.285  0.00  0.00    -0.238 NA
BRANCH   8  13
ATOM     13  N   UNL     1       1.700   4.835   0.820  0.00  0.00    +0.056 N 
ATOM     14  O   UNL     1       2.819   4.362   0.896  0.00  0.00    -0.126 OA
ATOM     15  O   UNL     1       1.545   6.043   0.860  0.00  0.00    -0.126 OA
ENDBRANCH   8  13
BRANCH   4  16
ATOM     16  O   UNL     1      -5.356   3.860   0.162  0.00  0.00    -0.491 OA
ATOM     17  H   UNL     1      -5.643   4.048  -0.742  0.00  0.00    +0.294 HD
ENDBRANCH   4  16
ENDBRANCH   1   3
BRANCH   2  18
ATOM     18  N   UNL     1      -7.392   0.687   0.061  0.00  0.00    -0.203 N 
ATOM     19  C   UNL     1      -8.635   1.194   0.175  0.00  0.00    +0.263 C 
ATOM     20  O   UNL     1      -8.801   2.397   0.204  0.00  0.00    -0.268 OA
ATOM     21  H   UNL     1      -7.264  -0.270  -0.032  0.00  0.00    +0.178 HD
BRANCH  19  22
ATOM     22  C   UNL     1      -9.800   0.283   0.266  0.00  0.00    +0.041 A 
ATOM     23  C   UNL     1      -9.625  -1.102   0.337  0.00  0.00    +0.033 A 
ATOM     24  C   UNL     1     -10.739  -1.914   0.424  0.00  0.00    +0.111 A 
ATOM     25  N   UNL     1     -11.953  -1.399   0.431  0.00  0.00    -0.263 NA
ATOM     26  C   UNL     1     -12.162  -0.100   0.361  0.00  0.00    +0.111 A 
ATOM     27  C   UNL     1     -11.105   0.785   0.276  0.00  0.00    +0.033 A 
ENDBRANCH  19  22
ENDBRANCH   2  18
BRANCH   1  28
ATOM     28  C   UNL     1      -4.878  -0.435  -0.101  0.00  0.00    +0.197 C 
BRANCH  28  34
ATOM     29  C   UNL     1      -3.485  -1.026   1.893  0.00  0.00    +0.009 A 
ATOM     30  C   UNL     1      -3.333  -1.604   3.139  0.00  0.00    +0.033 A 
ATOM     31  C   UNL     1      -4.404  -2.236   3.743  0.00  0.00    +0.126 A 
ATOM     32  C   UNL     1      -5.629  -2.284   3.104  0.00  0.00    +0.033 A 
ATOM     33  C   UNL     1      -5.782  -1.701   1.860  0.00  0.00    +0.009 A 
ATOM     34  C   UNL     1      -4.711  -1.070   1.255  0.00  0.00    -0.013 A 
BRANCH  31  35
ATOM     35  N   UNL     1      -4.240  -2.860   5.075  0.00  0.00    +0.056 N 
ATOM     36  O   UNL     1      -5.155  -3.498   5.566  0.00  0.00    -0.126 OA
ATOM     37  O   UNL     1      -3.191  -2.736   5.681  0.00  0.00    -0.126 OA
ENDBRANCH  31  35
ENDBRANCH  28  34
BRANCH  28  38
ATOM     38  O   UNL     1      -3.707  -0.672  -0.886  0.00  0.00    -0.381 OA
ATOM     39  H   UNL     1      -2.882  -0.429  -0.445  0.00  0.00    +0.211 HD
ENDBRANCH  28  38
ENDBRANCH   1  28
TORSDOF 9
