REMARK  Name = ZINC63372893
REMARK  8 active torsions:
REMARK  status: ('A' for Active; 'I' for Inactive)
REMARK    1  A    between atoms: C_1  and  C_2
REMARK    2  A    between atoms: C_2  and  C_3
REMARK    3  A    between atoms: C_2  and  C_4
REMARK    4  A    between atoms: C_4  and  C_6
REMARK    5  A    between atoms: C_4  and  N_15
REMARK    6  A    between atoms: N_8  and  C_9
REMARK    7  A    between atoms: C_9  and  C_10
REMARK    8  A    between atoms: C_18  and  C_34
REMARK                            x       y       z     vdW  Elec       q    Type
REMARK                         _______ _______ _______ _____ _____    ______ ____
ROOT
ATOM      1  N   UNL     1       2.171  -0.376   0.777  0.00  0.00    -0.212 N 
ATOM      2  C   UNL     1       3.020   0.408   1.474  0.00  0.00    +0.249 C 
ATOM      3  O   UNL     1       2.777   1.035   2.483  0.00  0.00    -0.273 OA
ATOM      4  C   UNL     1       4.338   0.340   0.735  0.00  0.00    +0.136 C 
ATOM      5  C   UNL     1       4.775   1.733   0.283  0.00  0.00    +0.139 C 
ATOM      6  C   UNL     1       4.664   1.773  -1.234  0.00  0.00    -0.034 C 
ATOM      7  C   UNL     1       3.871   2.803  -1.522  0.00  0.00    -0.001 A 
ATOM      8  C   UNL     1       3.448   3.379  -2.808  0.00  0.00    +0.010 A 
ATOM      9  C   UNL     1       2.607   4.445  -2.738  0.00  0.00    +0.001 A 
ATOM     10  C   UNL     1       2.151   4.987  -1.532  0.00  0.00    +0.002 A 
ATOM     11  C   UNL     1       2.494   4.523  -0.304  0.00  0.00    +0.026 A 
ATOM     12  C   UNL     1       3.377   3.406  -0.248  0.00  0.00    +0.043 A 
ATOM     13  N   UNL     1       3.882   2.777   0.790  0.00  0.00    -0.375 N 
ATOM     14  C   UNL     1       5.304   0.756  -2.147  0.00  0.00    +0.052 C 
ATOM     15  C   UNL     1       4.895  -0.636  -1.626  0.00  0.00    +0.115 C 
ATOM     16  N   UNL     1       4.010  -0.444  -0.474  0.00  0.00    -0.269 N 
ATOM     17  C   UNL     1       2.757  -0.892  -0.312  0.00  0.00    +0.313 C 
ATOM     18  O   UNL     1       2.213  -1.672  -1.069  0.00  0.00    -0.252 OA
ATOM     19  C   UNL     1       5.413  -0.351   1.575  0.00  0.00    +0.044 C 
ATOM     20  H   UNL     1       3.699   2.962   1.725  0.00  0.00    +0.160 HD
ENDROOT
BRANCH   1  21
ATOM     21  C   UNL     1       0.783  -0.636   1.167  0.00  0.00    +0.174 C 
BRANCH  21  22
ATOM     22  C   UNL     1      -0.010   0.642   1.084  0.00  0.00    +0.235 C 
ATOM     23  O   UNL     1       0.562   1.712   1.082  0.00  0.00    -0.274 OA
ATOM     24  N   UNL     1      -1.355   0.597   1.011  0.00  0.00    -0.307 N 
ATOM     25  H   UNL     1      -1.817  -0.252   1.090  0.00  0.00    +0.149 HD
BRANCH  24  26
ATOM     26  C   UNL     1      -2.119   1.831   0.813  0.00  0.00    +0.178 C 
BRANCH  26  27
ATOM     27  C   UNL     1      -3.591   1.509   0.768  0.00  0.00    +0.122 A 
ATOM     28  C   UNL     1      -4.423   1.480   1.825  0.00  0.00    +0.046 A 
ATOM     29  C   UNL     1      -5.702   1.135   1.330  0.00  0.00    +0.041 A 
ATOM     30  C   UNL     1      -5.575   0.974   0.001  0.00  0.00    +0.195 A 
ATOM     31  O   UNL     1      -4.295   1.207  -0.335  0.00  0.00    -0.466 OA
ENDBRANCH  26  27
ENDBRANCH  24  26
ENDBRANCH  21  22
BRANCH  21  33
ATOM     32  C   UNL     1      -0.690  -1.540   2.971  0.00  0.00    +0.009 C 
ATOM     33  C   UNL     1       0.747  -1.167   2.601  0.00  0.00    +0.013 C 
ATOM     34  C   UNL     1       1.639  -2.405   2.710  0.00  0.00    +0.009 C 
ENDBRANCH  21  33
ENDBRANCH   1  21
TORSDOF 5
