REMARK  Name = ZINC45876734
REMARK  7 active torsions:
REMARK  status: ('A' for Active; 'I' for Inactive)
REMARK    1  A    between atoms: C_1  and  C_2
REMARK    2  A    between atoms: C_12  and  C_15
REMARK    3  A    between atoms: C_15  and  N_16
REMARK    4  A    between atoms: N_19  and  C_20
REMARK    5  A    between atoms: N_19  and  C_21
REMARK    6  A    between atoms: C_21  and  C_22
REMARK    7  A    between atoms: C_27  and  O_28
REMARK                            x       y       z     vdW  Elec       q    Type
REMARK                         _______ _______ _______ _____ _____    ______ ____
ROOT
ATOM      1  C   UNL     1      -0.619  -5.442  -5.290  0.00  0.00    +0.142 C 
ENDROOT
BRANCH   1  12
ATOM      2  C   UNL     1       3.274  -2.149   1.783  0.00  0.00    +0.039 C 
ATOM      3  C   UNL     1       2.763  -1.746   0.398  0.00  0.00    +0.132 C 
ATOM      4  C   UNL     1       1.461  -2.497   0.095  0.00  0.00    +0.137 C 
ATOM      5  N   UNL     1       0.894  -1.957  -1.151  0.00  0.00    -0.312 N 
ATOM      6  C   UNL     1       0.744  -0.498  -1.267  0.00  0.00    +0.134 C 
ATOM      7  C   UNL     1       2.080   0.156  -0.897  0.00  0.00    +0.179 C 
ATOM      8  O   UNL     1       2.512  -0.339   0.373  0.00  0.00    -0.374 OA
ATOM      9  C   UNL     1       0.510  -2.800  -2.187  0.00  0.00    +0.099 A 
ATOM     10  C   UNL     1      -0.134  -2.274  -3.302  0.00  0.00    +0.042 A 
ATOM     11  C   UNL     1      -0.510  -3.124  -4.326  0.00  0.00    +0.010 A 
ATOM     12  C   UNL     1      -0.228  -4.478  -4.200  0.00  0.00    -0.014 A 
ATOM     13  C   UNL     1       0.415  -4.933  -3.066  0.00  0.00    +0.089 A 
ATOM     14  N   UNL     1       0.767  -4.097  -2.107  0.00  0.00    -0.349 N 
ATOM     15  H   UNL     1       1.221  -4.442  -1.322  0.00  0.00    +0.167 HD
ENDBRANCH   1  12
BRANCH   1  16
ATOM     16  N   UNL     1       0.475  -5.557  -6.257  0.00  0.00    -0.295 N 
ATOM     17  C   UNL     1       0.349  -6.369  -7.325  0.00  0.00    +0.303 C 
ATOM     18  O   UNL     1      -0.674  -7.006  -7.487  0.00  0.00    -0.253 OA
ATOM     19  N   UNL     1       1.356  -6.474  -8.215  0.00  0.00    -0.284 N 
ATOM     20  C   UNL     1       2.588  -5.706  -8.020  0.00  0.00    +0.134 C 
ATOM     21  H   UNL     1       1.291  -5.048  -6.128  0.00  0.00    +0.151 HD
BRANCH  19  22
ATOM     22  C   UNL     1       1.218  -7.357  -9.376  0.00  0.00    +0.147 C 
BRANCH  22  23
ATOM     23  C   UNL     1       0.621  -6.587 -10.525  0.00  0.00    +0.011 A 
ATOM     24  C   UNL     1      -0.727  -6.703 -10.808  0.00  0.00    +0.009 A 
ATOM     25  C   UNL     1      -1.276  -5.997 -11.862  0.00  0.00    +0.001 A 
ATOM     26  C   UNL     1      -0.478  -5.172 -12.635  0.00  0.00    +0.004 A 
ATOM     27  C   UNL     1       0.869  -5.053 -12.355  0.00  0.00    +0.046 A 
ATOM     28  C   UNL     1       1.421  -5.756 -11.295  0.00  0.00    +0.122 A 
BRANCH  28  29
ATOM     29  O   UNL     1       2.745  -5.636 -11.014  0.00  0.00    -0.506 OA
ATOM     30  H   UNL     1       3.305  -6.275 -11.476  0.00  0.00    +0.292 HD
ENDBRANCH  28  29
ENDBRANCH  22  23
ENDBRANCH  19  22
ENDBRANCH   1  16
TORSDOF 5
