REMARK  Name = ZINC52708810
REMARK  2 active torsions:
REMARK  status: ('A' for Active; 'I' for Inactive)
REMARK    1  A    between atoms: C_1  and  C_2
REMARK    2  A    between atoms: C_7  and  C_10
REMARK                            x       y       z     vdW  Elec       q    Type
REMARK                         _______ _______ _______ _____ _____    ______ ____
ROOT
ATOM      1  C   UNL     1       1.492  -2.540   2.454  0.00  0.00    +0.176 A 
ATOM      2  N   UNL     1       2.596  -3.292   2.444  0.00  0.00    -0.179 NA
ATOM      3  C   UNL     1       2.973  -3.551   3.676  0.00  0.00    +0.312 A 
ATOM      4  O   UNL     1       2.103  -2.959   4.510  0.00  0.00    -0.317 OA
ATOM      5  N   UNL     1       1.149  -2.303   3.688  0.00  0.00    -0.059 NA
ATOM      6  N   UNL     1       4.066  -4.296   4.046  0.00  0.00    -0.311 N 
ATOM      7  H   UNL     1       4.639  -4.686   3.368  0.00  0.00    +0.147 HD
ATOM      8  H   UNL     1       4.264  -4.433   4.986  0.00  0.00    +0.147 HD
ENDROOT
BRANCH   1  14
ATOM      9  C   UNL     1      -0.019   1.526   0.010  0.00  0.00    +0.007 C 
ATOM     10  C   UNL     1       0.002  -0.004   0.002  0.00  0.00    -0.013 C 
ATOM     11  C   UNL     1      -1.433  -0.534   0.013  0.00  0.00    +0.003 C 
ATOM     12  C   UNL     1      -1.413  -2.063   0.004  0.00  0.00    +0.001 C 
ATOM     13  C   UNL     1      -0.673  -2.570   1.244  0.00  0.00    +0.011 C 
ATOM     14  C   UNL     1       0.763  -2.041   1.233  0.00  0.00    +0.061 C 
ATOM     15  C   UNL     1       0.742  -0.511   1.242  0.00  0.00    +0.014 C 
ENDBRANCH   1  14
TORSDOF 1
