REMARK  Name = ZINC54155335
REMARK  6 active torsions:
REMARK  status: ('A' for Active; 'I' for Inactive)
REMARK    1  A    between atoms: C_1  and  C_2
REMARK    2  A    between atoms: C_2  and  C_4
REMARK    3  A    between atoms: C_2  and  C_17
REMARK    4  A    between atoms: C_4  and  N_5
REMARK    5  A    between atoms: C_6  and  C_8
REMARK    6  A    between atoms: N_18  and  O_19
REMARK                            x       y       z     vdW  Elec       q    Type
REMARK                         _______ _______ _______ _____ _____    ______ ____
ROOT
ATOM      1  N   UNL     1      -0.055  -0.114  -2.441  0.00  0.00    -0.310 N 
ATOM      2  C   UNL     1       0.387  -0.445  -3.670  0.00  0.00    +0.251 C 
ATOM      3  O   UNL     1       1.428  -1.062  -3.797  0.00  0.00    -0.270 OA
ATOM      4  H   UNL     1      -0.885   0.378  -2.339  0.00  0.00    +0.149 HD
ENDROOT
BRANCH   2   5
ATOM      5  C   UNL     1      -0.387  -0.061  -4.855  0.00  0.00    +0.074 A 
ATOM      6  C   UNL     1      -0.117  -0.304  -6.189  0.00  0.00    +0.024 A 
ATOM      7  C   UNL     1      -1.033   0.180  -7.111  0.00  0.00    -0.036 A 
ATOM      8  C   UNL     1      -2.111   0.849  -6.611  0.00  0.00    -0.006 A 
ATOM      9  S   UNL     1      -1.926   0.835  -4.951  0.00  0.00    -0.088 S 
ATOM     10  C   UNL     1      -3.231   1.464  -7.398  0.00  0.00    +0.043 C 
ATOM     11  C   UNL     1      -2.796   1.558  -8.867  0.00  0.00    +0.005 C 
ATOM     12  C   UNL     1      -2.215   0.208  -9.296  0.00  0.00    +0.005 C 
ATOM     13  C   UNL     1      -0.864  -0.015  -8.616  0.00  0.00    +0.036 C 
ENDBRANCH   2   5
BRANCH   1  14
ATOM     14  C   UNL     1       0.718  -0.497  -1.257  0.00  0.00    +0.115 C 
BRANCH  14  16
ATOM     15  C   UNL     1      -0.019   1.526   0.010  0.00  0.00    +0.017 C 
ATOM     16  C   UNL     1       0.002  -0.004   0.002  0.00  0.00    +0.069 C 
BRANCH  16  17
ATOM     17  C   UNL     1       0.731  -0.503   1.223  0.00  0.00    +0.136 C 
ATOM     18  N   UNL     1       1.609   0.246   1.802  0.00  0.00    -0.076 NA
ATOM     19  N   UNL     1       0.461  -1.758   1.721  0.00  0.00    -0.344 N 
ATOM     20  H   UNL     1      -0.199  -2.321   1.286  0.00  0.00    +0.144 HD
ATOM     21  H   UNL     1       0.930  -2.080   2.507  0.00  0.00    +0.144 HD
BRANCH  18  22
ATOM     22  O   UNL     1       2.294  -0.223   2.949  0.00  0.00    -0.408 OA
ATOM     23  H   UNL     1       2.931   0.408   3.312  0.00  0.00    +0.328 HD
ENDBRANCH  18  22
ENDBRANCH  16  17
ENDBRANCH  14  16
ENDBRANCH   1  14
TORSDOF 5
