REMARK  Name = ZINC44399193
REMARK  9 active torsions:
REMARK  status: ('A' for Active; 'I' for Inactive)
REMARK    1  A    between atoms: C_1  and  C_2
REMARK    2  A    between atoms: C_4  and  O_29
REMARK    3  A    between atoms: C_5  and  C_26
REMARK    4  A    between atoms: C_12  and  C_25
REMARK    5  A    between atoms: C_13  and  O_24
REMARK    6  A    between atoms: C_18  and  O_23
REMARK    7  A    between atoms: C_26  and  C_27
REMARK    8  A    between atoms: C_27  and  N_28
REMARK    9  A    between atoms: O_29  and  C_30
REMARK                            x       y       z     vdW  Elec       q    Type
REMARK                         _______ _______ _______ _____ _____    ______ ____
ROOT
ATOM      1  C   UNL     1       0.791   1.551  -0.538  0.00  0.00    +0.045 C 
ATOM      2  C   UNL     1       0.658   0.060  -0.362  0.00  0.00    -0.029 A 
ATOM      3  C   UNL     1       0.507  -0.758  -1.461  0.00  0.00    +0.050 A 
ATOM      4  C   UNL     1       0.382  -2.135  -1.300  0.00  0.00    +0.127 A 
ATOM      5  C   UNL     1       0.376  -2.697  -0.030  0.00  0.00    +0.035 A 
ATOM      6  C   UNL     1       0.501  -1.883   1.077  0.00  0.00    +0.149 A 
ATOM      7  C   UNL     1       0.693  -0.504   0.912  0.00  0.00    +0.105 A 
ATOM      8  C   UNL     1       0.986   0.308   2.104  0.00  0.00    +0.348 C 
ATOM      9  O   UNL     1       0.248   1.218   2.428  0.00  0.00    -0.244 OA
ATOM     10  O   UNL     1       2.081   0.027   2.827  0.00  0.00    -0.418 OA
ATOM     11  C   UNL     1       2.247  -1.182   3.430  0.00  0.00    +0.181 A 
ATOM     12  C   UNL     1       3.300  -1.244   4.348  0.00  0.00    +0.038 A 
ATOM     13  C   UNL     1       3.582  -2.407   5.036  0.00  0.00    +0.138 A 
ATOM     14  C   UNL     1       2.797  -3.546   4.810  0.00  0.00    +0.113 A 
ATOM     15  C   UNL     1       1.747  -3.477   3.891  0.00  0.00    +0.083 A 
ATOM     16  C   UNL     1       1.470  -2.306   3.202  0.00  0.00    +0.181 A 
ATOM     17  O   UNL     1       0.421  -2.363   2.334  0.00  0.00    -0.451 OA
ATOM     18  C   UNL     1       1.109  -4.843   3.879  0.00  0.00    +0.345 C 
ATOM     19  O   UNL     1       1.841  -5.644   4.811  0.00  0.00    -0.427 OA
ATOM     20  C   UNL     1       2.823  -4.907   5.360  0.00  0.00    +0.346 C 
ATOM     21  O   UNL     1       3.616  -5.309   6.189  0.00  0.00    -0.245 OA
ATOM     22  C   UNL     1       4.143  -0.019   4.589  0.00  0.00    +0.051 C 
ENDROOT
BRANCH  18  23
ATOM     23  O   UNL     1       1.195  -5.412   2.571  0.00  0.00    -0.354 OA
ATOM     24  H   UNL     1       0.804  -6.293   2.499  0.00  0.00    +0.214 HD
ENDBRANCH  18  23
BRANCH  13  25
ATOM     25  O   UNL     1       4.609  -2.447   5.923  0.00  0.00    -0.506 OA
ATOM     26  H   UNL     1       4.358  -2.209   6.826  0.00  0.00    +0.292 HD
ENDBRANCH  13  25
BRANCH   4  27
ATOM     27  O   UNL     1       0.265  -2.933  -2.392  0.00  0.00    -0.495 OA
ATOM     28  C   UNL     1       0.278  -2.291  -3.669  0.00  0.00    +0.277 C 
ENDBRANCH   4  27
BRANCH   5  29
ATOM     29  C   UNL     1       0.233  -4.188   0.138  0.00  0.00    +0.023 C 
BRANCH  29  30
ATOM     30  C   UNL     1      -1.236  -4.534   0.395  0.00  0.00    -0.082 C 
BRANCH  30  31
ATOM     31  N   UNL     1      -1.395  -5.994   0.436  0.00  0.00    +0.378 N 
ATOM     32  H   UNL     1      -2.355  -6.221   0.648  0.00  0.00    -0.090 HD
ATOM     33  H   UNL     1      -1.147  -6.385  -0.461  0.00  0.00    -0.090 HD
ATOM     34  H   UNL     1      -0.793  -6.378   1.149  0.00  0.00    -0.090 HD
ENDBRANCH  30  31
ENDBRANCH  29  30
ENDBRANCH   5  29
TORSDOF 6
