REMARK  Name = ZINC67147706
REMARK  11 active torsions:
REMARK  status: ('A' for Active; 'I' for Inactive)
REMARK    1  A    between atoms: C_1  and  C_2
REMARK    2  A    between atoms: C_6  and  C_29
REMARK    3  A    between atoms: C_7  and  O_8
REMARK    4  A    between atoms: O_8  and  C_9
REMARK    5  A    between atoms: C_9  and  C_10
REMARK    6  A    between atoms: C_10  and  C_12
REMARK    7  A    between atoms: C_10  and  N_13
REMARK    8  A    between atoms: C_14  and  C_16
REMARK    9  A    between atoms: C_16  and  C_17
REMARK   10  A    between atoms: C_18  and  C_28
REMARK   11  A    between atoms: C_25  and  C_26
REMARK                            x       y       z     vdW  Elec       q    Type
REMARK                         _______ _______ _______ _____ _____    ______ ____
ROOT
ATOM      1  N   UNL     1      -0.420   2.321   4.004  0.00  0.00    -0.309 N 
ATOM      2  C   UNL     1      -0.590   3.342   4.867  0.00  0.00    +0.218 C 
ATOM      3  O   UNL     1      -1.258   3.187   5.867  0.00  0.00    -0.275 OA
ATOM      4  H   UNL     1       0.115   2.445   3.204  0.00  0.00    +0.149 HD
ENDROOT
BRANCH   1   5
ATOM      5  C   UNL     1      -1.043   1.022   4.274  0.00  0.00    +0.107 C 
ATOM      6  C   UNL     1      -0.136   0.203   5.194  0.00  0.00    +0.031 C 
BRANCH   5   7
ATOM      7  C   UNL     1      -1.246   0.270   2.957  0.00  0.00    +0.251 C 
BRANCH   7   8
ATOM      8  O   UNL     1       0.025  -0.033   2.381  0.00  0.00    -0.490 OA
BRANCH   8  15
ATOM      9  C   UNL     1      -0.018   1.503   0.010  0.00  0.00    +0.047 C 
ATOM     10  C   UNL     1       0.002  -0.004   0.002  0.00  0.00    -0.009 A 
ATOM     11  C   UNL     1       0.006  -0.689  -1.198  0.00  0.00    +0.007 A 
ATOM     12  C   UNL     1       0.024  -2.071  -1.206  0.00  0.00    +0.001 A 
ATOM     13  C   UNL     1       0.040  -2.772  -0.014  0.00  0.00    +0.007 A 
ATOM     14  C   UNL     1       0.036  -2.092   1.188  0.00  0.00    -0.009 A 
ATOM     15  C   UNL     1       0.023  -0.705   1.199  0.00  0.00    +0.126 A 
ATOM     16  C   UNL     1       0.052  -2.856   2.487  0.00  0.00    +0.047 C 
ENDBRANCH   8  15
ENDBRANCH   7   8
ENDBRANCH   5   7
ENDBRANCH   1   5
BRANCH   2  17
ATOM     17  C   UNL     1       0.051   4.677   4.589  0.00  0.00    +0.134 C 
BRANCH  17  18
ATOM     18  C   UNL     1      -0.291   5.639   5.697  0.00  0.00    +0.004 A 
ATOM     19  C   UNL     1      -1.492   6.357   5.666  0.00  0.00    +0.047 A 
ATOM     20  N   UNL     1      -1.788   7.196   6.634  0.00  0.00    -0.216 NA
ATOM     21  C   UNL     1      -0.953   7.379   7.663  0.00  0.00    +0.255 A 
ATOM     22  N   UNL     1      -1.018   8.151   8.742  0.00  0.00    -0.176 NA
ATOM     23  C   UNL     1       0.075   7.981   9.483  0.00  0.00    +0.234 A 
ATOM     24  N   UNL     1       0.865   7.101   8.902  0.00  0.00    -0.128 NA
ATOM     25  N   UNL     1       0.227   6.693   7.723  0.00  0.00    -0.199 N 
ATOM     26  C   UNL     1       0.560   5.815   6.742  0.00  0.00    +0.049 A 
ATOM     27  C   UNL     1       1.858   5.051   6.807  0.00  0.00    +0.066 C 
ATOM     28  N   UNL     1       0.342   8.632  10.684  0.00  0.00    -0.326 N 
ATOM     29  C   UNL     1      -2.450   6.168   4.518  0.00  0.00    +0.066 C 
ATOM     30  H   UNL     1      -0.296   9.268  11.043  0.00  0.00    +0.145 HD
ATOM     31  H   UNL     1       1.166   8.449  11.162  0.00  0.00    +0.145 HD
ENDBRANCH  17  18
ENDBRANCH   2  17
TORSDOF 6
