REMARK  Name = ZINC07736275
REMARK  7 active torsions:
REMARK  status: ('A' for Active; 'I' for Inactive)
REMARK    1  A    between atoms: C_1  and  C_2
REMARK    2  A    between atoms: C_5  and  C_9
REMARK    3  A    between atoms: C_7  and  C_8
REMARK    4  A    between atoms: C_12  and  S_14
REMARK    5  A    between atoms: S_14  and  C_15
REMARK    6  A    between atoms: C_15  and  C_17
REMARK    7  A    between atoms: C_15  and  C_18
REMARK                            x       y       z     vdW  Elec       q    Type
REMARK                         _______ _______ _______ _____ _____    ______ ____
ROOT
ATOM      1  C   UNL     1      -0.013   1.086   0.008  0.00  0.00    +0.139 C 
ATOM      2  C   UNL     1      -0.753   1.593  -1.232  0.00  0.00    +0.029 C 
ENDROOT
BRANCH   1   3
ATOM      3  C   UNL     1       1.401   1.607  -0.003  0.00  0.00    +0.233 C 
ATOM      4  O   UNL     1       1.698   2.569   0.675  0.00  0.00    -0.274 OA
ATOM      5  N   UNL     1       2.336   1.006  -0.765  0.00  0.00    -0.260 N 
ATOM      6  C   UNL     1       2.001  -0.161  -1.596  0.00  0.00    +0.209 C 
ATOM      7  C   UNL     1       3.112  -1.175  -1.488  0.00  0.00    +0.235 C 
ATOM      8  O   UNL     1       2.861  -2.354  -1.621  0.00  0.00    -0.274 OA
ATOM      9  N   UNL     1       4.378  -0.787  -1.246  0.00  0.00    -0.283 N 
ATOM     10  C   UNL     1       4.687   0.561  -1.040  0.00  0.00    +0.055 A 
ATOM     11  C   UNL     1       3.658   1.476  -0.797  0.00  0.00    +0.058 A 
ATOM     12  C   UNL     1       3.945   2.813  -0.589  0.00  0.00    +0.025 A 
ATOM     13  C   UNL     1       5.258   3.247  -0.631  0.00  0.00    +0.002 A 
ATOM     14  C   UNL     1       6.280   2.349  -0.880  0.00  0.00    +0.002 A 
ATOM     15  C   UNL     1       6.000   1.002  -1.077  0.00  0.00    +0.025 A 
ATOM     16  H   UNL     1       5.085  -1.451  -1.215  0.00  0.00    +0.155 HD
ENDBRANCH   1   3
BRANCH   1  17
ATOM     17  S   UNL     1      -0.860   1.669   1.497  0.00  0.00    -0.053 S 
BRANCH  17  21
ATOM     18  C   UNL     1      -4.389   0.067   1.673  0.00  0.00    +0.249 A 
ATOM     19  N   UNL     1      -3.916  -0.446   0.563  0.00  0.00    -0.106 NA
ATOM     20  N   UNL     1      -2.728   0.003   0.357  0.00  0.00    -0.101 NA
ATOM     21  C   UNL     1      -2.391   0.813   1.334  0.00  0.00    +0.278 A 
ATOM     22  O   UNL     1      -3.433   0.874   2.184  0.00  0.00    -0.411 OA
BRANCH  18  27
ATOM     23  C   UNL     1      -9.577  -0.936   3.948  0.00  0.00    +0.044 C 
ATOM     24  C   UNL     1      -8.218  -0.674   3.352  0.00  0.00    -0.047 A 
ATOM     25  C   UNL     1      -7.339   0.182   3.992  0.00  0.00    +0.004 A 
ATOM     26  C   UNL     1      -6.092   0.423   3.455  0.00  0.00    +0.013 A 
ATOM     27  C   UNL     1      -5.721  -0.191   2.257  0.00  0.00    +0.039 A 
ATOM     28  C   UNL     1      -6.612  -1.054   1.617  0.00  0.00    +0.016 A 
ATOM     29  C   UNL     1      -7.855  -1.290   2.168  0.00  0.00    -0.047 A 
ATOM     30  C   UNL     1      -8.819  -2.221   1.479  0.00  0.00    +0.044 C 
ENDBRANCH  18  27
ENDBRANCH  17  21
ENDBRANCH   1  17
TORSDOF 4
