REMARK  Name = ZINC40795473
REMARK  7 active torsions:
REMARK  status: ('A' for Active; 'I' for Inactive)
REMARK    1  A    between atoms: C_4  and  O_7
REMARK    2  A    between atoms: O_7  and  C_8
REMARK    3  A    between atoms: C_8  and  C_9
REMARK    4  A    between atoms: N_11  and  N_12
REMARK    5  A    between atoms: C_14  and  N_30
REMARK    6  A    between atoms: C_15  and  S_19
REMARK    7  A    between atoms: S_19  and  C_20
REMARK                            x       y       z     vdW  Elec       q    Type
REMARK                         _______ _______ _______ _____ _____    ______ ____
ROOT
ATOM      1  N   UNL     1       6.413  -4.494  -0.471  0.00  0.00    -0.247 N 
ATOM      2  C   UNL     1       6.625  -5.867  -0.439  0.00  0.00    +0.160 A 
ATOM      3  C   UNL     1       7.917  -6.382  -0.313  0.00  0.00    +0.099 A 
ATOM      4  C   UNL     1       8.073  -7.769  -0.285  0.00  0.00    +0.127 A 
ATOM      5  N   UNL     1       6.993  -8.542  -0.378  0.00  0.00    -0.227 NA
ATOM      6  C   UNL     1       5.791  -8.015  -0.496  0.00  0.00    +0.224 A 
ATOM      7  N   UNL     1       5.599  -6.712  -0.521  0.00  0.00    -0.218 NA
ATOM      8  H   UNL     1       7.166  -3.885  -0.410  0.00  0.00    +0.172 HD
ENDROOT
BRANCH   1  11
ATOM      9  C   UNL     1       4.906  -2.657  -0.623  0.00  0.00    +0.267 C 
ATOM     10  O   UNL     1       5.847  -1.896  -0.547  0.00  0.00    -0.271 OA
ATOM     11  N   UNL     1       5.112  -3.989  -0.592  0.00  0.00    -0.232 N 
ATOM     12  H   UNL     1       4.359  -4.598  -0.652  0.00  0.00    +0.173 HD
BRANCH   9  13
ATOM     13  C   UNL     1       3.506  -2.114  -0.753  0.00  0.00    +0.326 C 
BRANCH  13  14
ATOM     14  O   UNL     1       3.549  -0.686  -0.764  0.00  0.00    -0.483 OA
BRANCH  14  18
ATOM     15  C   UNL     1      -0.055   1.293  -1.105  0.00  0.00    +0.000 A 
ATOM     16  C   UNL     1       1.121   2.013  -1.007  0.00  0.00    +0.004 A 
ATOM     17  C   UNL     1       2.329   1.353  -0.892  0.00  0.00    +0.045 A 
ATOM     18  C   UNL     1       2.362  -0.034  -0.876  0.00  0.00    +0.121 A 
ATOM     19  C   UNL     1       1.180  -0.754  -0.974  0.00  0.00    +0.045 A 
ATOM     20  C   UNL     1      -0.025  -0.089  -1.088  0.00  0.00    +0.004 A 
ENDBRANCH  14  18
ENDBRANCH  13  14
ENDBRANCH   9  13
ENDBRANCH   1  11
BRANCH   3  21
ATOM     21  N   UNL     1       9.027  -5.529  -0.218  0.00  0.00    -0.353 N 
ATOM     22  H   UNL     1       8.903  -4.567  -0.239  0.00  0.00    +0.142 HD
ATOM     23  H   UNL     1       9.919  -5.901  -0.131  0.00  0.00    +0.142 HD
ENDBRANCH   3  21
BRANCH   4  24
ATOM     24  S   UNL     1       9.675  -8.486  -0.129  0.00  0.00    -0.066 S 
BRANCH  24  25
ATOM     25  C   UNL     1       9.358 -10.213   0.013  0.00  0.00    +0.040 A 
ATOM     26  C   UNL     1       9.586 -11.052  -1.058  0.00  0.00    +0.017 A 
ATOM     27  C   UNL     1       9.339 -12.417  -0.960  0.00  0.00    +0.002 A 
ATOM     28  C   UNL     1       8.866 -12.963   0.195  0.00  0.00    +0.010 A 
ATOM     29  C   UNL     1       8.621 -12.142   1.309  0.00  0.00    +0.001 A 
ATOM     30  C   UNL     1       8.873 -10.751   1.226  0.00  0.00    +0.085 A 
ATOM     31  N   UNL     1       8.646  -9.969   2.284  0.00  0.00    -0.254 NA
ATOM     32  C   UNL     1       8.196 -10.462   3.412  0.00  0.00    +0.111 A 
ATOM     33  C   UNL     1       7.933 -11.822   3.564  0.00  0.00    +0.020 A 
ATOM     34  C   UNL     1       8.132 -12.676   2.517  0.00  0.00    +0.011 A 
ENDBRANCH  24  25
ENDBRANCH   4  24
TORSDOF 7
