REMARK  Name = ZINC15547262
REMARK  4 active torsions:
REMARK  status: ('A' for Active; 'I' for Inactive)
REMARK    1  A    between atoms: C_1  and  C_2
REMARK    2  A    between atoms: C_2  and  C_3
REMARK    3  A    between atoms: N_12  and  C_13
REMARK    4  A    between atoms: C_13  and  C_14
REMARK                            x       y       z     vdW  Elec       q    Type
REMARK                         _______ _______ _______ _____ _____    ______ ____
ROOT
ATOM      1  C   UNL     1       2.196   1.261   1.392  0.00  0.00    +0.159 C 
ENDROOT
BRANCH   1   2
ATOM      2  C   UNL     1       3.616   1.657   1.082  0.00  0.00    +0.126 A 
ATOM      3  N   UNL     1       4.473   0.715   0.798  0.00  0.00    -0.194 NA
ATOM      4  C   UNL     1       5.756   1.023   0.513  0.00  0.00    +0.288 A 
ATOM      5  O   UNL     1       6.562   0.144   0.246  0.00  0.00    -0.265 OA
ATOM      6  C   UNL     1       6.148   2.367   0.530  0.00  0.00    +0.102 A 
ATOM      7  C   UNL     1       5.236   3.385   0.834  0.00  0.00    +0.060 A 
ATOM      8  N   UNL     1       3.933   2.959   1.107  0.00  0.00    -0.341 N 
ATOM      9  C   UNL     1       5.747   4.682   0.818  0.00  0.00    +0.034 A 
ATOM     10  C   UNL     1       7.050   4.897   0.522  0.00  0.00    +0.048 A 
ATOM     11  S   UNL     1       7.661   3.244   0.237  0.00  0.00    -0.090 S 
ATOM     12  H   UNL     1       3.251   3.614   1.322  0.00  0.00    +0.167 HD
ENDBRANCH   1   2
BRANCH   1  21
ATOM     13  C   UNL     1       0.655  -0.598   1.219  0.00  0.00    +0.088 C 
ATOM     14  C   UNL     1       0.577  -2.121   1.161  0.00  0.00    -0.020 A 
ATOM     15  C   UNL     1      -0.536  -2.825   0.709  0.00  0.00    +0.013 A 
ATOM     16  C   UNL     1      -0.519  -4.178   0.691  0.00  0.00    +0.046 A 
ATOM     17  S   UNL     1       1.113  -4.535   1.327  0.00  0.00    -0.101 S 
ATOM     18  C   UNL     1       1.644  -2.864   1.569  0.00  0.00    -0.004 A 
ATOM     19  C   UNL     1       2.943  -2.347   2.095  0.00  0.00    +0.058 C 
ATOM     20  C   UNL     1       2.753  -0.858   2.431  0.00  0.00    +0.090 C 
ATOM     21  N   UNL     1       2.065  -0.200   1.310  0.00  0.00    -0.288 NA
BRANCH  13  23
ATOM     22  C   UNL     1       0.839  -0.453  -1.269  0.00  0.00    +0.006 C 
ATOM     23  C   UNL     1       0.034  -0.004  -0.048  0.00  0.00    +0.020 C 
ENDBRANCH  13  23
ENDBRANCH   1  21
TORSDOF 3
