REMARK  Name = ZINC18115372
REMARK  6 active torsions:
REMARK  status: ('A' for Active; 'I' for Inactive)
REMARK    1  A    between atoms: C_10  and  C_19
REMARK    2  A    between atoms: C_13  and  C_15
REMARK    3  A    between atoms: C_15  and  C_16
REMARK    4  A    between atoms: C_16  and  C_17
REMARK    5  A    between atoms: C_22  and  C_25
REMARK    6  A    between atoms: C_30  and  C_33
REMARK                            x       y       z     vdW  Elec       q    Type
REMARK                         _______ _______ _______ _____ _____    ______ ____
ROOT
ATOM      1  C   UNL     1      -4.999   4.869  -0.536  0.00  0.00    +0.002 A 
ATOM      2  C   UNL     1      -4.269   4.506  -1.654  0.00  0.00    +0.002 A 
ATOM      3  C   UNL     1      -2.963   4.936  -1.808  0.00  0.00    +0.025 A 
ATOM      4  C   UNL     1      -2.389   5.740  -0.835  0.00  0.00    +0.058 A 
ATOM      5  C   UNL     1      -3.139   6.137   0.262  0.00  0.00    +0.053 A 
ATOM      6  C   UNL     1      -4.436   5.687   0.428  0.00  0.00    +0.025 A 
ATOM      7  N   UNL     1      -2.539   7.027   1.146  0.00  0.00    -0.316 N 
ATOM      8  C   UNL     1      -1.443   6.754   1.902  0.00  0.00    +0.017 C 
ATOM      9  C   UNL     1      -0.320   6.172   1.447  0.00  0.00    +0.037 C 
ATOM     10  C   UNL     1      -0.075   5.704   0.032  0.00  0.00    +0.147 C 
ATOM     11  N   UNL     1      -1.061   6.154  -0.926  0.00  0.00    -0.258 N 
ATOM     12  C   UNL     1      -0.691   6.985  -1.921  0.00  0.00    +0.221 C 
ATOM     13  O   UNL     1       0.463   7.350  -2.008  0.00  0.00    -0.275 OA
ATOM     14  C   UNL     1       0.770   5.947   2.321  0.00  0.00    +0.163 C 
ATOM     15  O   UNL     1       1.781   5.438   1.878  0.00  0.00    -0.292 OA
ATOM     16  C   UNL     1       0.720   6.314   3.774  0.00  0.00    +0.088 C 
ATOM     17  C   UNL     1      -0.738   6.246   4.242  0.00  0.00    +0.032 C 
ATOM     18  C   UNL     1      -1.555   7.183   3.356  0.00  0.00    +0.059 C 
ATOM     19  H   UNL     1      -2.933   7.909   1.230  0.00  0.00    +0.152 HD
ENDROOT
BRANCH  17  20
ATOM     20  C   UNL     1      -0.836   6.689   5.680  0.00  0.00    -0.043 A 
ATOM     21  C   UNL     1      -0.396   7.947   6.046  0.00  0.00    +0.007 A 
ATOM     22  C   UNL     1      -0.489   8.356   7.362  0.00  0.00    +0.038 A 
ATOM     23  C   UNL     1      -1.013   7.501   8.317  0.00  0.00    +0.123 A 
ATOM     24  C   UNL     1      -1.448   6.239   7.950  0.00  0.00    +0.038 A 
ATOM     25  C   UNL     1      -1.359   5.834   6.632  0.00  0.00    +0.007 A 
ATOM     26  F   UNL     1      -1.100   7.898   9.605  0.00  0.00    -0.205 F 
ENDBRANCH  17  20
BRANCH  10  27
ATOM     27  C   UNL     1      -0.055   4.197   0.025  0.00  0.00    -0.022 A 
ATOM     28  C   UNL     1      -1.202   3.491   0.342  0.00  0.00    +0.007 A 
ATOM     29  C   UNL     1      -1.190   2.112   0.337  0.00  0.00    +0.019 A 
ATOM     30  C   UNL     1      -0.017   1.428   0.011  0.00  0.00    +0.052 A 
ATOM     31  C   UNL     1       1.138   2.147  -0.302  0.00  0.00    +0.019 A 
ATOM     32  C   UNL     1       1.111   3.526  -0.299  0.00  0.00    +0.007 A 
BRANCH  30  33
ATOM     33  C   UNL     1       0.002  -0.004   0.004  0.00  0.00    +0.099 C 
ATOM     34  N   UNL     1       0.018  -1.140  -0.002  0.00  0.00    -0.191 NA
ENDBRANCH  30  33
ENDBRANCH  10  27
BRANCH  12  35
ATOM     35  C   UNL     1      -1.710   7.460  -2.925  0.00  0.00    +0.107 C 
BRANCH  35  36
ATOM     36  C   UNL     1      -1.034   8.385  -3.938  0.00  0.00    +0.134 C 
BRANCH  36  37
ATOM     37  C   UNL     1      -2.052   8.861  -4.942  0.00  0.00    +0.356 C 
ATOM     38  O   UNL     1      -3.201   8.497  -4.855  0.00  0.00    -0.246 OA
ATOM     39  O   UNL     1      -1.683   9.688  -5.933  0.00  0.00    -0.246 OA
ENDBRANCH  36  37
ENDBRANCH  35  36
ENDBRANCH  12  35
TORSDOF 6
