REMARK  Name = ZINC66390507
REMARK  8 active torsions:
REMARK  status: ('A' for Active; 'I' for Inactive)
REMARK    1  A    between atoms: C_1  and  C_2
REMARK    2  A    between atoms: C_2  and  N_3
REMARK    3  A    between atoms: C_7  and  C_9
REMARK    4  A    between atoms: C_9  and  C_11
REMARK    5  A    between atoms: C_9  and  N_12
REMARK    6  A    between atoms: N_12  and  C_13
REMARK    7  A    between atoms: C_13  and  C_14
REMARK    8  A    between atoms: C_14  and  C_20
REMARK                            x       y       z     vdW  Elec       q    Type
REMARK                         _______ _______ _______ _____ _____    ______ ____
ROOT
ATOM      1  N   UNL     1      -4.415  -5.667  -0.059  0.00  0.00    +0.387 N 
ATOM      2  H   UNL     1      -3.910  -6.016  -0.859  0.00  0.00    -0.085 HD
ATOM      3  H   UNL     1      -3.983  -6.007   0.787  0.00  0.00    -0.085 HD
ENDROOT
BRANCH   1   4
ATOM      4  C   UNL     1      -4.388  -4.198  -0.065  0.00  0.00    +0.013 C 
ATOM      5  C   UNL     1      -5.045  -3.670   1.212  0.00  0.00    -0.004 C 
BRANCH   4  10
ATOM      6  N   UNL     1      -1.141  -0.656  -0.219  0.00  0.00    -0.299 N 
ATOM      7  C   UNL     1      -1.411  -1.977  -0.202  0.00  0.00    +0.306 C 
ATOM      8  O   UNL     1      -0.503  -2.784  -0.238  0.00  0.00    -0.252 OA
ATOM      9  N   UNL     1      -2.689  -2.402  -0.145  0.00  0.00    -0.242 N 
ATOM     10  C   UNL     1      -2.959  -3.722  -0.129  0.00  0.00    +0.206 C 
ATOM     11  O   UNL     1      -2.054  -4.527  -0.165  0.00  0.00    -0.277 OA
ATOM     12  H   UNL     1      -1.865  -0.012  -0.190  0.00  0.00    +0.150 HD
ATOM     13  H   UNL     1      -3.413  -1.758  -0.116  0.00  0.00    +0.159 HD
BRANCH   6  15
ATOM     14  C   UNL     1       0.277   1.336  -0.287  0.00  0.00    +0.024 C 
ATOM     15  C   UNL     1       0.248  -0.194  -0.280  0.00  0.00    +0.102 C 
ENDBRANCH   6  15
ENDBRANCH   4  10
ENDBRANCH   1   4
BRANCH   1  16
ATOM     16  C   UNL     1      -5.808  -6.131  -0.118  0.00  0.00    -0.070 C 
BRANCH  16  17
ATOM     17  C   UNL     1      -5.833  -7.656  -0.230  0.00  0.00    -0.015 C 
ATOM     18  C   UNL     1      -7.272  -8.131  -0.450  0.00  0.00    +0.038 C 
ATOM     19  C   UNL     1      -7.788  -7.571  -1.779  0.00  0.00    +0.160 C 
ATOM     20  O   UNL     1      -6.926  -7.992  -2.838  0.00  0.00    -0.380 OA
ATOM     21  C   UNL     1      -5.578  -7.538  -2.710  0.00  0.00    +0.160 C 
ATOM     22  C   UNL     1      -4.973  -8.097  -1.419  0.00  0.00    +0.038 C 
BRANCH  17  23
ATOM     23  C   UNL     1      -5.289  -8.264   1.038  0.00  0.00    -0.043 A 
ATOM     24  C   UNL     1      -5.012  -7.458   2.127  0.00  0.00    +0.007 A 
ATOM     25  C   UNL     1      -4.514  -8.014   3.290  0.00  0.00    +0.038 A 
ATOM     26  C   UNL     1      -4.291  -9.378   3.364  0.00  0.00    +0.123 A 
ATOM     27  C   UNL     1      -4.569 -10.184   2.273  0.00  0.00    +0.038 A 
ATOM     28  C   UNL     1      -5.072  -9.627   1.113  0.00  0.00    +0.007 A 
ATOM     29  F   UNL     1      -3.804  -9.922   4.500  0.00  0.00    -0.205 F 
ENDBRANCH  17  23
ENDBRANCH  16  17
ENDBRANCH   1  16
TORSDOF 6
