REMARK  Name = ZINC18284295
REMARK  8 active torsions:
REMARK  status: ('A' for Active; 'I' for Inactive)
REMARK    1  A    between atoms: C_1  and  C_2
REMARK    2  A    between atoms: C_8  and  C_30
REMARK    3  A    between atoms: C_10  and  C_28
REMARK    4  A    between atoms: C_10  and  C_29
REMARK    5  A    between atoms: C_12  and  C_14
REMARK    6  A    between atoms: C_14  and  S_15
REMARK    7  A    between atoms: S_15  and  C_16
REMARK    8  A    between atoms: C_19  and  C_22
REMARK                            x       y       z     vdW  Elec       q    Type
REMARK                         _______ _______ _______ _____ _____    ______ ____
ROOT
ATOM      1  C   UNL     1      -0.827   1.409   1.704  0.00  0.00    +0.044 C 
ATOM      2  C   UNL     1      -0.685  -0.060   1.399  0.00  0.00    -0.050 A 
ATOM      3  C   UNL     1      -0.820  -0.508   0.096  0.00  0.00    +0.005 A 
ATOM      4  C   UNL     1      -0.690  -1.853  -0.200  0.00  0.00    +0.024 A 
ATOM      5  C   UNL     1      -0.424  -2.755   0.813  0.00  0.00    +0.045 A 
ATOM      6  C   UNL     1      -0.289  -2.305   2.136  0.00  0.00    -0.001 A 
ATOM      7  C   UNL     1      -0.415  -0.949   2.421  0.00  0.00    +0.013 A 
ATOM      8  C   UNL     1      -0.015  -3.295   3.196  0.00  0.00    -0.043 C 
ATOM      9  C   UNL     1       0.403  -4.511   2.869  0.00  0.00    +0.002 C 
ATOM     10  C   UNL     1       0.618  -4.899   1.430  0.00  0.00    +0.055 C 
ATOM     11  N   UNL     1      -0.278  -4.123   0.562  0.00  0.00    -0.261 N 
ATOM     12  C   UNL     1      -0.944  -4.715  -0.450  0.00  0.00    +0.231 C 
ATOM     13  O   UNL     1      -0.863  -5.915  -0.609  0.00  0.00    -0.274 OA
ATOM     14  C   UNL     1       2.071  -4.618   1.040  0.00  0.00    +0.036 C 
ATOM     15  C   UNL     1       0.327  -6.391   1.257  0.00  0.00    +0.036 C 
ATOM     16  C   UNL     1      -0.207  -2.925   4.645  0.00  0.00    +0.044 C 
ENDROOT
BRANCH  12  17
ATOM     17  C   UNL     1      -1.788  -3.886  -1.383  0.00  0.00    +0.173 C 
BRANCH  17  18
ATOM     18  S   UNL     1      -2.924  -4.969  -2.293  0.00  0.00    -0.077 S 
BRANCH  18  19
ATOM     19  C   UNL     1      -3.828  -3.865  -3.327  0.00  0.00    +0.185 A 
ATOM     20  N   UNL     1      -3.674  -2.560  -3.386  0.00  0.00    -0.201 NA
ATOM     21  H   UNL     1      -5.126  -5.107  -4.381  0.00  0.00    +0.191 HD
ATOM     22  C   UNL     1      -4.529  -2.045  -4.281  0.00  0.00    +0.182 A 
ATOM     23  N   UNL     1      -5.238  -3.021  -4.803  0.00  0.00    -0.152 NA
ATOM     24  N   UNL     1      -4.798  -4.212  -4.203  0.00  0.00    -0.253 N 
BRANCH  22  25
ATOM     25  C   UNL     1      -4.655  -0.607  -4.626  0.00  0.00    +0.021 A 
ATOM     26  C   UNL     1      -3.838   0.335  -4.004  0.00  0.00    +0.011 A 
ATOM     27  C   UNL     1      -3.960   1.671  -4.329  0.00  0.00    +0.001 A 
ATOM     28  C   UNL     1      -4.889   2.075  -5.270  0.00  0.00    +0.000 A 
ATOM     29  C   UNL     1      -5.702   1.144  -5.891  0.00  0.00    +0.001 A 
ATOM     30  C   UNL     1      -5.586  -0.196  -5.578  0.00  0.00    +0.011 A 
ENDBRANCH  22  25
ENDBRANCH  18  19
ENDBRANCH  17  18
ENDBRANCH  12  17
TORSDOF 4
