REMARK  Name = ZINC04163238
REMARK  4 active torsions:
REMARK  status: ('A' for Active; 'I' for Inactive)
REMARK    1  A    between atoms: C_10  and  C_13
REMARK    2  A    between atoms: C_13  and  C_14
REMARK    3  A    between atoms: N_16  and  C_17
REMARK    4  A    between atoms: C_20  and  N_24
REMARK                            x       y       z     vdW  Elec       q    Type
REMARK                         _______ _______ _______ _____ _____    ______ ____
ROOT
ATOM      1  C   UNL     1      -1.091  -4.863   0.089  0.00  0.00    +0.219 C 
ATOM      2  O   UNL     1      -2.152  -4.276   0.103  0.00  0.00    -0.275 OA
ATOM      3  N   UNL     1       0.061  -4.171  -0.020  0.00  0.00    -0.285 N 
ATOM      4  H   UNL     1       0.904  -4.643  -0.108  0.00  0.00    +0.155 HD
ENDROOT
BRANCH   3   5
ATOM      5  C   UNL     1       0.041  -2.772  -0.006  0.00  0.00    +0.036 A 
ATOM      6  C   UNL     1      -0.903  -2.097   0.757  0.00  0.00    +0.026 A 
ATOM      7  C   UNL     1      -0.922  -0.717   0.769  0.00  0.00    +0.037 A 
ATOM      8  C   UNL     1      -0.001  -0.004   0.023  0.00  0.00    +0.161 A 
ATOM      9  C   UNL     1       0.938  -0.673  -0.744  0.00  0.00    +0.155 A 
ATOM     10  C   UNL     1       0.964  -2.056  -0.756  0.00  0.00    +0.064 A 
ATOM     11  F   UNL     1       1.833   0.025  -1.476  0.00  0.00    -0.203 F 
BRANCH   8  12
ATOM     12  N   UNL     1      -0.024   1.476   0.038  0.00  0.00    +0.059 N 
ATOM     13  O   UNL     1      -0.853   2.065   0.708  0.00  0.00    -0.126 OA
ATOM     14  O   UNL     1       0.789   2.104  -0.615  0.00  0.00    -0.126 OA
ENDBRANCH   8  12
ENDBRANCH   3   5
BRANCH   1  15
ATOM     15  C   UNL     1      -1.060  -6.366   0.195  0.00  0.00    +0.120 C 
BRANCH  15  25
ATOM     16  C   UNL     1      -1.729  -9.720  -4.040  0.00  0.00    +0.002 A 
ATOM     17  C   UNL     1      -2.161  -8.509  -4.548  0.00  0.00    +0.001 A 
ATOM     18  C   UNL     1      -2.660  -7.543  -3.694  0.00  0.00    +0.016 A 
ATOM     19  C   UNL     1      -2.722  -7.789  -2.333  0.00  0.00    +0.030 A 
ATOM     20  C   UNL     1      -2.267  -9.001  -1.810  0.00  0.00    +0.047 A 
ATOM     21  C   UNL     1      -1.784  -9.969  -2.683  0.00  0.00    +0.024 A 
ATOM     22  N   UNL     1      -2.308  -9.271  -0.445  0.00  0.00    -0.284 N 
ATOM     23  C   UNL     1      -2.459  -8.388   0.536  0.00  0.00    +0.231 C 
ATOM     24  O   UNL     1      -2.579  -8.800   1.670  0.00  0.00    -0.274 OA
ATOM     25  C   UNL     1      -2.490  -6.899   0.307  0.00  0.00    +0.146 C 
ATOM     26  S   UNL     1      -3.389  -6.573  -1.240  0.00  0.00    -0.110 S 
ATOM     27  H   UNL     1      -2.217 -10.201  -0.183  0.00  0.00    +0.155 HD
ENDBRANCH  15  25
ENDBRANCH   1  15
TORSDOF 4
