REMARK  Name = ZINC28056460
REMARK  5 active torsions:
REMARK  status: ('A' for Active; 'I' for Inactive)
REMARK    1  A    between atoms: C_1  and  C_2
REMARK    2  A    between atoms: C_6  and  C_8
REMARK    3  A    between atoms: C_25  and  C_27
REMARK    4  A    between atoms: C_31  and  O_33
REMARK    5  A    between atoms: O_33  and  C_34
REMARK                            x       y       z     vdW  Elec       q    Type
REMARK                         _______ _______ _______ _____ _____    ______ ____
ROOT
ATOM      1  C   UNL     1       2.490   1.047  -0.016  0.00  0.00    +0.234 C 
ATOM      2  C   UNL     1       2.804   0.620  -1.431  0.00  0.00    +0.025 C 
ATOM      3  C   UNL     1       2.352  -0.555  -1.873  0.00  0.00    +0.050 C 
ATOM      4  C   UNL     1       1.569  -1.404  -0.943  0.00  0.00    +0.038 A 
ATOM      5  C   UNL     1       0.788  -2.457  -1.403  0.00  0.00    +0.013 A 
ATOM      6  C   UNL     1       0.075  -3.221  -0.499  0.00  0.00    +0.001 A 
ATOM      7  C   UNL     1       0.138  -2.941   0.855  0.00  0.00    +0.004 A 
ATOM      8  C   UNL     1       0.914  -1.896   1.322  0.00  0.00    +0.046 A 
ATOM      9  C   UNL     1       1.633  -1.123   0.429  0.00  0.00    +0.131 A 
ATOM     10  O   UNL     1       2.405  -0.087   0.846  0.00  0.00    -0.479 OA
ATOM     11  N   UNL     1       2.584  -1.004  -3.178  0.00  0.00    -0.282 N 
ATOM     12  C   UNL     1       3.067  -0.080  -4.090  0.00  0.00    +0.240 A 
ATOM     13  N   UNL     1       3.162  -0.123  -5.388  0.00  0.00    -0.092 NA
ATOM     14  N   UNL     1       3.671   0.974  -5.835  0.00  0.00    -0.021 NA
ATOM     15  N   UNL     1       3.933   1.780  -4.858  0.00  0.00    -0.042 NA
ATOM     16  N   UNL     1       3.554   1.123  -3.688  0.00  0.00    -0.201 N 
ATOM     17  C   UNL     1       3.627   1.544  -2.296  0.00  0.00    +0.174 C 
ATOM     18  H   UNL     1       2.384  -2.053  -3.443  0.00  0.00    +0.155 HD
ENDROOT
BRANCH   1  24
ATOM     19  C   UNL     1      -0.072   5.339   0.226  0.00  0.00    +0.044 C 
ATOM     20  C   UNL     1      -0.051   3.837   0.116  0.00  0.00    -0.050 A 
ATOM     21  C   UNL     1      -1.238   3.133   0.029  0.00  0.00    +0.003 A 
ATOM     22  C   UNL     1      -1.218   1.755  -0.076  0.00  0.00    +0.001 A 
ATOM     23  C   UNL     1      -0.012   1.079  -0.085  0.00  0.00    +0.007 A 
ATOM     24  C   UNL     1       1.175   1.783   0.000  0.00  0.00    -0.003 A 
ATOM     25  C   UNL     1       1.155   3.162   0.101  0.00  0.00    +0.011 A 
ENDBRANCH   1  24
BRANCH  17  26
ATOM     26  C   UNL     1       5.061   1.509  -1.837  0.00  0.00    -0.015 A 
ATOM     27  C   UNL     1       5.767   0.320  -1.865  0.00  0.00    +0.006 A 
ATOM     28  C   UNL     1       7.084   0.284  -1.446  0.00  0.00    +0.004 A 
ATOM     29  C   UNL     1       7.698   1.438  -0.997  0.00  0.00    +0.045 A 
ATOM     30  C   UNL     1       6.993   2.631  -0.968  0.00  0.00    +0.120 A 
ATOM     31  C   UNL     1       5.673   2.665  -1.394  0.00  0.00    +0.051 A 
BRANCH  30  32
ATOM     32  O   UNL     1       7.595   3.767  -0.527  0.00  0.00    -0.495 OA
ATOM     33  C   UNL     1       8.958   3.659  -0.110  0.00  0.00    +0.277 C 
ENDBRANCH  30  32
ENDBRANCH  17  26
TORSDOF 3
