REMARK  Name = ZINC06456061
REMARK  7 active torsions:
REMARK  status: ('A' for Active; 'I' for Inactive)
REMARK    1  A    between atoms: C_1  and  C_2
REMARK    2  A    between atoms: C_2  and  C_4
REMARK    3  A    between atoms: C_2  and  O_11
REMARK    4  A    between atoms: N_9  and  C_10
REMARK    5  A    between atoms: O_11  and  C_12
REMARK    6  A    between atoms: C_12  and  C_14
REMARK    7  A    between atoms: C_27  and  C_28
REMARK                            x       y       z     vdW  Elec       q    Type
REMARK                         _______ _______ _______ _____ _____    ______ ____
ROOT
ATOM      1  C   UNL     1      -3.306  -1.236   1.305  0.00  0.00    +0.073 A 
ATOM      2  C   UNL     1      -3.584  -2.673   1.333  0.00  0.00    +0.015 A 
ATOM      3  C   UNL     1      -2.557  -3.619   1.279  0.00  0.00    +0.011 A 
ATOM      4  C   UNL     1      -2.862  -4.948   1.308  0.00  0.00    +0.001 A 
ATOM      5  C   UNL     1      -4.186  -5.374   1.391  0.00  0.00    +0.002 A 
ATOM      6  C   UNL     1      -5.209  -4.479   1.457  0.00  0.00    +0.028 A 
ATOM      7  C   UNL     1      -4.933  -3.098   1.424  0.00  0.00    +0.072 A 
ATOM      8  N   UNL     1      -5.914  -2.200   1.470  0.00  0.00    -0.247 NA
ATOM      9  C   UNL     1      -5.695  -0.888   1.440  0.00  0.00    +0.072 A 
ATOM     10  C   UNL     1      -4.390  -0.372   1.357  0.00  0.00    -0.007 A 
ATOM     11  C   UNL     1      -4.438   1.136   1.341  0.00  0.00    +0.043 C 
ATOM     12  C   UNL     1      -5.922   1.519   1.423  0.00  0.00    +0.042 C 
ATOM     13  C   UNL     1      -6.674   0.213   1.484  0.00  0.00    -0.018 C 
ATOM     14  C   UNL     1      -8.014   0.075   1.564  0.00  0.00    +0.052 C 
ENDROOT
BRANCH  14  15
ATOM     15  C   UNL     1      -8.870   1.261   1.600  0.00  0.00    +0.128 A 
ATOM     16  C   UNL     1     -10.235   1.265   1.675  0.00  0.00    +0.049 A 
ATOM     17  C   UNL     1     -10.635   2.612   1.686  0.00  0.00    +0.042 A 
ATOM     18  C   UNL     1      -9.514   3.360   1.611  0.00  0.00    +0.195 A 
ATOM     19  O   UNL     1      -8.451   2.542   1.559  0.00  0.00    -0.464 OA
ENDBRANCH  14  15
BRANCH   1  20
ATOM     20  C   UNL     1      -1.923  -0.725   1.217  0.00  0.00    +0.341 C 
ATOM     21  O   UNL     1      -1.292  -0.501   2.231  0.00  0.00    -0.245 OA
BRANCH  20  22
ATOM     22  O   UNL     1      -1.360  -0.507   0.012  0.00  0.00    -0.449 OA
BRANCH  22  24
ATOM     23  C   UNL     1      -0.019   1.526   0.010  0.00  0.00    +0.062 C 
ATOM     24  C   UNL     1       0.002  -0.004   0.002  0.00  0.00    +0.259 C 
BRANCH  24  25
ATOM     25  C   UNL     1       0.707  -0.490  -1.238  0.00  0.00    +0.261 C 
ATOM     26  O   UNL     1       0.096  -1.114  -2.078  0.00  0.00    -0.271 OA
ATOM     27  N   UNL     1       2.018  -0.231  -1.413  0.00  0.00    -0.237 N 
ATOM     28  C   UNL     1       2.649  -0.665  -2.522  0.00  0.00    +0.306 C 
ATOM     29  O   UNL     1       2.036  -1.291  -3.364  0.00  0.00    -0.252 OA
ATOM     30  N   UNL     1       3.960  -0.406  -2.696  0.00  0.00    -0.302 N 
ATOM     31  C   UNL     1       4.646  -0.879  -3.902  0.00  0.00    +0.129 C 
ATOM     32  H   UNL     1       2.508   0.269  -0.741  0.00  0.00    +0.159 HD
ATOM     33  H   UNL     1       4.450   0.093  -2.024  0.00  0.00    +0.150 HD
ENDBRANCH  24  25
ENDBRANCH  22  24
ENDBRANCH  20  22
ENDBRANCH   1  20
TORSDOF 5
