REMARK  Name = ZINC20601853
REMARK  6 active torsions:
REMARK  status: ('A' for Active; 'I' for Inactive)
REMARK    1  A    between atoms: C_1  and  C_2
REMARK    2  A    between atoms: N_5  and  C_7
REMARK    3  A    between atoms: C_7  and  C_8
REMARK    4  A    between atoms: N_10  and  C_11
REMARK    5  A    between atoms: C_11  and  C_12
REMARK    6  A    between atoms: C_19  and  C_22
REMARK                            x       y       z     vdW  Elec       q    Type
REMARK                         _______ _______ _______ _____ _____    ______ ____
ROOT
ATOM      1  C   UNL     1      -0.753   1.593  -1.232  0.00  0.00    +0.195 C 
ATOM      2  C   UNL     1      -0.131   1.004  -2.520  0.00  0.00    +0.085 C 
ATOM      3  C   UNL     1      -1.355   0.794  -3.391  0.00  0.00    -0.000 A 
ATOM      4  C   UNL     1      -1.499   0.570  -4.743  0.00  0.00    +0.027 A 
ATOM      5  C   UNL     1      -2.761   0.429  -5.296  0.00  0.00    +0.042 A 
ATOM      6  C   UNL     1      -3.879   0.512  -4.489  0.00  0.00    +0.032 A 
ATOM      7  C   UNL     1      -3.741   0.734  -3.123  0.00  0.00    +0.025 A 
ATOM      8  C   UNL     1      -2.463   0.873  -2.561  0.00  0.00    +0.132 A 
ATOM      9  O   UNL     1      -2.097   1.083  -1.266  0.00  0.00    -0.486 OA
ATOM     10 CL   UNL     1      -2.938   0.146  -7.000  0.00  0.00    -0.084 Cl
ENDROOT
BRANCH   7  11
ATOM     11  C   UNL     1      -4.944   0.822  -2.260  0.00  0.00    -0.014 A 
ATOM     12  C   UNL     1      -5.020   0.063  -1.087  0.00  0.00    +0.010 A 
ATOM     13  C   UNL     1      -6.121   0.133  -0.283  0.00  0.00    +0.027 A 
ATOM     14  C   UNL     1      -7.184   0.965  -0.621  0.00  0.00    +0.046 A 
ATOM     15  C   UNL     1      -7.119   1.733  -1.798  0.00  0.00    +0.000 A 
ATOM     16  C   UNL     1      -5.991   1.662  -2.615  0.00  0.00    +0.018 A 
ATOM     17  C   UNL     1      -8.376   2.485  -1.862  0.00  0.00    +0.027 A 
ATOM     18  C   UNL     1      -9.090   2.146  -0.777  0.00  0.00    +0.083 A 
ATOM     19  N   UNL     1      -8.395   1.239  -0.025  0.00  0.00    -0.361 N 
ATOM     20  H   UNL     1      -8.667   0.746   0.920  0.00  0.00    +0.165 HD
ENDBRANCH   7  11
BRANCH   1  21
ATOM     21  C   UNL     1      -0.013   1.086   0.008  0.00  0.00    +0.149 C 
BRANCH  21  24
ATOM     22  C   UNL     1      -0.222   1.232   2.431  0.00  0.00    +0.235 C 
ATOM     23  O   UNL     1       0.774   0.548   2.529  0.00  0.00    -0.274 OA
ATOM     24  N   UNL     1      -0.698   1.558   1.213  0.00  0.00    -0.310 N 
ATOM     25  H   UNL     1      -1.602   2.179   1.124  0.00  0.00    +0.149 HD
BRANCH  22  26
ATOM     26  C   UNL     1      -0.927   1.718   3.671  0.00  0.00    +0.239 C 
BRANCH  26  31
ATOM     27  C   UNL     1       1.237  -1.379   6.975  0.00  0.00    +0.067 C 
ATOM     28  C   UNL     1       0.722  -0.140   6.290  0.00  0.00    +0.060 A 
ATOM     29  C   UNL     1       0.840   1.170   6.766  0.00  0.00    +0.044 A 
ATOM     30  C   UNL     1       0.254   1.994   5.867  0.00  0.00    +0.109 A 
ATOM     31  N   UNL     1      -0.219   1.233   4.858  0.00  0.00    -0.262 N 
ATOM     32  N   UNL     1       0.083  -0.104   5.149  0.00  0.00    -0.176 NA
ENDBRANCH  26  31
ENDBRANCH  22  26
ENDBRANCH  21  24
ENDBRANCH   1  21
TORSDOF 5
