REMARK  Name = ZINC40215496
REMARK  6 active torsions:
REMARK  status: ('A' for Active; 'I' for Inactive)
REMARK    1  A    between atoms: C_1  and  C_2
REMARK    2  A    between atoms: C_3  and  C_7
REMARK    3  A    between atoms: N_9  and  C_10
REMARK    4  A    between atoms: C_10  and  C_11
REMARK    5  A    between atoms: C_14  and  S_16
REMARK    6  A    between atoms: S_16  and  N_19
REMARK                            x       y       z     vdW  Elec       q    Type
REMARK                         _______ _______ _______ _____ _____    ______ ____
ROOT
ATOM      1  C   UNL     1      -4.888  -0.928   0.021  0.00  0.00    +0.147 C 
ENDROOT
BRANCH   1   2
ATOM      2  C   UNL     1      -5.768  -2.152   0.018  0.00  0.00    +0.009 A 
ATOM      3  C   UNL     1      -6.265  -2.848   1.069  0.00  0.00    +0.015 A 
ATOM      4  C   UNL     1      -7.060  -3.952   0.826  0.00  0.00    +0.036 A 
ATOM      5  C   UNL     1      -7.319  -4.306  -0.457  0.00  0.00    +0.142 A 
ATOM      6  S   UNL     1      -6.431  -3.056  -1.371  0.00  0.00    -0.072 S 
BRANCH   5   7
ATOM      7  S   UNL     1      -8.286  -5.648  -1.064  0.00  0.00    +0.062 S 
ATOM      8  O   UNL     1      -7.814  -5.929  -2.374  0.00  0.00    -0.153 OA
ATOM      9  O   UNL     1      -8.310  -6.629  -0.036  0.00  0.00    -0.153 OA
BRANCH   7  10
ATOM     10  N   UNL     1      -9.839  -5.097  -1.228  0.00  0.00    -0.203 NA
ATOM     11  H   UNL     1     -10.055  -4.180  -0.999  0.00  0.00    +0.144 HD
ATOM     12  H   UNL     1     -10.533  -5.692  -1.553  0.00  0.00    +0.144 HD
ENDBRANCH   7  10
ENDBRANCH   5   7
ENDBRANCH   1   2
BRANCH   1  15
ATOM     13  C   UNL     1      -2.508  -0.405   0.012  0.00  0.00    +0.248 C 
ATOM     14  O   UNL     1      -2.798   0.776   0.021  0.00  0.00    -0.270 OA
ATOM     15  N   UNL     1      -3.482  -1.337   0.011  0.00  0.00    -0.307 N 
ATOM     16  H   UNL     1      -3.251  -2.280   0.005  0.00  0.00    +0.149 HD
BRANCH  13  19
ATOM     17  C   UNL     1      -0.018   1.503   0.010  0.00  0.00    +0.087 C 
ATOM     18  C   UNL     1       0.002  -0.004   0.002  0.00  0.00    +0.114 A 
ATOM     19  C   UNL     1      -1.093  -0.817   0.003  0.00  0.00    +0.077 A 
ATOM     20  C   UNL     1      -0.567  -2.190  -0.008  0.00  0.00    +0.054 A 
ATOM     21  C   UNL     1       0.769  -2.073  -0.014  0.00  0.00    +0.196 A 
ATOM     22  O   UNL     1       1.097  -0.771  -0.013  0.00  0.00    -0.467 OA
ENDBRANCH  13  19
ENDBRANCH   1  15
TORSDOF 5
