REMARK  Name = ZINC12867536
REMARK  7 active torsions:
REMARK  status: ('A' for Active; 'I' for Inactive)
REMARK    1  A    between atoms: C_1  and  C_2
REMARK    2  A    between atoms: C_2  and  C_4
REMARK    3  A    between atoms: C_2  and  S_17
REMARK    4  A    between atoms: C_4  and  C_6
REMARK    5  A    between atoms: S_17  and  C_18
REMARK    6  A    between atoms: N_22  and  C_23
REMARK    7  A    between atoms: C_26  and  O_29
REMARK                            x       y       z     vdW  Elec       q    Type
REMARK                         _______ _______ _______ _____ _____    ______ ____
ROOT
ATOM      1  C   UNL     1      -4.201   2.729  -1.380  0.00  0.00    +0.028 C 
ATOM      2  C   UNL     1      -3.814   3.090   0.055  0.00  0.00    +0.122 C 
ENDROOT
BRANCH   2   3
ATOM      3  C   UNL     1      -2.520   3.863   0.047  0.00  0.00    +0.176 C 
ATOM      4  O   UNL     1      -2.538   5.075   0.054  0.00  0.00    -0.291 OA
BRANCH   3   5
ATOM      5  C   UNL     1      -1.238   3.147   0.031  0.00  0.00    +0.020 A 
ATOM      6  C   UNL     1      -1.215   1.747   0.017  0.00  0.00    +0.015 A 
ATOM      7  C   UNL     1      -0.013   1.076   0.008  0.00  0.00    +0.048 A 
ATOM      8  C   UNL     1       1.181   1.785   0.000  0.00  0.00    +0.142 A 
ATOM      9  C   UNL     1       1.166   3.183   0.009  0.00  0.00    +0.076 A 
ATOM     10  C   UNL     1      -0.034   3.863   0.024  0.00  0.00    +0.038 A 
ATOM     11  N   UNL     1       2.383   3.880   0.003  0.00  0.00    -0.280 N 
ATOM     12  C   UNL     1       3.514   3.220  -0.328  0.00  0.00    +0.255 C 
ATOM     13  O   UNL     1       4.582   3.794  -0.312  0.00  0.00    -0.272 OA
ATOM     14  C   UNL     1       3.443   1.765  -0.719  0.00  0.00    +0.325 C 
ATOM     15  O   UNL     1       2.371   1.131  -0.017  0.00  0.00    -0.481 OA
ATOM     16  H   UNL     1       2.412   4.822   0.233  0.00  0.00    +0.155 HD
ENDBRANCH   3   5
ENDBRANCH   2   3
BRANCH   2  17
ATOM     17  S   UNL     1      -5.118   4.105   0.794  0.00  0.00    -0.073 S 
BRANCH  17  18
ATOM     18  C   UNL     1      -6.438   2.938   0.815  0.00  0.00    +0.215 A 
ATOM     19  N   UNL     1      -6.392   1.696   0.383  0.00  0.00    -0.101 NA
ATOM     20  N   UNL     1      -7.527   1.120   0.548  0.00  0.00    -0.022 NA
ATOM     21  N   UNL     1      -8.372   1.936   1.080  0.00  0.00    -0.038 NA
ATOM     22  N   UNL     1      -7.697   3.153   1.275  0.00  0.00    -0.187 N 
BRANCH  22  23
ATOM     23  C   UNL     1      -8.213   4.335   1.827  0.00  0.00    +0.070 A 
ATOM     24  C   UNL     1      -7.403   5.148   2.608  0.00  0.00    +0.031 A 
ATOM     25  C   UNL     1      -7.910   6.314   3.147  0.00  0.00    +0.047 A 
ATOM     26  C   UNL     1      -9.231   6.668   2.915  0.00  0.00    +0.117 A 
ATOM     27  C   UNL     1     -10.042   5.854   2.139  0.00  0.00    +0.047 A 
ATOM     28  C   UNL     1      -9.535   4.690   1.595  0.00  0.00    +0.031 A 
BRANCH  26  29
ATOM     29  O   UNL     1      -9.731   7.814   3.449  0.00  0.00    -0.507 OA
ATOM     30  H   UNL     1     -10.121   7.701   4.327  0.00  0.00    +0.292 HD
ENDBRANCH  26  29
ENDBRANCH  22  23
ENDBRANCH  17  18
ENDBRANCH   2  17
TORSDOF 6
