REMARK  Name = ZINC37135112
REMARK  6 active torsions:
REMARK  status: ('A' for Active; 'I' for Inactive)
REMARK    1  A    between atoms: C_1  and  C_2
REMARK    2  A    between atoms: C_8  and  N_10
REMARK    3  A    between atoms: N_10  and  C_11
REMARK    4  A    between atoms: C_16  and  N_17
REMARK    5  A    between atoms: N_17  and  S_18
REMARK    6  A    between atoms: S_18  and  C_21
REMARK                            x       y       z     vdW  Elec       q    Type
REMARK                         _______ _______ _______ _____ _____    ______ ____
ROOT
ATOM      1  C   UNL     1       0.704   0.340   3.421  0.00  0.00    +0.050 A 
ATOM      2  C   UNL     1       2.077   0.175   3.321  0.00  0.00    +0.025 A 
ATOM      3  C   UNL     1       2.878   0.353   4.434  0.00  0.00    +0.002 A 
ATOM      4  C   UNL     1       2.314   0.696   5.649  0.00  0.00    +0.002 A 
ATOM      5  C   UNL     1       0.945   0.862   5.758  0.00  0.00    +0.026 A 
ATOM      6  C   UNL     1       0.136   0.690   4.646  0.00  0.00    +0.068 A 
ENDROOT
BRANCH   1   7
ATOM      7  N   UNL     1      -0.108   0.161   2.295  0.00  0.00    -0.339 N 
ATOM      8  H   UNL     1      -1.068   0.280   2.366  0.00  0.00    +0.146 HD
BRANCH   7  15
ATOM      9  C   UNL     1      -0.596   1.769  -0.064  0.00  0.00    +0.009 C 
ATOM     10  C   UNL     1      -0.422   0.251  -0.129  0.00  0.00    +0.006 C 
ATOM     11  C   UNL     1      -1.788  -0.425   0.009  0.00  0.00    +0.005 C 
ATOM     12  C   UNL     1      -1.614  -1.944  -0.056  0.00  0.00    +0.000 C 
ATOM     13  C   UNL     1      -0.700  -2.402   1.083  0.00  0.00    +0.002 C 
ATOM     14  C   UNL     1       0.665  -1.726   0.945  0.00  0.00    +0.022 C 
ATOM     15  C   UNL     1       0.491  -0.207   1.010  0.00  0.00    +0.073 C 
ENDBRANCH   7  15
ENDBRANCH   1   7
BRANCH   6  16
ATOM     16  N   UNL     1      -1.250   0.863   4.752  0.00  0.00    -0.219 N 
ATOM     17  H   UNL     1      -1.850   0.304   4.234  0.00  0.00    +0.173 HD
BRANCH  16  18
ATOM     18  S   UNL     1      -1.864   2.023   5.763  0.00  0.00    +0.040 S 
ATOM     19  O   UNL     1      -3.269   1.979   5.553  0.00  0.00    -0.155 OA
ATOM     20  O   UNL     1      -1.312   1.723   7.037  0.00  0.00    -0.155 OA
ATOM     21  C   UNL     1      -1.188   3.588   5.142  0.00  0.00    +0.218 C 
ENDBRANCH  16  18
ENDBRANCH   6  16
TORSDOF 4
