REMARK  Name = ZINC14957478
REMARK  10 active torsions:
REMARK  status: ('A' for Active; 'I' for Inactive)
REMARK    1  A    between atoms: C_1  and  N_69
REMARK    2  A    between atoms: C_2  and  N_69
REMARK    3  A    between atoms: C_3  and  C_4
REMARK    4  A    between atoms: C_3  and  N_69
REMARK    5  A    between atoms: C_4  and  N_5
REMARK    6  A    between atoms: C_8  and  C_12
REMARK    7  A    between atoms: C_8  and  C_20
REMARK    8  A    between atoms: C_12  and  C_13
REMARK    9  A    between atoms: C_13  and  C_14
REMARK   10  A    between atoms: C_26  and  C_28
REMARK                            x       y       z     vdW  Elec       q    Type
REMARK                         _______ _______ _______ _____ _____    ______ ____
ROOT
ATOM      1  N   UNL     1      -5.215  -0.422   0.421  0.00  0.00    -0.226 N 
ATOM      2  C   UNL     1      -4.698   0.072  -0.722  0.00  0.00    +0.247 C 
ATOM      3  O   UNL     1      -5.047   1.073  -1.310  0.00  0.00    -0.273 OA
ATOM      4  C   UNL     1      -3.589  -0.882  -1.117  0.00  0.00    +0.116 C 
ATOM      5  N   UNL     1      -3.612  -1.899  -0.051  0.00  0.00    -0.285 N 
ATOM      6  C   UNL     1      -4.593  -1.545   0.798  0.00  0.00    +0.309 C 
ATOM      7  O   UNL     1      -4.882  -2.174   1.797  0.00  0.00    -0.252 OA
ATOM      8  H   UNL     1      -3.033  -2.674   0.024  0.00  0.00    +0.151 HD
ENDROOT
BRANCH   4   9
ATOM      9  C   UNL     1      -3.882  -1.520  -2.476  0.00  0.00    +0.024 C 
ATOM     10  C   UNL     1      -3.798  -0.453  -3.569  0.00  0.00    +0.025 C 
ATOM     11  C   UNL     1      -4.058  -1.102  -4.932  0.00  0.00    +0.108 C 
ATOM     12  N   UNL     1      -5.343  -1.812  -4.880  0.00  0.00    -0.298 N 
ATOM     13  C   UNL     1      -5.564  -2.796  -3.812  0.00  0.00    +0.108 C 
ATOM     14  C   UNL     1      -5.287  -2.128  -2.461  0.00  0.00    +0.025 C 
ATOM     15  C   UNL     1      -6.301  -1.566  -5.796  0.00  0.00    +0.242 C 
ATOM     16  O   UNL     1      -6.169  -0.647  -6.582  0.00  0.00    -0.270 OA
BRANCH  15  17
ATOM     17  C   UNL     1      -7.506  -2.408  -5.844  0.00  0.00    +0.011 C 
ATOM     18  C   UNL     1      -8.573  -2.155  -6.590  0.00  0.00    -0.018 C 
ATOM     19  C   UNL     1      -9.624  -3.224  -6.402  0.00  0.00    +0.028 C 
ATOM     20  C   UNL     1      -8.879  -4.401  -5.733  0.00  0.00    +0.009 C 
ATOM     21  C   UNL     1      -7.701  -3.675  -5.044  0.00  0.00    +0.040 C 
ENDBRANCH  15  17
ENDBRANCH   4   9
BRANCH   1  22
ATOM     22  C   UNL     1      -6.321   0.195   1.158  0.00  0.00    +0.099 C 
BRANCH  22  23
ATOM     23  C   UNL     1      -5.762   1.188   2.179  0.00  0.00    -0.060 C 
BRANCH  23  26
ATOM     24  C   UNL     1      -6.372   2.583   4.061  0.00  0.00    -0.097 C 
ATOM     25  C   UNL     1      -7.693   2.640   2.033  0.00  0.00    -0.097 C 
ATOM     26  N   UNL     1      -6.887   1.785   2.929  0.00  0.00    +0.377 N 
ATOM     27  H   UNL     1      -7.481   1.032   3.294  0.00  0.00    -0.083 HD
ENDBRANCH  23  26
ENDBRANCH  22  23
ENDBRANCH   1  22
BRANCH   4  28
ATOM     28  C   UNL     1      -2.241  -0.160  -1.142  0.00  0.00    +0.040 C 
BRANCH  28  29
ATOM     29  C   UNL     1      -1.939   0.407   0.246  0.00  0.00    +0.038 C 
BRANCH  29  30
ATOM     30  C   UNL     1      -0.611   1.118   0.221  0.00  0.00    -0.047 A 
ATOM     31  C   UNL     1      -0.554   2.465  -0.087  0.00  0.00    +0.003 A 
ATOM     32  C   UNL     1       0.665   3.117  -0.110  0.00  0.00    +0.000 A 
ATOM     33  C   UNL     1       1.826   2.423   0.173  0.00  0.00    +0.000 A 
ATOM     34  C   UNL     1       1.769   1.077   0.482  0.00  0.00    +0.000 A 
ATOM     35  C   UNL     1       0.550   0.425   0.506  0.00  0.00    +0.003 A 
ENDBRANCH  29  30
ENDBRANCH  28  29
ENDBRANCH   4  28
TORSDOF 8
