REMARK  Name = ZINC49435743
REMARK  8 active torsions:
REMARK  status: ('A' for Active; 'I' for Inactive)
REMARK    1  A    between atoms: C_1  and  C_2
REMARK    2  A    between atoms: C_2  and  C_3
REMARK    3  A    between atoms: C_2  and  C_4
REMARK    4  A    between atoms: C_2  and  C_5
REMARK    5  A    between atoms: C_12  and  C_14
REMARK    6  A    between atoms: C_14  and  C_16
REMARK    7  A    between atoms: C_16  and  C_18
REMARK    8  A    between atoms: C_16  and  C_20
REMARK                            x       y       z     vdW  Elec       q    Type
REMARK                         _______ _______ _______ _____ _____    ______ ____
ROOT
ATOM      1  C   UNL     1       5.955  -0.738  -4.532  0.00  0.00    +0.194 C 
ATOM      2  O   UNL     1       6.883  -0.497  -3.787  0.00  0.00    -0.290 OA
ENDROOT
BRANCH   1   9
ATOM      3  C   UNL     1       0.718  -0.497  -1.257  0.00  0.00    -0.001 C 
ATOM      4  C   UNL     1      -0.026   0.007  -2.496  0.00  0.00    +0.009 C 
ATOM      5  C   UNL     1       0.532  -0.710  -3.733  0.00  0.00    +0.043 C 
ATOM      6  C   UNL     1       2.030  -0.644  -3.685  0.00  0.00    -0.006 A 
ATOM      7  C   UNL     1       2.799  -0.318  -2.603  0.00  0.00    -0.036 A 
ATOM      8  C   UNL     1       4.170  -0.320  -2.791  0.00  0.00    +0.023 A 
ATOM      9  C   UNL     1       4.627  -0.655  -4.058  0.00  0.00    +0.057 A 
ATOM     10  S   UNL     1       3.100  -0.952  -4.929  0.00  0.00    -0.090 S 
ATOM     11  C   UNL     1       2.154   0.029  -1.264  0.00  0.00    +0.040 C 
BRANCH   3  13
ATOM     12  C   UNL     1      -0.019   1.526   0.010  0.00  0.00    +0.011 C 
ATOM     13  C   UNL     1       0.002  -0.004   0.002  0.00  0.00    -0.035 C 
ATOM     14  C   UNL     1       0.742  -0.511   1.242  0.00  0.00    +0.011 C 
ATOM     15  C   UNL     1      -1.433  -0.534   0.013  0.00  0.00    +0.011 C 
ENDBRANCH   3  13
ENDBRANCH   1   9
BRANCH   1  16
ATOM     16  C   UNL     1       6.220  -1.125  -5.965  0.00  0.00    +0.230 C 
BRANCH  16  17
ATOM     17  C   UNL     1       7.544  -1.839  -6.055  0.00  0.00    +0.161 A 
ATOM     18  N   UNL     1       8.651  -1.226  -5.674  0.00  0.00    -0.198 NA
ATOM     19  C   UNL     1       9.822  -1.854  -5.752  0.00  0.00    +0.217 A 
ATOM     20  N   UNL     1       9.877  -3.098  -6.214  0.00  0.00    -0.181 NA
ATOM     21  C   UNL     1       8.762  -3.711  -6.596  0.00  0.00    +0.217 A 
ATOM     22  N   UNL     1       8.815  -5.004  -7.077  0.00  0.00    -0.327 N 
ATOM     23  N   UNL     1       7.594  -3.079  -6.510  0.00  0.00    -0.198 NA
ATOM     24  N   UNL     1      10.978  -1.212  -5.355  0.00  0.00    -0.327 N 
ATOM     25  H   UNL     1       9.666  -5.465  -7.136  0.00  0.00    +0.145 HD
ATOM     26  H   UNL     1      10.937  -0.304  -5.018  0.00  0.00    +0.145 HD
ATOM     27  H   UNL     1      11.831  -1.670  -5.412  0.00  0.00    +0.145 HD
ATOM     28  H   UNL     1       8.000  -5.451  -7.355  0.00  0.00    +0.145 HD
ENDBRANCH  16  17
BRANCH  16  29
ATOM     29  C   UNL     1       6.258   0.086  -6.801  0.00  0.00    +0.082 C 
ATOM     30  N   UNL     1       6.286   1.020  -7.447  0.00  0.00    -0.195 NA
ENDBRANCH  16  29
ENDBRANCH   1  16
TORSDOF 5
