REMARK  Name = ZINC10459423
REMARK  10 active torsions:
REMARK  status: ('A' for Active; 'I' for Inactive)
REMARK    1  A    between atoms: C_1  and  C_2
REMARK    2  A    between atoms: C_4  and  C_28
REMARK    3  A    between atoms: C_9  and  C_10
REMARK    4  A    between atoms: C_10  and  N_11
REMARK    5  A    between atoms: C_12  and  C_14
REMARK    6  A    between atoms: C_21  and  O_23
REMARK    7  A    between atoms: O_23  and  C_24
REMARK    8  A    between atoms: C_24  and  C_25
REMARK    9  A    between atoms: C_24  and  C_26
REMARK   10  A    between atoms: C_24  and  C_27
REMARK                            x       y       z     vdW  Elec       q    Type
REMARK                         _______ _______ _______ _____ _____    ______ ____
ROOT
ATOM      1  N   UNL     1      -2.885   4.229   1.427  0.00  0.00    -0.311 N 
ATOM      2  C   UNL     1      -4.015   4.915   1.687  0.00  0.00    +0.218 C 
ATOM      3  O   UNL     1      -4.745   5.249   0.777  0.00  0.00    -0.275 OA
ATOM      4  H   UNL     1      -2.302   3.962   2.155  0.00  0.00    +0.149 HD
ENDROOT
BRANCH   2   5
ATOM      5  C   UNL     1      -4.373   5.268   3.108  0.00  0.00    +0.092 C 
ATOM      6  C   UNL     1      -5.696   6.037   3.125  0.00  0.00    +0.016 C 
ATOM      7  C   UNL     1      -6.044   6.424   4.564  0.00  0.00    +0.020 C 
ATOM      8  C   UNL     1      -6.212   5.154   5.404  0.00  0.00    +0.111 C 
ATOM      9  N   UNL     1      -4.997   4.338   5.276  0.00  0.00    -0.267 N 
ATOM     10  C   UNL     1      -4.523   3.985   3.931  0.00  0.00    +0.123 C 
ATOM     11  C   UNL     1      -4.331   3.921   6.371  0.00  0.00    +0.403 C 
ATOM     12  O   UNL     1      -3.328   3.247   6.251  0.00  0.00    -0.226 OA
BRANCH  11  13
ATOM     13  O   UNL     1      -4.778   4.253   7.597  0.00  0.00    -0.445 OA
BRANCH  13  14
ATOM     14  C   UNL     1      -4.010   3.769   8.731  0.00  0.00    +0.107 C 
ATOM     15  C   UNL     1      -2.583   4.316   8.651  0.00  0.00    +0.055 C 
ATOM     16  C   UNL     1      -4.666   4.243  10.030  0.00  0.00    +0.055 C 
ATOM     17  C   UNL     1      -3.973   2.240   8.707  0.00  0.00    +0.055 C 
ENDBRANCH  13  14
ENDBRANCH  11  13
ENDBRANCH   2   5
BRANCH   1  18
ATOM     18  C   UNL     1      -2.537   3.886   0.046  0.00  0.00    +0.145 C 
BRANCH  18  27
ATOM     19  C   UNL     1      -2.536   0.999   0.019  0.00  0.00    +0.044 C 
ATOM     20  C   UNL     1      -1.236   1.761   0.018  0.00  0.00    -0.039 A 
ATOM     21  C   UNL     1      -0.013   1.076   0.008  0.00  0.00    +0.024 A 
ATOM     22  C   UNL     1       1.150   1.769   0.001  0.00  0.00    +0.016 A 
ATOM     23  N   UNL     1       1.148   3.127   0.008  0.00  0.00    -0.326 N 
ATOM     24  H   UNL     1       1.990   3.608   0.002  0.00  0.00    +0.169 HD
ATOM     25  C   UNL     1      -0.011   3.813   0.023  0.00  0.00    +0.254 A 
ATOM     26  O   UNL     1       0.003   5.034   0.029  0.00  0.00    -0.268 OA
ATOM     27  C   UNL     1      -1.236   3.125   0.030  0.00  0.00    +0.037 A 
ATOM     28  C   UNL     1       2.461   1.026  -0.015  0.00  0.00    +0.063 C 
ENDBRANCH  18  27
ENDBRANCH   1  18
TORSDOF 5
