REMARK  Name = ZINC04355490
REMARK  11 active torsions:
REMARK  status: ('A' for Active; 'I' for Inactive)
REMARK    1  A    between atoms: C_1  and  C_2
REMARK    2  A    between atoms: C_5  and  C_9
REMARK    3  A    between atoms: C_11  and  C_14
REMARK    4  A    between atoms: C_14  and  C_16
REMARK    5  A    between atoms: C_14  and  N_17
REMARK    6  A    between atoms: C_18  and  C_20
REMARK    7  A    between atoms: C_20  and  C_21
REMARK    8  A    between atoms: C_21  and  C_22
REMARK    9  A    between atoms: C_22  and  C_23
REMARK   10  A    between atoms: C_23  and  C_24
REMARK   11  A    between atoms: C_24  and  N_25
REMARK                            x       y       z     vdW  Elec       q    Type
REMARK                         _______ _______ _______ _____ _____    ______ ____
ROOT
ATOM      1  C   UNL     1       0.102  -7.484   1.638  0.00  0.00    +0.159 C 
ATOM      2  C   UNL     1      -1.283  -8.134   1.661  0.00  0.00    +0.038 C 
ENDROOT
BRANCH   1   5
ATOM      3  C   UNL     1       0.059  -4.257  -0.023  0.00  0.00    +0.202 A 
ATOM      4  N   UNL     1       0.070  -5.048   1.065  0.00  0.00    -0.190 NA
ATOM      5  C   UNL     1       0.086  -6.300   0.706  0.00  0.00    +0.248 A 
ATOM      6  O   UNL     1       0.086  -6.358  -0.632  0.00  0.00    -0.336 OA
ATOM      7  N   UNL     1       0.064  -5.015  -1.092  0.00  0.00    -0.056 NA
BRANCH   3  12
ATOM      8  C   UNL     1      -0.018   1.503   0.010  0.00  0.00    +0.045 C 
ATOM      9  C   UNL     1       0.002  -0.004   0.002  0.00  0.00    -0.032 A 
ATOM     10  C   UNL     1       0.006  -0.687  -1.201  0.00  0.00    +0.005 A 
ATOM     11  C   UNL     1       0.024  -2.067  -1.215  0.00  0.00    +0.012 A 
ATOM     12  C   UNL     1       0.040  -2.773  -0.014  0.00  0.00    +0.024 A 
ATOM     13  C   UNL     1       0.036  -2.082   1.196  0.00  0.00    +0.032 A 
ATOM     14  C   UNL     1       0.023  -0.700   1.198  0.00  0.00    +0.045 A 
ATOM     15 CL   UNL     1       0.025   0.164   2.704  0.00  0.00    -0.083 Cl
ENDBRANCH   3  12
ENDBRANCH   1   5
BRANCH   1  16
ATOM     16  N   UNL     1       1.091  -8.459   1.173  0.00  0.00    -0.304 N 
ATOM     17  C   UNL     1       1.651  -9.320   2.045  0.00  0.00    +0.214 C 
ATOM     18  O   UNL     1       1.337  -9.287   3.216  0.00  0.00    -0.276 OA
ATOM     19  H   UNL     1       1.343  -8.485   0.236  0.00  0.00    +0.149 HD
BRANCH  17  20
ATOM     20  C   UNL     1       2.669 -10.323   1.566  0.00  0.00    +0.096 C 
BRANCH  20  21
ATOM     21  C   UNL     1       3.143 -11.171   2.748  0.00  0.00    +0.009 C 
BRANCH  21  22
ATOM     22  C   UNL     1       4.177 -12.190   2.261  0.00  0.00    -0.001 C 
BRANCH  22  23
ATOM     23  C   UNL     1       4.651 -13.039   3.443  0.00  0.00    -0.020 C 
BRANCH  23  24
ATOM     24  C   UNL     1       5.684 -14.057   2.957  0.00  0.00    -0.086 C 
BRANCH  24  25
ATOM     25  N   UNL     1       6.140 -14.872   4.091  0.00  0.00    +0.378 N 
ATOM     26  H   UNL     1       6.821 -15.543   3.770  0.00  0.00    -0.090 HD
ATOM     27  H   UNL     1       6.559 -14.274   4.787  0.00  0.00    -0.090 HD
ATOM     28  H   UNL     1       5.353 -15.357   4.494  0.00  0.00    -0.090 HD
ENDBRANCH  24  25
ENDBRANCH  23  24
ENDBRANCH  22  23
ENDBRANCH  21  22
ENDBRANCH  20  21
ENDBRANCH  17  20
ENDBRANCH   1  16
TORSDOF 9
