REMARK  Name = ZINC39496630
REMARK  8 active torsions:
REMARK  status: ('A' for Active; 'I' for Inactive)
REMARK    1  A    between atoms: C_4  and  O_23
REMARK    2  A    between atoms: C_5  and  C_7
REMARK    3  A    between atoms: C_10  and  C_15
REMARK    4  A    between atoms: C_11  and  O_14
REMARK    5  A    between atoms: C_12  and  O_13
REMARK    6  A    between atoms: C_15  and  C_17
REMARK    7  A    between atoms: C_15  and  N_20
REMARK    8  A    between atoms: C_17  and  C_18
REMARK                            x       y       z     vdW  Elec       q    Type
REMARK                         _______ _______ _______ _____ _____    ______ ____
ROOT
ATOM      1  C   UNL     1      -0.461  -4.356   3.227  0.00  0.00    +0.031 A 
ATOM      2  C   UNL     1      -1.196  -4.598   2.068  0.00  0.00    +0.013 A 
ATOM      3  C   UNL     1      -0.618  -5.272   1.012  0.00  0.00    +0.010 A 
ATOM      4  C   UNL     1       0.691  -5.711   1.097  0.00  0.00    +0.018 A 
ATOM      5  C   UNL     1       1.433  -5.476   2.244  0.00  0.00    +0.164 A 
ATOM      6  C   UNL     1       0.863  -4.793   3.312  0.00  0.00    +0.167 A 
ENDROOT
BRANCH   1  11
ATOM      7  C   UNL     1      -2.720  -3.519   6.114  0.00  0.00    +0.001 A 
ATOM      8  C   UNL     1      -2.237  -2.277   6.487  0.00  0.00    +0.004 A 
ATOM      9  C   UNL     1      -1.179  -1.706   5.806  0.00  0.00    +0.046 A 
ATOM     10  C   UNL     1      -0.595  -2.376   4.744  0.00  0.00    +0.125 A 
ATOM     11  C   UNL     1      -1.080  -3.631   4.364  0.00  0.00    +0.027 A 
ATOM     12  C   UNL     1      -2.147  -4.198   5.057  0.00  0.00    +0.012 A 
BRANCH  10  13
ATOM     13  O   UNL     1       0.445  -1.816   4.073  0.00  0.00    -0.506 OA
ATOM     14  H   UNL     1       1.313  -2.040   4.435  0.00  0.00    +0.292 HD
ENDBRANCH  10  13
ENDBRANCH   1  11
BRANCH   6  15
ATOM     15  O   UNL     1       1.589  -4.557   4.437  0.00  0.00    -0.503 OA
ATOM     16  H   UNL     1       1.523  -5.256   5.102  0.00  0.00    +0.292 HD
ENDBRANCH   6  15
BRANCH   5  17
ATOM     17  O   UNL     1       2.720  -5.910   2.323  0.00  0.00    -0.503 OA
ATOM     18  H   UNL     1       3.371  -5.267   2.008  0.00  0.00    +0.292 HD
ENDBRANCH   5  17
BRANCH   4  19
ATOM     19  C   UNL     1       1.313  -6.447  -0.062  0.00  0.00    +0.113 C 
BRANCH  19  20
ATOM     20  N   UNL     1       0.258  -6.942  -0.949  0.00  0.00    -0.311 N 
ATOM     21  C   UNL     1      -0.326  -8.131  -0.703  0.00  0.00    +0.326 C 
ATOM     22  O   UNL     1       0.022  -8.791   0.253  0.00  0.00    -0.280 OA
ATOM     23  H   UNL     1      -0.020  -6.413  -1.714  0.00  0.00    +0.149 HD
ENDBRANCH  19  20
BRANCH  19  24
ATOM     24  C   UNL     1       2.228  -5.496  -0.837  0.00  0.00    +0.097 C 
BRANCH  24  25
ATOM     25  C   UNL     1       2.944  -6.261  -1.921  0.00  0.00    +0.225 C 
ATOM     26  O   UNL     1       2.871  -5.893  -3.068  0.00  0.00    -0.301 OA
ENDBRANCH  24  25
ENDBRANCH  19  24
ENDBRANCH   4  19
TORSDOF 8
