REMARK  Name = ZINC36314131
REMARK  7 active torsions:
REMARK  status: ('A' for Active; 'I' for Inactive)
REMARK    1  A    between atoms: C_1  and  C_2
REMARK    2  A    between atoms: C_2  and  C_3
REMARK    3  A    between atoms: C_3  and  C_5
REMARK    4  A    between atoms: C_3  and  N_6
REMARK    5  A    between atoms: C_7  and  C_9
REMARK    6  A    between atoms: N_20  and  C_23
REMARK    7  A    between atoms: C_23  and  C_24
REMARK                            x       y       z     vdW  Elec       q    Type
REMARK                         _______ _______ _______ _____ _____    ______ ____
ROOT
ATOM      1  C   UNL     1      -0.100   0.466   4.805  0.00  0.00    +0.119 A 
ATOM      2  C   UNL     1       0.564   0.697   6.010  0.00  0.00    +0.132 A 
ATOM      3  N   UNL     1      -0.115   1.129   7.062  0.00  0.00    -0.223 NA
ATOM      4  C   UNL     1      -1.416   1.349   7.003  0.00  0.00    +0.198 A 
ATOM      5  N   UNL     1      -2.124   1.145   5.861  0.00  0.00    -0.294 N 
ATOM      6  H   UNL     1      -3.079   1.315   5.846  0.00  0.00    +0.172 HD
ATOM      7  C   UNL     1      -1.499   0.711   4.746  0.00  0.00    +0.265 A 
ATOM      8  O   UNL     1      -2.120   0.528   3.714  0.00  0.00    -0.267 OA
ATOM      9  N   UNL     1      -2.066   1.794   8.117  0.00  0.00    -0.305 N 
ATOM     10  C   UNL     1      -3.531   1.928   8.136  0.00  0.00    +0.089 C 
ATOM     11  C   UNL     1      -4.068   1.219   9.383  0.00  0.00    -0.059 C 
ATOM     12  N   UNL     1      -3.396   1.751  10.575  0.00  0.00    +0.384 N 
ATOM     13  C   UNL     1      -1.964   1.432  10.526  0.00  0.00    -0.059 C 
ATOM     14  C   UNL     1      -1.323   2.147   9.337  0.00  0.00    +0.089 C 
ATOM     15  H   UNL     1      -3.516   2.752  10.608  0.00  0.00    -0.081 HD
ENDROOT
BRANCH   1  17
ATOM     16  N   UNL     1      -0.003  -0.121   2.439  0.00  0.00    -0.309 N 
ATOM     17  C   UNL     1       0.630  -0.012   3.624  0.00  0.00    +0.251 C 
ATOM     18  O   UNL     1       1.807  -0.309   3.715  0.00  0.00    -0.270 OA
ATOM     19  H   UNL     1      -0.957   0.044   2.382  0.00  0.00    +0.149 HD
BRANCH  16  20
ATOM     20  C   UNL     1       0.750  -0.491   1.238  0.00  0.00    +0.070 C 
ATOM     21  C   UNL     1       0.860  -2.015   1.154  0.00  0.00    +0.028 C 
BRANCH  20  23
ATOM     22  C   UNL     1       0.023   1.567   0.021  0.00  0.00    +0.005 C 
ATOM     23  C   UNL     1       0.024   0.037  -0.001  0.00  0.00    +0.018 C 
ENDBRANCH  20  23
ENDBRANCH  16  20
ENDBRANCH   1  17
BRANCH  12  24
ATOM     24  C   UNL     1      -3.988   1.151  11.778  0.00  0.00    -0.040 C 
BRANCH  24  25
ATOM     25  C   UNL     1      -3.385   1.785  13.005  0.00  0.00    -0.027 A 
ATOM     26  C   UNL     1      -2.245   1.246  13.573  0.00  0.00    +0.044 A 
ATOM     27  C   UNL     1      -1.692   1.829  14.699  0.00  0.00    +0.020 A 
ATOM     28  C   UNL     1      -2.279   2.949  15.258  0.00  0.00    +0.003 A 
ATOM     29  C   UNL     1      -3.419   3.487  14.691  0.00  0.00    +0.020 A 
ATOM     30  C   UNL     1      -3.969   2.909  13.560  0.00  0.00    +0.044 A 
ATOM     31 CL   UNL     1      -5.396   3.591  12.844  0.00  0.00    -0.083 Cl
ATOM     32 CL   UNL     1      -1.508  -0.161  12.872  0.00  0.00    -0.083 Cl
ENDBRANCH  24  25
ENDBRANCH  12  24
TORSDOF 5
