REMARK  Name = ZINC55196005
REMARK  8 active torsions:
REMARK  status: ('A' for Active; 'I' for Inactive)
REMARK    1  A    between atoms: C_1  and  C_2
REMARK    2  A    between atoms: C_2  and  C_3
REMARK    3  A    between atoms: C_2  and  C_4
REMARK    4  A    between atoms: C_6  and  C_11
REMARK    5  A    between atoms: C_18  and  C_20
REMARK    6  A    between atoms: C_20  and  C_21
REMARK    7  A    between atoms: C_21  and  C_22
REMARK    8  A    between atoms: C_25  and  O_28
REMARK                            x       y       z     vdW  Elec       q    Type
REMARK                         _______ _______ _______ _____ _____    ______ ____
ROOT
ATOM      1  C   UNL     1      -4.185  -1.299   2.428  0.00  0.00    +0.265 C 
ATOM      2  O   UNL     1      -3.624  -1.212   3.502  0.00  0.00    -0.268 OA
ATOM      3  N   UNL     1      -5.479  -1.671   2.371  0.00  0.00    -0.293 N 
ATOM      4  C   UNL     1      -6.108  -2.001   1.085  0.00  0.00    +0.108 C 
ATOM      5  C   UNL     1      -6.746  -3.390   1.191  0.00  0.00    +0.019 C 
ATOM      6  C   UNL     1      -7.704  -3.417   2.384  0.00  0.00    +0.003 C 
ATOM      7  C   UNL     1      -6.925  -3.144   3.673  0.00  0.00    +0.022 C 
ATOM      8  C   UNL     1      -6.287  -1.759   3.596  0.00  0.00    +0.077 C 
ENDROOT
BRANCH   1  11
ATOM      9  C   UNL     1      -1.420  -0.490   0.011  0.00  0.00    +0.050 A 
ATOM     10  C   UNL     1      -2.069  -0.770   1.206  0.00  0.00    +0.056 A 
ATOM     11  C   UNL     1      -3.444  -0.996   1.177  0.00  0.00    +0.131 A 
ATOM     12  N   UNL     1      -4.083  -0.937   0.011  0.00  0.00    -0.210 NA
ATOM     13  C   UNL     1      -3.427  -0.667  -1.105  0.00  0.00    +0.213 A 
ATOM     14  N   UNL     1      -2.120  -0.443  -1.108  0.00  0.00    -0.219 NA
ATOM     15  N   UNL     1      -4.123  -0.614  -2.300  0.00  0.00    -0.327 N 
ATOM     16  H   UNL     1      -5.080  -0.773  -2.312  0.00  0.00    +0.145 HD
ATOM     17  H   UNL     1      -3.654  -0.417  -3.126  0.00  0.00    +0.145 HD
BRANCH   9  19
ATOM     18  C   UNL     1       0.338   1.232   0.317  0.00  0.00    +0.014 C 
ATOM     19  C   UNL     1       0.066  -0.238  -0.008  0.00  0.00    +0.032 C 
ATOM     20  C   UNL     1       0.748  -1.125   1.035  0.00  0.00    +0.014 C 
ENDBRANCH   9  19
ENDBRANCH   1  11
BRANCH   8  21
ATOM     21  C   UNL     1      -5.392  -1.540   4.817  0.00  0.00    +0.027 C 
BRANCH  21  22
ATOM     22  C   UNL     1      -6.238  -1.615   6.090  0.00  0.00    +0.037 C 
BRANCH  22  23
ATOM     23  C   UNL     1      -5.342  -1.504   7.296  0.00  0.00    -0.047 A 
ATOM     24  C   UNL     1      -4.800  -2.644   7.860  0.00  0.00    +0.007 A 
ATOM     25  C   UNL     1      -3.978  -2.545   8.967  0.00  0.00    +0.045 A 
ATOM     26  C   UNL     1      -3.698  -1.301   9.512  0.00  0.00    +0.117 A 
ATOM     27  C   UNL     1      -4.243  -0.159   8.944  0.00  0.00    +0.045 A 
ATOM     28  C   UNL     1      -5.059  -0.262   7.834  0.00  0.00    +0.007 A 
BRANCH  26  29
ATOM     29  O   UNL     1      -2.891  -1.201  10.600  0.00  0.00    -0.507 OA
ATOM     30  H   UNL     1      -1.953  -1.099  10.387  0.00  0.00    +0.292 HD
ENDBRANCH  26  29
ENDBRANCH  22  23
ENDBRANCH  21  22
ENDBRANCH   8  21
TORSDOF 6
