REMARK  Name = ZINC66684839
REMARK  8 active torsions:
REMARK  status: ('A' for Active; 'I' for Inactive)
REMARK    1  A    between atoms: C_1  and  C_2
REMARK    2  A    between atoms: C_2  and  C_3
REMARK    3  A    between atoms: N_15  and  C_16
REMARK    4  A    between atoms: C_19  and  C_28
REMARK    5  A    between atoms: C_20  and  C_22
REMARK    6  A    between atoms: N_24  and  C_25
REMARK    7  A    between atoms: C_25  and  C_26
REMARK    8  A    between atoms: C_25  and  C_27
REMARK                            x       y       z     vdW  Elec       q    Type
REMARK                         _______ _______ _______ _____ _____    ______ ____
ROOT
ATOM      1  C   UNL     1      -1.530  -0.660  -2.179  0.00  0.00    +0.108 C 
ATOM      2  C   UNL     1      -0.200  -0.725  -1.432  0.00  0.00    -0.017 A 
ATOM      3  C   UNL     1       1.036  -0.565  -2.057  0.00  0.00    +0.013 A 
ATOM      4  C   UNL     1       2.175  -0.639  -1.331  0.00  0.00    +0.046 A 
ATOM      5  S   UNL     1       1.546  -0.945   0.312  0.00  0.00    -0.101 S 
ATOM      6  C   UNL     1      -0.181  -0.948  -0.090  0.00  0.00    -0.004 A 
ATOM      7  C   UNL     1      -1.347  -1.145   0.825  0.00  0.00    +0.062 C 
ATOM      8  C   UNL     1      -2.589  -1.462  -0.022  0.00  0.00    +0.115 C 
ATOM      9  N   UNL     1      -2.603  -0.556  -1.181  0.00  0.00    -0.278 N 
ATOM     10  C   UNL     1      -3.584   0.357  -1.325  0.00  0.00    +0.307 C 
ATOM     11  O   UNL     1      -4.521   0.370  -0.549  0.00  0.00    -0.252 OA
ATOM     12  N   UNL     1      -3.528   1.255  -2.328  0.00  0.00    -0.269 N 
ATOM     13  H   UNL     1      -2.834   1.185  -3.003  0.00  0.00    +0.156 HD
ENDROOT
BRANCH  12  14
ATOM     14  C   UNL     1      -4.470   2.288  -2.396  0.00  0.00    +0.036 A 
ATOM     15  C   UNL     1      -4.976   2.845  -1.228  0.00  0.00    +0.023 A 
ATOM     16  C   UNL     1      -5.906   3.865  -1.290  0.00  0.00    +0.006 A 
ATOM     17  C   UNL     1      -6.338   4.339  -2.513  0.00  0.00    -0.038 A 
ATOM     18  C   UNL     1      -5.835   3.787  -3.692  0.00  0.00    +0.041 A 
ATOM     19  C   UNL     1      -4.892   2.760  -3.629  0.00  0.00    +0.036 A 
ATOM     20  C   UNL     1      -7.352   5.451  -2.574  0.00  0.00    +0.044 C 
BRANCH  18  21
ATOM     21  C   UNL     1      -6.295   4.292  -5.003  0.00  0.00    +0.245 C 
ATOM     22  O   UNL     1      -7.024   5.263  -5.058  0.00  0.00    -0.270 OA
ATOM     23  N   UNL     1      -5.906   3.676  -6.137  0.00  0.00    -0.309 N 
ATOM     24  H   UNL     1      -5.324   2.901  -6.093  0.00  0.00    +0.149 HD
BRANCH  23  25
ATOM     25  C   UNL     1      -6.362   4.176  -7.436  0.00  0.00    +0.067 C 
ATOM     26  C   UNL     1      -5.436   5.301  -7.903  0.00  0.00    +0.027 C 
ATOM     27  C   UNL     1      -6.338   3.038  -8.458  0.00  0.00    +0.027 C 
ENDBRANCH  23  25
ENDBRANCH  18  21
ENDBRANCH  12  14
BRANCH   1  29
ATOM     28  C   UNL     1      -3.002  -1.811  -3.839  0.00  0.00    +0.006 C 
ATOM     29  C   UNL     1      -1.719  -1.929  -3.013  0.00  0.00    +0.024 C 
ENDBRANCH   1  29
TORSDOF 4
