REMARK  Name = ZINC43434213
REMARK  9 active torsions:
REMARK  status: ('A' for Active; 'I' for Inactive)
REMARK    1  A    between atoms: C_1  and  C_2
REMARK    2  A    between atoms: C_4  and  N_8
REMARK    3  A    between atoms: N_5  and  C_7
REMARK    4  A    between atoms: N_11  and  C_12
REMARK    5  A    between atoms: C_12  and  C_14
REMARK    6  A    between atoms: C_12  and  C_15
REMARK    7  A    between atoms: C_15  and  C_16
REMARK    8  A    between atoms: C_16  and  C_17
REMARK    9  A    between atoms: C_20  and  O_23
REMARK                            x       y       z     vdW  Elec       q    Type
REMARK                         _______ _______ _______ _____ _____    ______ ____
ROOT
ATOM      1  N   UNL     1       0.039  -3.240  -1.543  0.00  0.00    -0.254 N 
ATOM      2  C   UNL     1       0.031  -3.097  -2.884  0.00  0.00    +0.305 C 
ATOM      3  O   UNL     1       0.014  -1.986  -3.376  0.00  0.00    -0.252 OA
ATOM      4  N   UNL     1       0.041  -4.186  -3.677  0.00  0.00    -0.297 N 
ATOM      5  H   UNL     1       0.052  -4.127  -1.150  0.00  0.00    +0.158 HD
ATOM      6  H   UNL     1       0.055  -5.073  -3.284  0.00  0.00    +0.151 HD
ENDROOT
BRANCH   1  10
ATOM      7  C   UNL     1      -0.018   1.503   0.010  0.00  0.00    +0.067 C 
ATOM      8  C   UNL     1       0.002  -0.004   0.002  0.00  0.00    +0.062 A 
ATOM      9  C   UNL     1       0.008  -0.816  -1.135  0.00  0.00    +0.068 A 
ATOM     10  C   UNL     1       0.027  -2.113  -0.722  0.00  0.00    +0.124 A 
ATOM     11  N   UNL     1       0.034  -2.110   0.631  0.00  0.00    -0.253 N 
ATOM     12  N   UNL     1       0.023  -0.776   1.058  0.00  0.00    -0.175 NA
ATOM     13  C   UNL     1       0.053  -3.292   1.495  0.00  0.00    +0.174 C 
ENDBRANCH   1  10
BRANCH   4  14
ATOM     14  C   UNL     1       0.033  -4.031  -5.134  0.00  0.00    +0.072 C 
ATOM     15  C   UNL     1       1.465  -3.833  -5.634  0.00  0.00    +0.028 C 
BRANCH  14  16
ATOM     16  C   UNL     1      -0.563  -5.285  -5.777  0.00  0.00    +0.026 C 
BRANCH  16  17
ATOM     17  C   UNL     1      -2.034  -5.414  -5.375  0.00  0.00    +0.037 C 
BRANCH  17  18
ATOM     18  C   UNL     1      -2.621  -6.649  -6.008  0.00  0.00    -0.047 A 
ATOM     19  C   UNL     1      -3.204  -6.573  -7.260  0.00  0.00    +0.007 A 
ATOM     20  C   UNL     1      -3.743  -7.703  -7.843  0.00  0.00    +0.045 A 
ATOM     21  C   UNL     1      -3.699  -8.916  -7.171  0.00  0.00    +0.117 A 
ATOM     22  C   UNL     1      -3.113  -8.991  -5.915  0.00  0.00    +0.045 A 
ATOM     23  C   UNL     1      -2.571  -7.858  -5.339  0.00  0.00    +0.007 A 
BRANCH  21  24
ATOM     24  O   UNL     1      -4.229 -10.030  -7.742  0.00  0.00    -0.507 OA
ATOM     25  H   UNL     1      -3.603 -10.531  -8.281  0.00  0.00    +0.292 HD
ENDBRANCH  21  24
ENDBRANCH  17  18
ENDBRANCH  16  17
ENDBRANCH  14  16
ENDBRANCH   4  14
TORSDOF 6
