REMARK  Name = ZINC59500791
REMARK  7 active torsions:
REMARK  status: ('A' for Active; 'I' for Inactive)
REMARK    1  A    between atoms: C_1  and  C_2
REMARK    2  A    between atoms: C_5  and  C_8
REMARK    3  A    between atoms: C_8  and  C_24
REMARK    4  A    between atoms: C_10  and  C_22
REMARK    5  A    between atoms: C_10  and  C_23
REMARK    6  A    between atoms: C_16  and  N_18
REMARK    7  A    between atoms: C_19  and  C_21
REMARK                            x       y       z     vdW  Elec       q    Type
REMARK                         _______ _______ _______ _____ _____    ______ ____
ROOT
ATOM      1  C   UNL     1       0.182  -4.306  -0.115  0.00  0.00    +0.022 C 
ATOM      2  C   UNL     1       0.394  -4.664   1.347  0.00  0.00    +0.041 C 
ATOM      3  C   UNL     1      -0.247  -5.987   1.750  0.00  0.00    +0.038 C 
ATOM      4  N   UNL     1      -1.662  -5.973   1.351  0.00  0.00    -0.266 N 
ATOM      5  C   UNL     1      -1.977  -5.629   0.032  0.00  0.00    +0.043 A 
ATOM      6  C   UNL     1      -1.095  -4.841  -0.698  0.00  0.00    -0.016 A 
ATOM      7  C   UNL     1      -1.397  -4.529  -2.016  0.00  0.00    +0.008 A 
ATOM      8  C   UNL     1      -2.575  -4.961  -2.591  0.00  0.00    +0.023 A 
ATOM      9  C   UNL     1      -3.476  -5.710  -1.848  0.00  0.00    +0.026 A 
ATOM     10  C   UNL     1      -3.174  -6.037  -0.532  0.00  0.00    +0.046 A 
ATOM     11  C   UNL     1      -2.615  -6.274   2.255  0.00  0.00    +0.217 C 
ATOM     12  O   UNL     1      -2.305  -6.548   3.395  0.00  0.00    -0.276 OA
ATOM     13  C   UNL     1      -4.066  -6.269   1.849  0.00  0.00    +0.109 C 
ATOM     14  C   UNL     1       0.466  -7.179   1.111  0.00  0.00    +0.032 C 
ATOM     15  C   UNL     1      -0.174  -6.135   3.280  0.00  0.00    +0.032 C 
ATOM     16  C   UNL     1       1.373  -4.787  -0.950  0.00  0.00    +0.021 C 
ENDROOT
BRANCH   1  21
ATOM     17  C   UNL     1       0.018   1.471  -0.494  0.00  0.00    +0.044 C 
ATOM     18  C   UNL     1       0.061  -0.032  -0.395  0.00  0.00    -0.050 A 
ATOM     19  C   UNL     1      -0.963  -0.713   0.236  0.00  0.00    +0.003 A 
ATOM     20  C   UNL     1      -0.924  -2.091   0.327  0.00  0.00    +0.005 A 
ATOM     21  C   UNL     1       0.139  -2.790  -0.215  0.00  0.00    -0.037 A 
ATOM     22  C   UNL     1       1.162  -2.109  -0.848  0.00  0.00    +0.005 A 
ATOM     23  C   UNL     1       1.121  -0.731  -0.942  0.00  0.00    +0.003 A 
ENDBRANCH   1  21
BRANCH   9  24
ATOM     24  N   UNL     1      -4.679  -6.133  -2.416  0.00  0.00    -0.358 N 
ATOM     25  H   UNL     1      -4.889  -5.903  -3.335  0.00  0.00    +0.142 HD
ATOM     26  H   UNL     1      -5.306  -6.656  -1.892  0.00  0.00    +0.142 HD
ENDBRANCH   9  24
TORSDOF 2
