REMARK  Name = ZINC66596610
REMARK  11 active torsions:
REMARK  status: ('A' for Active; 'I' for Inactive)
REMARK    1  A    between atoms: C_1  and  C_2
REMARK    2  A    between atoms: C_2  and  C_3
REMARK    3  A    between atoms: C_2  and  C_4
REMARK    4  A    between atoms: C_2  and  C_5
REMARK    5  A    between atoms: C_10  and  O_11
REMARK    6  A    between atoms: O_11  and  C_12
REMARK    7  A    between atoms: C_12  and  C_13
REMARK    8  A    between atoms: C_13  and  N_14
REMARK    9  A    between atoms: N_17  and  C_18
REMARK   10  A    between atoms: C_18  and  C_19
REMARK   11  A    between atoms: C_23  and  C_25
REMARK                            x       y       z     vdW  Elec       q    Type
REMARK                         _______ _______ _______ _____ _____    ______ ____
ROOT
ATOM      1  N   UNL     1      -1.529  -4.779   0.258  0.00  0.00    -0.296 N 
ATOM      2  C   UNL     1      -2.288  -5.430   1.162  0.00  0.00    +0.300 C 
ATOM      3  O   UNL     1      -1.769  -6.186   1.960  0.00  0.00    -0.253 OA
ATOM      4  N   UNL     1      -3.623  -5.244   1.180  0.00  0.00    -0.295 N 
ATOM      5  H   UNL     1      -1.943  -4.176  -0.379  0.00  0.00    +0.150 HD
ATOM      6  H   UNL     1      -4.037  -4.641   0.543  0.00  0.00    +0.151 HD
ENDROOT
BRANCH   1   7
ATOM      7  C   UNL     1      -0.078  -4.982   0.238  0.00  0.00    +0.146 C 
BRANCH   7   8
ATOM      8  C   UNL     1       0.540  -4.132  -0.874  0.00  0.00    +0.248 C 
BRANCH   8   9
ATOM      9  O   UNL     1       0.356  -2.747  -0.573  0.00  0.00    -0.490 OA
BRANCH   9  15
ATOM     10  C   UNL     1       0.707  -0.490  -1.238  0.00  0.00    -0.000 A 
ATOM     11  C   UNL     1       1.217   0.419  -2.145  0.00  0.00    +0.008 A 
ATOM     12  C   UNL     1       1.863  -0.026  -3.283  0.00  0.00    +0.001 A 
ATOM     13  C   UNL     1       2.003  -1.382  -3.516  0.00  0.00    +0.004 A 
ATOM     14  C   UNL     1       1.496  -2.295  -2.612  0.00  0.00    +0.046 A 
ATOM     15  C   UNL     1       0.851  -1.851  -1.467  0.00  0.00    +0.124 A 
BRANCH  10  17
ATOM     16  C   UNL     1      -0.019   1.526   0.010  0.00  0.00    +0.015 C 
ATOM     17  C   UNL     1       0.002  -0.004   0.002  0.00  0.00    -0.009 C 
ATOM     18  C   UNL     1       0.742  -0.511   1.242  0.00  0.00    +0.015 C 
ATOM     19  C   UNL     1      -1.433  -0.534   0.013  0.00  0.00    +0.015 C 
ENDBRANCH  10  17
ENDBRANCH   9  15
ENDBRANCH   8   9
ENDBRANCH   7   8
ENDBRANCH   1   7
BRANCH   4  20
ATOM     20  C   UNL     1      -4.448  -5.952   2.162  0.00  0.00    +0.141 C 
BRANCH  20  21
ATOM     21  C   UNL     1      -5.894  -5.571   1.971  0.00  0.00    -0.030 A 
ATOM     22  C   UNL     1      -6.417  -4.485   2.650  0.00  0.00    +0.005 A 
ATOM     23  C   UNL     1      -7.743  -4.129   2.480  0.00  0.00    +0.001 A 
ATOM     24  C   UNL     1      -8.552  -4.856   1.632  0.00  0.00    +0.013 A 
ATOM     25  C   UNL     1      -8.031  -5.952   0.944  0.00  0.00    +0.037 A 
ATOM     26  C   UNL     1      -6.691  -6.303   1.115  0.00  0.00    +0.018 A 
BRANCH  25  27
ATOM     27  C   UNL     1      -8.893  -6.736   0.034  0.00  0.00    +0.242 C 
ATOM     28  O   UNL     1      -8.436  -7.691  -0.564  0.00  0.00    -0.270 OA
ATOM     29  N   UNL     1     -10.185  -6.392  -0.133  0.00  0.00    -0.325 N 
ATOM     30  H   UNL     1     -10.550  -5.630   0.344  0.00  0.00    +0.145 HD
ATOM     31  H   UNL     1     -10.751  -6.906  -0.731  0.00  0.00    +0.145 HD
ENDBRANCH  25  27
ENDBRANCH  20  21
ENDBRANCH   4  20
TORSDOF 8
