REMARK  Name = ZINC57028380
REMARK  4 active torsions:
REMARK  status: ('A' for Active; 'I' for Inactive)
REMARK    1  A    between atoms: C_6  and  O_28
REMARK    2  A    between atoms: C_7  and  C_11
REMARK    3  A    between atoms: N_13  and  N_14
REMARK    4  A    between atoms: C_15  and  C_17
REMARK                            x       y       z     vdW  Elec       q    Type
REMARK                         _______ _______ _______ _____ _____    ______ ____
ROOT
ATOM      1  C   UNL     1       2.578  -4.197  -0.045  0.00  0.00    +0.264 C 
ATOM      2  O   UNL     1       3.655  -4.760  -0.058  0.00  0.00    -0.269 OA
ATOM      3  N   UNL     1       1.440  -4.919  -0.038  0.00  0.00    -0.230 N 
ATOM      4  H   UNL     1       0.581  -4.470  -0.028  0.00  0.00    +0.173 HD
ENDROOT
BRANCH   1  11
ATOM      5  C   UNL     1      -0.016   1.356   0.009  0.00  0.00    +0.001 A 
ATOM      6  C   UNL     1       1.169   2.090   0.002  0.00  0.00    +0.001 A 
ATOM      7  C   UNL     1       2.379   1.467  -0.013  0.00  0.00    +0.008 A 
ATOM      8  C   UNL     1       2.440   0.063  -0.021  0.00  0.00    -0.014 A 
ATOM      9  C   UNL     1       3.675  -0.608  -0.036  0.00  0.00    +0.054 A 
ATOM     10  C   UNL     1       3.710  -1.970  -0.043  0.00  0.00    +0.130 A 
ATOM     11  C   UNL     1       2.516  -2.722  -0.036  0.00  0.00    +0.080 A 
ATOM     12  C   UNL     1       1.286  -2.085  -0.022  0.00  0.00    +0.025 A 
ATOM     13  C   UNL     1       1.234  -0.684  -0.013  0.00  0.00    -0.017 A 
ATOM     14  C   UNL     1       0.002  -0.004   0.002  0.00  0.00    +0.008 A 
BRANCH  10  15
ATOM     15  O   UNL     1       4.907  -2.611  -0.057  0.00  0.00    -0.506 OA
ATOM     16  H   UNL     1       5.262  -2.801   0.822  0.00  0.00    +0.292 HD
ENDBRANCH  10  15
ENDBRANCH   1  11
BRANCH   3  17
ATOM     17  N   UNL     1       1.499  -6.319  -0.047  0.00  0.00    -0.230 N 
ATOM     18  C   UNL     1       0.361  -7.041  -0.040  0.00  0.00    +0.260 C 
ATOM     19  O   UNL     1      -0.717  -6.478  -0.027  0.00  0.00    -0.269 OA
ATOM     20  H   UNL     1       2.358  -6.768  -0.057  0.00  0.00    +0.173 HD
BRANCH  18  21
ATOM     21  C   UNL     1       0.423  -8.515  -0.049  0.00  0.00    +0.040 A 
ATOM     22  C   UNL     1       1.663  -9.161  -0.058  0.00  0.00    +0.014 A 
ATOM     23  C   UNL     1       1.717 -10.537  -0.063  0.00  0.00    +0.017 A 
ATOM     24  C   UNL     1       0.544 -11.280  -0.061  0.00  0.00    +0.030 A 
ATOM     25  C   UNL     1      -0.704 -10.646  -0.056  0.00  0.00    +0.048 A 
ATOM     26  C   UNL     1      -0.757  -9.262  -0.042  0.00  0.00    +0.037 A 
ATOM     27  N   UNL     1      -1.891 -11.376  -0.063  0.00  0.00    -0.284 N 
ATOM     28  C   UNL     1      -2.040 -12.640   0.322  0.00  0.00    +0.227 C 
ATOM     29  O   UNL     1      -3.148 -13.130   0.264  0.00  0.00    -0.275 OA
ATOM     30  C   UNL     1      -0.911 -13.496   0.827  0.00  0.00    +0.170 C 
ATOM     31  S   UNL     1       0.609 -13.044  -0.063  0.00  0.00    -0.114 S 
ATOM     32  H   UNL     1      -2.684 -10.917  -0.380  0.00  0.00    +0.155 HD
ENDBRANCH  18  21
ENDBRANCH   3  17
TORSDOF 4
