REMARK  Name = ZINC04709482
REMARK  8 active torsions:
REMARK  status: ('A' for Active; 'I' for Inactive)
REMARK    1  A    between atoms: C_1  and  C_2
REMARK    2  A    between atoms: C_6  and  N_24
REMARK    3  A    between atoms: C_7  and  N_8
REMARK    4  A    between atoms: C_9  and  C_11
REMARK    5  A    between atoms: C_12  and  N_23
REMARK    6  A    between atoms: C_14  and  C_22
REMARK    7  A    between atoms: C_15  and  C_21
REMARK    8  A    between atoms: C_16  and  C_20
REMARK                            x       y       z     vdW  Elec       q    Type
REMARK                         _______ _______ _______ _____ _____    ______ ____
ROOT
ATOM      1  C   UNL     1       0.666   3.814   0.762  0.00  0.00    +0.097 A 
ATOM      2  C   UNL     1       1.662   4.731   1.013  0.00  0.00    +0.054 A 
ATOM      3  C   UNL     1       1.512   6.076   0.479  0.00  0.00    +0.030 A 
ATOM      4  C   UNL     1       2.393   7.180   0.601  0.00  0.00    -0.035 A 
ATOM      5  C   UNL     1       2.050   8.375   0.014  0.00  0.00    -0.028 A 
ATOM      6  C   UNL     1       0.857   8.496  -0.684  0.00  0.00    +0.017 A 
ATOM      7  N   UNL     1       0.040   7.468  -0.795  0.00  0.00    -0.352 N 
ATOM      8  C   UNL     1       0.324   6.303  -0.252  0.00  0.00    +0.088 A 
ATOM      9  S   UNL     1      -0.516   4.740  -0.198  0.00  0.00    -0.064 S 
ATOM     10  C   UNL     1       0.494   9.813  -1.321  0.00  0.00    +0.063 C 
ATOM     11  C   UNL     1       2.973   9.560   0.132  0.00  0.00    +0.046 C 
ATOM     12  C   UNL     1       3.688   7.045   1.361  0.00  0.00    +0.045 C 
ATOM     13  H   UNL     1      -0.904   7.572  -1.351  0.00  0.00    +0.166 HD
ENDROOT
BRANCH   1  15
ATOM     14  N   UNL     1      -0.471   1.707   0.834  0.00  0.00    -0.279 N 
ATOM     15  C   UNL     1       0.595   2.459   1.172  0.00  0.00    +0.257 C 
ATOM     16  O   UNL     1       1.498   1.975   1.831  0.00  0.00    -0.269 OA
ATOM     17  H   UNL     1      -1.242   2.116   0.165  0.00  0.00    +0.155 HD
BRANCH  14  24
ATOM     18  C   UNL     1       1.648  -0.129   0.346  0.00  0.00    +0.046 C 
ATOM     19  C   UNL     1       0.414  -0.521   1.119  0.00  0.00    -0.027 A 
ATOM     20  C   UNL     1       0.287  -1.805   1.613  0.00  0.00    +0.005 A 
ATOM     21  C   UNL     1      -0.844  -2.165   2.322  0.00  0.00    +0.003 A 
ATOM     22  C   UNL     1      -1.852  -1.243   2.537  0.00  0.00    +0.034 A 
ATOM     23  C   UNL     1      -1.729   0.043   2.050  0.00  0.00    +0.148 A 
ATOM     24  C   UNL     1      -0.596   0.407   1.333  0.00  0.00    +0.067 A 
BRANCH  23  25
ATOM     25  N   UNL     1      -2.805   1.031   2.287  0.00  0.00    +0.058 N 
ATOM     26  O   UNL     1      -3.846   0.683   2.816  0.00  0.00    -0.126 OA
ATOM     27  O   UNL     1      -2.650   2.192   1.953  0.00  0.00    -0.126 OA
ENDBRANCH  23  25
ENDBRANCH  14  24
ENDBRANCH   1  15
BRANCH   2  28
ATOM     28  N   UNL     1       2.781   4.381   1.755  0.00  0.00    -0.356 N 
ATOM     29  H   UNL     1       3.568   5.125   1.948  0.00  0.00    +0.142 HD
ATOM     30  H   UNL     1       2.882   3.359   2.150  0.00  0.00    +0.142 HD
ENDBRANCH   2  28
TORSDOF 4
