REMARK  Name = ZINC60346134
REMARK  9 active torsions:
REMARK  status: ('A' for Active; 'I' for Inactive)
REMARK    1  A    between atoms: C_1  and  C_2
REMARK    2  A    between atoms: C_5  and  C_7
REMARK    3  A    between atoms: C_7  and  C_31
REMARK    4  A    between atoms: N_10  and  C_14
REMARK    5  A    between atoms: C_14  and  C_15
REMARK    6  A    between atoms: N_17  and  C_18
REMARK    7  A    between atoms: C_19  and  C_27
REMARK    8  A    between atoms: C_27  and  O_29
REMARK    9  A    between atoms: O_29  and  C_30
REMARK                            x       y       z     vdW  Elec       q    Type
REMARK                         _______ _______ _______ _____ _____    ______ ____
ROOT
ATOM      1  C   UNL     1       3.625  -3.018   3.968  0.00  0.00    +0.236 C 
ATOM      2  O   UNL     1       2.580  -2.403   3.948  0.00  0.00    -0.274 OA
ATOM      3  N   UNL     1       4.444  -2.920   5.034  0.00  0.00    -0.278 N 
ATOM      4  H   UNL     1       5.280  -3.412   5.050  0.00  0.00    +0.155 HD
ENDROOT
BRANCH   3   5
ATOM      5  C   UNL     1       4.093  -2.116   6.106  0.00  0.00    +0.086 A 
ATOM      6  C   UNL     1       4.807  -1.891   7.274  0.00  0.00    +0.091 A 
ATOM      7  C   UNL     1       4.214  -0.995   8.252  0.00  0.00    -0.021 A 
ATOM      8  C   UNL     1       3.017  -0.490   7.885  0.00  0.00    -0.004 A 
ATOM      9  S   UNL     1       2.707  -1.184   6.288  0.00  0.00    -0.077 S 
ATOM     10  C   UNL     1       2.159   0.453   8.671  0.00  0.00    +0.043 C 
ATOM     11  C   UNL     1       2.663   0.468  10.122  0.00  0.00    +0.005 C 
ATOM     12  C   UNL     1       4.185   0.640  10.116  0.00  0.00    +0.005 C 
ATOM     13  C   UNL     1       4.851  -0.631   9.585  0.00  0.00    +0.037 C 
BRANCH   6  14
ATOM     14  C   UNL     1       6.104  -2.529   7.510  0.00  0.00    +0.342 C 
ATOM     15  O   UNL     1       7.127  -1.976   7.154  0.00  0.00    -0.245 OA
BRANCH  14  16
ATOM     16  O   UNL     1       6.163  -3.729   8.122  0.00  0.00    -0.464 OA
ATOM     17  C   UNL     1       7.462  -4.293   8.320  0.00  0.00    +0.280 C 
ENDBRANCH  14  16
ENDBRANCH   6  14
ENDBRANCH   3   5
BRANCH   1  18
ATOM     18  C   UNL     1       4.007  -3.893   2.802  0.00  0.00    +0.214 C 
BRANCH  18  22
ATOM     19  C   UNL     1       1.684  -3.245  -0.023  0.00  0.00    +0.168 C 
ATOM     20  C   UNL     1       2.935  -2.933   0.774  0.00  0.00    +0.254 C 
ATOM     21  O   UNL     1       3.745  -2.059   0.553  0.00  0.00    -0.272 OA
ATOM     22  N   UNL     1       2.959  -3.830   1.780  0.00  0.00    -0.215 N 
ATOM     23  C   UNL     1       1.908  -4.656   1.730  0.00  0.00    +0.310 C 
ATOM     24  O   UNL     1       1.712  -5.549   2.531  0.00  0.00    -0.252 OA
ATOM     25  N   UNL     1       1.093  -4.388   0.694  0.00  0.00    -0.279 N 
ATOM     26  C   UNL     1       2.040  -3.636  -1.458  0.00  0.00    +0.050 C 
ATOM     27  H   UNL     1       0.275  -4.856   0.464  0.00  0.00    +0.152 HD
BRANCH  19  32
ATOM     28  C   UNL     1      -0.018   1.503   0.010  0.00  0.00    +0.086 C 
ATOM     29  C   UNL     1       0.002  -0.004   0.002  0.00  0.00    +0.102 A 
ATOM     30  C   UNL     1      -1.078  -0.805   0.003  0.00  0.00    +0.045 A 
ATOM     31  C   UNL     1      -0.601  -2.136  -0.007  0.00  0.00    +0.047 A 
ATOM     32  C   UNL     1       0.742  -2.069  -0.013  0.00  0.00    +0.137 A 
ATOM     33  O   UNL     1       1.102  -0.775  -0.013  0.00  0.00    -0.462 OA
ENDBRANCH  19  32
ENDBRANCH  18  22
ENDBRANCH   1  18
TORSDOF 6
