REMARK  Name = ZINC30943595
REMARK  7 active torsions:
REMARK  status: ('A' for Active; 'I' for Inactive)
REMARK    1  A    between atoms: C_1  and  C_2
REMARK    2  A    between atoms: N_8  and  S_26
REMARK    3  A    between atoms: C_10  and  C_13
REMARK    4  A    between atoms: N_15  and  C_16
REMARK    5  A    between atoms: C_20  and  N_22
REMARK    6  A    between atoms: C_23  and  C_25
REMARK    7  A    between atoms: S_26  and  C_29
REMARK                            x       y       z     vdW  Elec       q    Type
REMARK                         _______ _______ _______ _____ _____    ______ ____
ROOT
ATOM      1  C   UNL     1      -2.529   4.645  -0.199  0.00  0.00    +0.044 C 
ATOM      2  C   UNL     1      -1.349   3.708  -0.176  0.00  0.00    -0.048 A 
ATOM      3  C   UNL     1      -1.554   2.341  -0.158  0.00  0.00    +0.007 A 
ATOM      4  C   UNL     1      -0.476   1.475  -0.130  0.00  0.00    +0.048 A 
ATOM      5  C   UNL     1       0.817   1.975  -0.131  0.00  0.00    +0.144 A 
ATOM      6  C   UNL     1       1.020   3.352  -0.156  0.00  0.00    +0.093 A 
ATOM      7  C   UNL     1      -0.064   4.216  -0.177  0.00  0.00    +0.031 A 
ATOM      8  N   UNL     1       2.328   3.864  -0.162  0.00  0.00    -0.200 N 
ATOM      9  C   UNL     1       3.426   2.939   0.169  0.00  0.00    +0.185 C 
ATOM     10  C   UNL     1       3.140   1.607  -0.540  0.00  0.00    +0.278 C 
ATOM     11  O   UNL     1       1.870   1.117  -0.104  0.00  0.00    -0.476 OA
ENDROOT
BRANCH  10  12
ATOM     12  C   UNL     1       4.214   0.610  -0.191  0.00  0.00    +0.260 C 
ATOM     13  O   UNL     1       3.937  -0.379   0.455  0.00  0.00    -0.271 OA
ATOM     14  N   UNL     1       5.483   0.815  -0.597  0.00  0.00    -0.282 N 
ATOM     15  H   UNL     1       5.752   1.752  -1.107  0.00  0.00    +0.155 HD
BRANCH  14  16
ATOM     16  C   UNL     1       6.458  -0.162  -0.369  0.00  0.00    +0.035 A 
ATOM     17  C   UNL     1       7.769   0.212  -0.102  0.00  0.00    +0.023 A 
ATOM     18  C   UNL     1       8.731  -0.753   0.128  0.00  0.00    +0.004 A 
ATOM     19  C   UNL     1       8.395  -2.092   0.083  0.00  0.00    +0.023 A 
ATOM     20  C   UNL     1       7.087  -2.473  -0.189  0.00  0.00    +0.035 A 
ATOM     21  C   UNL     1       6.117  -1.506  -0.415  0.00  0.00    +0.046 A 
BRANCH  20  22
ATOM     22  N   UNL     1       6.747  -3.830  -0.234  0.00  0.00    -0.286 N 
ATOM     23  C   UNL     1       7.627  -4.729  -0.717  0.00  0.00    +0.214 C 
ATOM     24  O   UNL     1       8.741  -4.374  -1.040  0.00  0.00    -0.276 OA
ATOM     25  C   UNL     1       7.227  -6.175  -0.856  0.00  0.00    +0.109 C 
ATOM     26  H   UNL     1       5.762  -4.162   0.126  0.00  0.00    +0.155 HD
ENDBRANCH  20  22
ENDBRANCH  14  16
ENDBRANCH  10  12
BRANCH   8  27
ATOM     27  S   UNL     1       2.625   5.451  -0.529  0.00  0.00    +0.043 S 
ATOM     28  O   UNL     1       4.004   5.492  -0.869  0.00  0.00    -0.155 OA
ATOM     29  O   UNL     1       1.632   5.794  -1.486  0.00  0.00    -0.155 OA
ATOM     30  C   UNL     1       2.337   6.349   1.020  0.00  0.00    +0.218 C 
ENDBRANCH   8  27
TORSDOF 4
