REMARK  Name = ZINC09379861
REMARK  9 active torsions:
REMARK  status: ('A' for Active; 'I' for Inactive)
REMARK    1  A    between atoms: C_1  and  C_2
REMARK    2  A    between atoms: C_9  and  N_33
REMARK    3  A    between atoms: C_10  and  C_31
REMARK    4  A    between atoms: C_11  and  C_13
REMARK    5  A    between atoms: C_15  and  O_29
REMARK    6  A    between atoms: C_16  and  O_20
REMARK    7  A    between atoms: O_20  and  C_21
REMARK    8  A    between atoms: C_21  and  C_22
REMARK    9  A    between atoms: O_29  and  C_30
REMARK                            x       y       z     vdW  Elec       q    Type
REMARK                         _______ _______ _______ _____ _____    ______ ____
ROOT
ATOM      1  C   UNL     1      -1.368   0.111  -2.922  0.00  0.00    -0.030 A 
ATOM      2  C   UNL     1      -1.500   1.395  -3.417  0.00  0.00    +0.054 A 
ATOM      3  C   UNL     1      -2.751   1.879  -3.764  0.00  0.00    +0.163 A 
ATOM      4  C   UNL     1      -3.873   1.070  -3.614  0.00  0.00    +0.176 A 
ATOM      5  C   UNL     1      -3.734  -0.217  -3.118  0.00  0.00    +0.063 A 
ATOM      6  C   UNL     1      -2.481  -0.695  -2.777  0.00  0.00    +0.023 A 
ATOM      7 BR   UNL     1      -5.256  -1.320  -2.912  0.00  0.00    -0.046 Br
ENDROOT
BRANCH   1  18
ATOM      8  C   UNL     1      -0.018   1.503   0.010  0.00  0.00    +0.065 C 
ATOM      9  C   UNL     1       0.002  -0.004   0.002  0.00  0.00    +0.041 A 
ATOM     10  C   UNL     1       0.008  -0.790  -1.085  0.00  0.00    +0.049 A 
ATOM     11  C   UNL     1       0.030  -2.135  -0.654  0.00  0.00    +0.245 A 
ATOM     12  N   UNL     1       0.036  -2.141   0.647  0.00  0.00    -0.135 NA
ATOM     13  N   UNL     1       0.024  -0.809   1.090  0.00  0.00    -0.278 N 
ATOM     14  H   UNL     1       0.028  -0.516   2.015  0.00  0.00    +0.189 HD
ATOM     15  O   UNL     1       0.045  -3.173  -1.533  0.00  0.00    -0.421 OA
ATOM     16  C   UNL     1       0.309  -2.890  -2.824  0.00  0.00    +0.201 C 
ATOM     17  C   UNL     1       0.305  -1.648  -3.351  0.00  0.00    +0.098 C 
ATOM     18  C   UNL     1      -0.006  -0.413  -2.545  0.00  0.00    +0.101 C 
BRANCH  16  19
ATOM     19  N   UNL     1       0.604  -3.938  -3.660  0.00  0.00    -0.328 N 
ATOM     20  H   UNL     1       0.617  -4.845  -3.315  0.00  0.00    +0.145 HD
ATOM     21  H   UNL     1       0.800  -3.772  -4.595  0.00  0.00    +0.145 HD
ENDBRANCH  16  19
BRANCH  17  22
ATOM     22  C   UNL     1       0.611  -1.496  -4.742  0.00  0.00    +0.101 C 
ATOM     23  N   UNL     1       0.853  -1.376  -5.846  0.00  0.00    -0.191 NA
ENDBRANCH  17  22
ENDBRANCH   1  18
BRANCH   3  24
ATOM     24  O   UNL     1      -2.882   3.143  -4.250  0.00  0.00    -0.491 OA
ATOM     25  C   UNL     1      -1.687   3.916  -4.377  0.00  0.00    +0.277 C 
ENDBRANCH   3  24
BRANCH   4  26
ATOM     26  O   UNL     1      -5.103   1.541  -3.953  0.00  0.00    -0.483 OA
BRANCH  26  27
ATOM     27  C   UNL     1      -5.531   1.326  -5.299  0.00  0.00    +0.266 C 
BRANCH  27  28
ATOM     28  C   UNL     1      -6.907   1.911  -5.488  0.00  0.00    +0.008 A 
ATOM     29  C   UNL     1      -7.542   2.540  -4.433  0.00  0.00    +0.008 A 
ATOM     30  C   UNL     1      -8.803   3.077  -4.606  0.00  0.00    +0.000 A 
ATOM     31  C   UNL     1      -9.432   2.985  -5.834  0.00  0.00    +0.001 A 
ATOM     32  C   UNL     1      -8.799   2.357  -6.890  0.00  0.00    +0.020 A 
ATOM     33  C   UNL     1      -7.533   1.824  -6.719  0.00  0.00    +0.047 A 
ATOM     34 CL   UNL     1      -6.734   1.041  -8.046  0.00  0.00    -0.083 Cl
ENDBRANCH  27  28
ENDBRANCH  26  27
ENDBRANCH   4  26
TORSDOF 7
