REMARK  Name = ZINC07629083
REMARK  13 active torsions:
REMARK  status: ('A' for Active; 'I' for Inactive)
REMARK    1  A    between atoms: C_1  and  C_2
REMARK    2  A    between atoms: C_8  and  N_10
REMARK    3  A    between atoms: C_14  and  C_16
REMARK    4  A    between atoms: C_16  and  O_17
REMARK    5  A    between atoms: O_17  and  C_18
REMARK    6  A    between atoms: C_18  and  C_20
REMARK    7  A    between atoms: C_20  and  C_21
REMARK    8  A    between atoms: C_21  and  N_22
REMARK    9  A    between atoms: C_23  and  O_25
REMARK   10  A    between atoms: O_25  and  C_26
REMARK   11  A    between atoms: C_26  and  C_27
REMARK   12  A    between atoms: C_26  and  C_28
REMARK   13  A    between atoms: C_26  and  C_29
REMARK                            x       y       z     vdW  Elec       q    Type
REMARK                         _______ _______ _______ _____ _____    ______ ____
ROOT
ATOM      1  N   UNL     1       2.116  -0.004   1.231  0.00  0.00    -0.296 N 
ATOM      2  C   UNL     1       2.795   0.128   2.388  0.00  0.00    +0.306 C 
ATOM      3  O   UNL     1       2.267  -0.174   3.440  0.00  0.00    -0.252 OA
ATOM      4  N   UNL     1       4.059   0.594   2.379  0.00  0.00    -0.237 N 
ATOM      5  C   UNL     1       4.738   0.726   3.536  0.00  0.00    +0.258 C 
ATOM      6  O   UNL     1       4.211   0.424   4.585  0.00  0.00    -0.272 OA
ATOM      7  H   UNL     1       2.538   0.237   0.392  0.00  0.00    +0.151 HD
ATOM      8  H   UNL     1       4.481   0.835   1.539  0.00  0.00    +0.159 HD
ENDROOT
BRANCH   1  15
ATOM      9  C   UNL     1      -0.019   1.526   0.010  0.00  0.00    +0.009 C 
ATOM     10  C   UNL     1       0.002  -0.004   0.002  0.00  0.00    +0.006 C 
ATOM     11  C   UNL     1       0.718  -0.497  -1.257  0.00  0.00    +0.005 C 
ATOM     12  C   UNL     1       0.739  -2.027  -1.265  0.00  0.00    +0.000 C 
ATOM     13  C   UNL     1       1.479  -2.534  -0.026  0.00  0.00    +0.002 C 
ATOM     14  C   UNL     1       0.763  -2.041   1.233  0.00  0.00    +0.022 C 
ATOM     15  C   UNL     1       0.742  -0.511   1.242  0.00  0.00    +0.077 C 
ENDBRANCH   1  15
BRANCH   5  16
ATOM     16  C   UNL     1       6.152   1.247   3.525  0.00  0.00    +0.328 C 
BRANCH  16  17
ATOM     17  O   UNL     1       6.652   1.295   4.863  0.00  0.00    -0.455 OA
BRANCH  17  18
ATOM     18  C   UNL     1       7.907   1.740   5.028  0.00  0.00    +0.309 C 
ATOM     19  O   UNL     1       8.560   2.079   4.069  0.00  0.00    -0.251 OA
BRANCH  18  20
ATOM     20  C   UNL     1       8.503   1.818   6.410  0.00  0.00    +0.139 C 
BRANCH  20  21
ATOM     21  C   UNL     1       9.933   2.354   6.320  0.00  0.00    +0.118 C 
BRANCH  21  22
ATOM     22  N   UNL     1      10.512   2.430   7.663  0.00  0.00    -0.281 N 
ATOM     23  C   UNL     1      11.773   2.877   7.830  0.00  0.00    +0.401 C 
ATOM     24  O   UNL     1      12.429   3.217   6.865  0.00  0.00    -0.226 OA
ATOM     25  H   UNL     1       9.989   2.159   8.433  0.00  0.00    +0.152 HD
BRANCH  23  26
ATOM     26  O   UNL     1      12.305   2.947   9.065  0.00  0.00    -0.445 OA
BRANCH  26  27
ATOM     27  C   UNL     1      13.646   3.430   9.167  0.00  0.00    +0.107 C 
ATOM     28  C   UNL     1      13.720   4.852   8.606  0.00  0.00    +0.055 C 
ATOM     29  C   UNL     1      14.075   3.438  10.635  0.00  0.00    +0.055 C 
ATOM     30  C   UNL     1      14.579   2.518   8.368  0.00  0.00    +0.055 C 
ENDBRANCH  26  27
ENDBRANCH  23  26
ENDBRANCH  21  22
ENDBRANCH  20  21
ENDBRANCH  18  20
ENDBRANCH  17  18
ENDBRANCH  16  17
ENDBRANCH   5  16
TORSDOF 9
