REMARK  Name = ZINC67318049
REMARK  6 active torsions:
REMARK  status: ('A' for Active; 'I' for Inactive)
REMARK    1  A    between atoms: C_1  and  C_2
REMARK    2  A    between atoms: C_7  and  C_11
REMARK    3  A    between atoms: C_11  and  N_12
REMARK    4  A    between atoms: N_15  and  C_16
REMARK    5  A    between atoms: C_20  and  S_22
REMARK    6  A    between atoms: S_22  and  C_25
REMARK                            x       y       z     vdW  Elec       q    Type
REMARK                         _______ _______ _______ _____ _____    ______ ____
ROOT
ATOM      1  N   UNL     1       1.470  -5.883   2.650  0.00  0.00    -0.294 N 
ATOM      2  C   UNL     1       1.732  -7.013   3.336  0.00  0.00    +0.304 C 
ATOM      3  O   UNL     1       0.822  -7.746   3.672  0.00  0.00    -0.252 OA
ATOM      4  N   UNL     1       3.003  -7.331   3.651  0.00  0.00    -0.269 N 
ATOM      5  H   UNL     1       2.196  -5.299   2.382  0.00  0.00    +0.151 HD
ATOM      6  H   UNL     1       3.735  -6.783   3.325  0.00  0.00    +0.156 HD
ENDROOT
BRANCH   4   7
ATOM      7  C   UNL     1       3.269  -8.451   4.446  0.00  0.00    +0.037 A 
ATOM      8  C   UNL     1       2.482  -9.590   4.329  0.00  0.00    +0.023 A 
ATOM      9  C   UNL     1       2.746 -10.694   5.115  0.00  0.00    +0.004 A 
ATOM     10  C   UNL     1       3.793 -10.667   6.018  0.00  0.00    +0.027 A 
ATOM     11  C   UNL     1       4.578  -9.535   6.138  0.00  0.00    +0.096 A 
ATOM     12  C   UNL     1       4.322  -8.429   5.350  0.00  0.00    +0.050 A 
BRANCH  11  13
ATOM     13  S   UNL     1       5.909  -9.505   7.291  0.00  0.00    +0.058 S 
ATOM     14  O   UNL     1       6.082  -8.131   7.610  0.00  0.00    -0.164 OA
ATOM     15  O   UNL     1       5.540 -10.440   8.295  0.00  0.00    -0.164 OA
BRANCH  13  16
ATOM     16  C   UNL     1       7.343 -10.117   6.364  0.00  0.00    +0.485 C 
ATOM     17  F   UNL     1       7.084 -11.413   5.906  0.00  0.00    -0.183 F 
ATOM     18  F   UNL     1       7.586  -9.276   5.272  0.00  0.00    -0.183 F 
ENDBRANCH  13  16
ENDBRANCH  11  13
ENDBRANCH   4   7
BRANCH   1  19
ATOM     19  C   UNL     1       0.087  -5.538   2.308  0.00  0.00    +0.160 C 
BRANCH  19  26
ATOM     20  C   UNL     1      -0.008   1.486  -0.037  0.00  0.00    +0.044 C 
ATOM     21  C   UNL     1       0.009  -0.021  -0.036  0.00  0.00    -0.046 A 
ATOM     22  C   UNL     1       0.008  -0.727  -1.250  0.00  0.00    +0.021 A 
ATOM     23  C   UNL     1       0.024  -2.076  -1.253  0.00  0.00    +0.093 A 
ATOM     24  N   UNL     1       0.041  -2.773  -0.080  0.00  0.00    -0.308 N 
ATOM     25  C   UNL     1       0.057  -4.112   0.201  0.00  0.00    +0.115 A 
ATOM     26  C   UNL     1       0.068  -4.238   1.547  0.00  0.00    +0.051 A 
ATOM     27  N   UNL     1       0.058  -3.018   2.089  0.00  0.00    -0.342 N 
ATOM     28  C   UNL     1       0.042  -2.112   1.121  0.00  0.00    +0.116 A 
ATOM     29  C   UNL     1       0.031  -0.703   1.140  0.00  0.00    +0.048 A 
ATOM     30  H   UNL     1       0.063  -2.825   3.039  0.00  0.00    +0.167 HD
ENDBRANCH  19  26
ENDBRANCH   1  19
TORSDOF 5
