REMARK  Name = ZINC43735785
REMARK  15 active torsions:
REMARK  status: ('A' for Active; 'I' for Inactive)
REMARK    1  A    between atoms: C_1  and  C_2
REMARK    2  A    between atoms: C_19  and  C_21
REMARK    3  A    between atoms: C_21  and  N_22
REMARK    4  A    between atoms: N_22  and  C_23
REMARK    5  A    between atoms: N_22  and  C_24
REMARK    6  A    between atoms: C_24  and  C_25
REMARK    7  A    between atoms: C_25  and  C_27
REMARK    8  A    between atoms: C_25  and  O_38
REMARK    9  A    between atoms: C_27  and  C_29
REMARK   10  A    between atoms: C_27  and  O_37
REMARK   11  A    between atoms: C_29  and  C_31
REMARK   12  A    between atoms: C_29  and  O_36
REMARK   13  A    between atoms: C_31  and  C_33
REMARK   14  A    between atoms: C_31  and  O_35
REMARK   15  A    between atoms: C_33  and  O_34
REMARK                            x       y       z     vdW  Elec       q    Type
REMARK                         _______ _______ _______ _____ _____    ______ ____
ROOT
ATOM      1  N   UNL     1      -0.664  -1.636   5.036  0.00  0.00    +0.380 N 
ATOM      2  C   UNL     1       0.291  -2.552   4.399  0.00  0.00    -0.096 C 
ATOM      3  H   UNL     1      -0.431  -0.685   4.792  0.00  0.00    -0.082 HD
ENDROOT
BRANCH   1   4
ATOM      4  C   UNL     1      -2.023  -1.943   4.570  0.00  0.00    -0.064 C 
BRANCH   4  20
ATOM      5  C   UNL     1      -1.169   1.665   0.053  0.00  0.00    +0.012 C 
ATOM      6  C   UNL     1      -1.171   0.135   0.031  0.00  0.00    -0.022 C 
ATOM      7  C   UNL     1      -0.756  -0.358  -1.354  0.00  0.00    +0.007 C 
ATOM      8  C   UNL     1       0.608   0.229  -1.723  0.00  0.00    +0.005 C 
ATOM      9  C   UNL     1       1.668  -0.279  -0.741  0.00  0.00    +0.030 C 
ATOM     10  C   UNL     1       1.213   0.030   0.669  0.00  0.00    -0.073 C 
ATOM     11  C   UNL     1       2.002   0.649   1.511  0.00  0.00    +0.008 C 
ATOM     12  C   UNL     1      -0.179  -0.396   1.076  0.00  0.00    +0.021 C 
ATOM     13  C   UNL     1      -0.534   0.240   2.419  0.00  0.00    +0.016 C 
ATOM     14  C   UNL     1      -1.942  -0.106   2.838  0.00  0.00    +0.042 C 
ATOM     15  C   UNL     1      -3.001   0.155   1.749  0.00  0.00    +0.181 C 
ATOM     16  C   UNL     1      -2.560  -0.380   0.395  0.00  0.00    +0.052 C 
ATOM     17  O   UNL     1      -4.088  -0.701   2.200  0.00  0.00    -0.461 OA
ATOM     18  C   UNL     1      -3.546  -1.873   2.595  0.00  0.00    +0.309 C 
ATOM     19  O   UNL     1      -4.094  -2.949   2.558  0.00  0.00    -0.251 OA
ATOM     20  C   UNL     1      -2.137  -1.615   3.080  0.00  0.00    +0.088 C 
ENDBRANCH   4  20
ENDBRANCH   1   4
BRANCH   1  21
ATOM     21  C   UNL     1      -0.599  -1.796   6.495  0.00  0.00    -0.045 C 
BRANCH  21  22
ATOM     22  C   UNL     1       0.759  -1.306   7.002  0.00  0.00    +0.129 C 
BRANCH  22  23
ATOM     23  O   UNL     1       1.790  -2.164   6.509  0.00  0.00    -0.391 OA
ATOM     24  H   UNL     1       1.699  -3.086   6.785  0.00  0.00    +0.210 HD
ENDBRANCH  22  23
BRANCH  22  25
ATOM     25  C   UNL     1       0.769  -1.323   8.531  0.00  0.00    +0.172 C 
BRANCH  25  26
ATOM     26  O   UNL     1      -0.262  -0.464   9.024  0.00  0.00    -0.387 OA
ATOM     27  H   UNL     1      -0.171   0.458   8.748  0.00  0.00    +0.210 HD
ENDBRANCH  25  26
BRANCH  25  28
ATOM     28  C   UNL     1       2.127  -0.832   9.038  0.00  0.00    +0.176 C 
BRANCH  28  29
ATOM     29  O   UNL     1       3.157  -1.691   8.546  0.00  0.00    -0.387 OA
ATOM     30  H   UNL     1       3.066  -2.613   8.821  0.00  0.00    +0.210 HD
ENDBRANCH  28  29
BRANCH  28  31
ATOM     31  C   UNL     1       2.136  -0.849  10.568  0.00  0.00    +0.171 C 
BRANCH  31  32
ATOM     32  O   UNL     1       1.106   0.009  11.061  0.00  0.00    -0.387 OA
ATOM     33  H   UNL     1       1.197   0.932  10.785  0.00  0.00    +0.210 HD
ENDBRANCH  31  32
BRANCH  31  34
ATOM     34  C   UNL     1       3.494  -0.359  11.075  0.00  0.00    +0.189 C 
BRANCH  34  35
ATOM     35  O   UNL     1       3.545  -0.484  12.498  0.00  0.00    -0.392 OA
ATOM     36  H   UNL     1       4.380  -0.191  12.889  0.00  0.00    +0.210 HD
ENDBRANCH  34  35
ENDBRANCH  31  34
ENDBRANCH  28  31
ENDBRANCH  25  28
ENDBRANCH  22  25
ENDBRANCH  21  22
ENDBRANCH   1  21
TORSDOF 13
