REMARK  Name = ZINC40397324
REMARK  5 active torsions:
REMARK  status: ('A' for Active; 'I' for Inactive)
REMARK    1  A    between atoms: C_1  and  C_2
REMARK    2  A    between atoms: C_5  and  C_11
REMARK    3  A    between atoms: C_5  and  N_16
REMARK    4  A    between atoms: C_7  and  C_9
REMARK    5  A    between atoms: C_7  and  C_10
REMARK                            x       y       z     vdW  Elec       q    Type
REMARK                         _______ _______ _______ _____ _____    ______ ____
ROOT
ATOM      1  C   UNL     1      -0.365   1.442  -0.186  0.00  0.00    +0.007 C 
ATOM      2  C   UNL     1      -0.380  -0.091  -0.199  0.00  0.00    -0.014 C 
ATOM      3  C   UNL     1      -1.825  -0.578  -0.083  0.00  0.00    -0.002 C 
ATOM      4  C   UNL     1      -1.868  -2.104  -0.132  0.00  0.00    -0.005 C 
ATOM      5  C   UNL     1      -0.974  -2.727   0.926  0.00  0.00    +0.001 C 
ATOM      6  C   UNL     1       0.421  -2.135   1.027  0.00  0.00    -0.035 C 
ATOM      7  C   UNL     1       0.412  -0.610   0.999  0.00  0.00    +0.009 C 
ATOM      8  C   UNL     1       1.330  -2.675  -0.081  0.00  0.00    +0.011 C 
ATOM      9  C   UNL     1       1.029  -2.575   2.377  0.00  0.00    +0.011 C 
ENDROOT
BRANCH   4  10
ATOM     10  C   UNL     1      -3.287  -2.533   0.139  0.00  0.00    +0.166 A 
ATOM     11  N   UNL     1      -3.715  -3.218   1.185  0.00  0.00    -0.113 NA
ATOM     12  N   UNL     1      -4.986  -3.384   1.049  0.00  0.00    -0.021 NA
ATOM     13  N   UNL     1      -5.365  -2.825  -0.048  0.00  0.00    -0.021 NA
ATOM     14  N   UNL     1      -4.340  -2.292  -0.620  0.00  0.00    -0.113 NA
ENDBRANCH   4  10
BRANCH   4  15
ATOM     15  N   UNL     1      -1.512  -2.575  -1.477  0.00  0.00    +0.387 N 
ATOM     16  H   UNL     1      -0.626  -2.176  -1.749  0.00  0.00    -0.089 HD
ATOM     17  H   UNL     1      -1.440  -3.581  -1.472  0.00  0.00    -0.089 HD
ATOM     18  H   UNL     1      -2.224  -2.291  -2.132  0.00  0.00    -0.089 HD
ENDBRANCH   4  15
TORSDOF 2
