REMARK  Name = ZINC65747905
REMARK  17 active torsions:
REMARK  status: ('A' for Active; 'I' for Inactive)
REMARK    1  A    between atoms: C_1  and  C_2
REMARK    2  A    between atoms: C_5  and  O_35
REMARK    3  A    between atoms: C_6  and  C_10
REMARK    4  A    between atoms: C_7  and  O_8
REMARK    5  A    between atoms: O_8  and  C_9
REMARK    6  A    between atoms: C_10  and  C_11
REMARK    7  A    between atoms: C_12  and  C_13
REMARK    8  A    between atoms: C_12  and  C_14
REMARK    9  A    between atoms: C_14  and  C_15
REMARK   10  A    between atoms: C_15  and  C_16
REMARK   11  A    between atoms: C_16  and  O_18
REMARK   12  A    between atoms: O_18  and  C_19
REMARK   13  A    between atoms: C_21  and  O_34
REMARK   14  A    between atoms: C_23  and  O_33
REMARK   15  A    between atoms: C_25  and  O_32
REMARK   16  A    between atoms: C_27  and  C_30
REMARK   17  A    between atoms: C_30  and  O_31
REMARK                            x       y       z     vdW  Elec       q    Type
REMARK                         _______ _______ _______ _____ _____    ______ ____
ROOT
ATOM      1  C   UNL     1       3.386  -2.536   4.344  0.00  0.00    +0.041 C 
ENDROOT
BRANCH   1   3
ATOM      2  C   UNL     1       1.452  -3.248   3.036  0.00  0.00    -0.023 C 
ATOM      3  C   UNL     1       1.904  -2.598   4.079  0.00  0.00    -0.076 C 
ATOM      4  C   UNL     1       0.943  -1.911   5.014  0.00  0.00    +0.039 C 
BRANCH   2   5
ATOM      5  C   UNL     1      -0.033  -3.429   2.846  0.00  0.00    +0.069 C 
BRANCH   5  11
ATOM      6  C   UNL     1      -0.632  -7.391  -0.171  0.00  0.00    +0.048 C 
ATOM      7  C   UNL     1      -0.629  -6.797   1.214  0.00  0.00    -0.001 A 
ATOM      8  C   UNL     1      -0.907  -7.588   2.300  0.00  0.00    +0.014 A 
ATOM      9  C   UNL     1      -0.906  -7.044   3.590  0.00  0.00    +0.107 A 
ATOM     10  C   UNL     1      -0.620  -5.682   3.766  0.00  0.00    +0.138 A 
ATOM     11  C   UNL     1      -0.341  -4.892   2.663  0.00  0.00    +0.040 A 
ATOM     12  C   UNL     1      -0.339  -5.446   1.391  0.00  0.00    +0.130 A 
ATOM     13  C   UNL     1      -1.234  -8.124   4.529  0.00  0.00    +0.343 C 
ATOM     14  O   UNL     1      -1.319  -7.997   5.735  0.00  0.00    -0.245 OA
ATOM     15  O   UNL     1      -1.428  -9.274   3.861  0.00  0.00    -0.456 OA
ATOM     16  C   UNL     1      -1.247  -9.048   2.461  0.00  0.00    +0.269 C 
BRANCH  12  17
ATOM     17  O   UNL     1      -0.059  -4.668   0.316  0.00  0.00    -0.494 OA
ATOM     18  C   UNL     1      -1.162  -4.014  -0.317  0.00  0.00    +0.277 C 
ENDBRANCH  12  17
BRANCH  10  19
ATOM     19  O   UNL     1      -0.616  -5.141   5.010  0.00  0.00    -0.506 OA
ATOM     20  H   UNL     1       0.244  -5.175   5.451  0.00  0.00    +0.292 HD
ENDBRANCH  10  19
ENDBRANCH   5  11
ENDBRANCH   2   5
ENDBRANCH   1   3
BRANCH   1  21
ATOM     21  C   UNL     1       3.958  -1.247   3.749  0.00  0.00    +0.125 C 
BRANCH  21  22
ATOM     22  C   UNL     1       5.440  -1.185   4.014  0.00  0.00    +0.310 C 
ATOM     23  O   UNL     1       5.984  -2.080   4.616  0.00  0.00    -0.251 OA
BRANCH  22  24
ATOM     24  O   UNL     1       6.156  -0.136   3.580  0.00  0.00    -0.432 OA
BRANCH  24  25
ATOM     25  C   UNL     1       7.556  -0.143   3.866  0.00  0.00    +0.342 C 
ATOM     26  C   UNL     1       8.221   1.060   3.193  0.00  0.00    +0.214 C 
ATOM     27  C   UNL     1       7.634   2.350   3.775  0.00  0.00    +0.180 C 
ATOM     28  C   UNL     1       7.835   2.349   5.293  0.00  0.00    +0.177 C 
ATOM     29  C   UNL     1       7.185   1.096   5.886  0.00  0.00    +0.179 C 
ATOM     30  O   UNL     1       7.754  -0.066   5.280  0.00  0.00    -0.331 OA
BRANCH  28  31
ATOM     31  O   UNL     1       9.233   2.349   5.590  0.00  0.00    -0.386 OA
ATOM     32  H   UNL     1       9.709   3.115   5.240  0.00  0.00    +0.210 HD
ENDBRANCH  28  31
BRANCH  27  33
ATOM     33  O   UNL     1       8.300   3.478   3.204  0.00  0.00    -0.386 OA
ATOM     34  H   UNL     1       8.218   3.537   2.242  0.00  0.00    +0.210 HD
ENDBRANCH  27  33
BRANCH  26  35
ATOM     35  O   UNL     1       7.976   1.015   1.786  0.00  0.00    -0.383 OA
ATOM     36  H   UNL     1       8.318   0.221   1.352  0.00  0.00    +0.210 HD
ENDBRANCH  26  35
BRANCH  29  37
ATOM     37  C   UNL     1       7.433   1.058   7.395  0.00  0.00    +0.190 C 
BRANCH  37  38
ATOM     38  O   UNL     1       6.729  -0.047   7.965  0.00  0.00    -0.392 OA
ATOM     39  H   UNL     1       6.841  -0.134   8.922  0.00  0.00    +0.210 HD
ENDBRANCH  37  38
ENDBRANCH  29  37
ENDBRANCH  24  25
ENDBRANCH  22  24
ENDBRANCH  21  22
ENDBRANCH   1  21
TORSDOF 14
