REMARK  Name = ZINC66396951
REMARK  1 active torsions:
REMARK  status: ('A' for Active; 'I' for Inactive)
REMARK    1  A    between atoms: C_1  and  C_2
REMARK                            x       y       z     vdW  Elec       q    Type
REMARK                         _______ _______ _______ _____ _____    ______ ____
ROOT
ATOM      1  C   UNL     1       0.042   1.517   0.034  0.00  0.00    +0.044 C 
ATOM      2  C   UNL     1       0.058   0.010   0.017  0.00  0.00    -0.050 A 
ATOM      3  C   UNL     1       0.082  -0.668  -1.188  0.00  0.00    +0.007 A 
ATOM      4  C   UNL     1       0.097  -2.048  -1.203  0.00  0.00    +0.047 A 
ATOM      5  C   UNL     1       0.088  -2.759  -0.009  0.00  0.00    +0.134 A 
ATOM      6  C   UNL     1       0.064  -2.077   1.196  0.00  0.00    -0.000 A 
ATOM      7  C   UNL     1       0.054  -0.693   1.206  0.00  0.00    +0.011 A 
ATOM      8  C   UNL     1       0.053  -2.825   2.502  0.00  0.00    +0.081 C 
ATOM      9  C   UNL     1       0.486  -4.249   2.296  0.00  0.00    +0.045 C 
ATOM     10  C   UNL     1       0.894  -5.017   3.394  0.00  0.00    +0.086 C 
ATOM     11  S   UNL     1       0.905  -4.372   4.923  0.00  0.00    -0.035 SA
ATOM     12  N   UNL     1       1.286  -6.319   3.177  0.00  0.00    -0.294 N 
ATOM     13  H   UNL     1       1.572  -6.873   3.920  0.00  0.00    +0.154 HD
ATOM     14  C   UNL     1       1.268  -6.824   1.908  0.00  0.00    +0.113 C 
ATOM     15  N   UNL     1       0.882  -6.090   0.884  0.00  0.00    -0.313 N 
ATOM     16  C   UNL     1       0.490  -4.819   1.038  0.00  0.00    +0.206 C 
ATOM     17  O   UNL     1       0.102  -4.113  -0.045  0.00  0.00    -0.439 OA
ATOM     18  C   UNL     1       1.687  -8.214   1.680  0.00  0.00    +0.038 C 
ATOM     19  C   UNL     1       2.214  -9.069   2.602  0.00  0.00    +0.095 C 
ATOM     20  N   UNL     1       2.477 -10.266   2.020  0.00  0.00    -0.360 N 
ATOM     21  H   UNL     1       2.856 -11.032   2.478  0.00  0.00    +0.165 HD
ATOM     22  C   UNL     1       2.129 -10.238   0.686  0.00  0.00    +0.047 A 
ATOM     23  C   UNL     1       1.614  -8.961   0.411  0.00  0.00    +0.010 A 
ATOM     24  C   UNL     1       1.173  -8.647  -0.872  0.00  0.00    +0.011 A 
ATOM     25  C   UNL     1       1.241  -9.597  -1.868  0.00  0.00    +0.001 A 
ATOM     26  C   UNL     1       1.746 -10.860  -1.597  0.00  0.00    +0.002 A 
ATOM     27  C   UNL     1       2.194 -11.181  -0.335  0.00  0.00    +0.026 A 
ATOM     28  H   UNL     1       0.882  -6.480  -0.004  0.00  0.00    +0.170 HD
ENDROOT
TORSDOF 0
