REMARK  Name = ZINC12417053
REMARK  3 active torsions:
REMARK  status: ('A' for Active; 'I' for Inactive)
REMARK    1  A    between atoms: C_1  and  C_2
REMARK    2  A    between atoms: C_9  and  S_14
REMARK    3  A    between atoms: S_14  and  N_17
REMARK                            x       y       z     vdW  Elec       q    Type
REMARK                         _______ _______ _______ _____ _____    ______ ____
ROOT
ATOM      1  C   UNL     1      -1.024  -5.647   3.982  0.00  0.00    +0.062 C 
ATOM      2  C   UNL     1      -0.709  -4.400   4.811  0.00  0.00    +0.256 C 
ATOM      3  C   UNL     1       0.531  -3.737   4.269  0.00  0.00    +0.258 C 
ATOM      4  O   UNL     1       1.622  -4.031   4.711  0.00  0.00    -0.271 OA
ATOM      5  N   UNL     1       0.424  -2.815   3.287  0.00  0.00    -0.279 N 
ATOM      6  C   UNL     1      -0.851  -2.467   2.818  0.00  0.00    +0.078 A 
ATOM      7  C   UNL     1      -1.004  -1.789   1.620  0.00  0.00    +0.055 A 
ATOM      8  C   UNL     1      -2.269  -1.449   1.179  0.00  0.00    +0.111 A 
ATOM      9  C   UNL     1      -3.382  -1.795   1.924  0.00  0.00    +0.032 A 
ATOM     10  C   UNL     1      -3.236  -2.479   3.117  0.00  0.00    +0.049 A 
ATOM     11  C   UNL     1      -1.972  -2.818   3.568  0.00  0.00    +0.143 A 
ATOM     12  O   UNL     1      -1.811  -3.490   4.739  0.00  0.00    -0.478 OA
ATOM     13  H   UNL     1       1.217  -2.400   2.913  0.00  0.00    +0.155 HD
ENDROOT
BRANCH   8  14
ATOM     14  S   UNL     1      -2.466  -0.579  -0.341  0.00  0.00    +0.075 S 
ATOM     15  O   UNL     1      -3.778  -0.864  -0.805  0.00  0.00    -0.150 OA
ATOM     16  O   UNL     1      -1.307  -0.852  -1.117  0.00  0.00    -0.150 OA
BRANCH  14  17
ATOM     17  N   UNL     1      -2.429   1.038   0.013  0.00  0.00    -0.196 N 
ATOM     18  C   UNL     1      -3.663   1.776   0.334  0.00  0.00    +0.172 C 
ATOM     19  C   UNL     1      -3.594   3.130  -0.386  0.00  0.00    +0.250 C 
ATOM     20  O   UNL     1      -2.421   3.824   0.059  0.00  0.00    -0.488 OA
ATOM     21  C   UNL     1      -1.242   3.146   0.034  0.00  0.00    +0.143 A 
ATOM     22  C   UNL     1      -1.221   1.754   0.017  0.00  0.00    +0.093 A 
ATOM     23  C   UNL     1      -0.013   1.076   0.008  0.00  0.00    +0.028 A 
ATOM     24  C   UNL     1       1.175   1.785   0.000  0.00  0.00    +0.002 A 
ATOM     25  C   UNL     1       1.156   3.167   0.008  0.00  0.00    +0.004 A 
ATOM     26  C   UNL     1      -0.047   3.848   0.024  0.00  0.00    +0.047 A 
ENDBRANCH  14  17
ENDBRANCH   8  14
TORSDOF 2
