REMARK  Name = ZINC41816210
REMARK  10 active torsions:
REMARK  status: ('A' for Active; 'I' for Inactive)
REMARK    1  A    between atoms: C_1  and  N_2
REMARK    2  A    between atoms: N_2  and  C_3
REMARK    3  A    between atoms: N_2  and  C_4
REMARK    4  A    between atoms: C_4  and  C_6
REMARK    5  A    between atoms: C_4  and  C_21
REMARK    6  A    between atoms: C_6  and  N_7
REMARK    7  A    between atoms: C_8  and  C_10
REMARK    8  A    between atoms: C_15  and  O_16
REMARK    9  A    between atoms: O_16  and  C_17
REMARK   10  A    between atoms: C_17  and  C_18
REMARK                            x       y       z     vdW  Elec       q    Type
REMARK                         _______ _______ _______ _____ _____    ______ ____
ROOT
ATOM      1  N   UNL     1      -1.702   1.302  -1.405  0.00  0.00    -0.312 N 
ATOM      2  C   UNL     1      -2.076   1.923  -2.541  0.00  0.00    +0.248 C 
ATOM      3  O   UNL     1      -2.647   1.300  -3.415  0.00  0.00    -0.270 OA
ATOM      4  H   UNL     1      -1.246   1.799  -0.708  0.00  0.00    +0.149 HD
ENDROOT
BRANCH   2   5
ATOM      5  C   UNL     1      -1.793   3.360  -2.724  0.00  0.00    +0.078 A 
ATOM      6  C   UNL     1      -1.132   4.078  -1.724  0.00  0.00    +0.017 A 
ATOM      7  C   UNL     1      -0.870   5.419  -1.901  0.00  0.00    +0.001 A 
ATOM      8  C   UNL     1      -1.260   6.060  -3.066  0.00  0.00    +0.004 A 
ATOM      9  C   UNL     1      -1.913   5.362  -4.062  0.00  0.00    +0.046 A 
ATOM     10  C   UNL     1      -2.180   4.010  -3.903  0.00  0.00    +0.133 A 
BRANCH  10  11
ATOM     11  O   UNL     1      -2.818   3.322  -4.883  0.00  0.00    -0.482 OA
BRANCH  11  12
ATOM     12  C   UNL     1      -3.182   4.051  -6.056  0.00  0.00    +0.324 C 
BRANCH  12  13
ATOM     13  C   UNL     1      -3.875   3.129  -7.026  0.00  0.00    +0.248 C 
ATOM     14  O   UNL     1      -4.040   1.962  -6.740  0.00  0.00    -0.272 OA
ATOM     15  N   UNL     1      -4.310   3.601  -8.211  0.00  0.00    -0.327 N 
ATOM     16  H   UNL     1      -4.178   4.534  -8.440  0.00  0.00    +0.145 HD
ATOM     17  H   UNL     1      -4.756   3.007  -8.835  0.00  0.00    +0.145 HD
ENDBRANCH  12  13
ENDBRANCH  11  12
ENDBRANCH  10  11
ENDBRANCH   2   5
BRANCH   1  18
ATOM     18  C   UNL     1      -1.983  -0.125  -1.224  0.00  0.00    +0.094 C 
BRANCH  18  19
ATOM     19  C   UNL     1      -1.353  -0.606   0.085  0.00  0.00    -0.020 C 
BRANCH  19  20
ATOM     20  C   UNL     1       0.148  -0.502  -0.012  0.00  0.00    -0.041 A 
ATOM     21  C   UNL     1       0.805   0.566   0.570  0.00  0.00    +0.003 A 
ATOM     22  C   UNL     1       2.181   0.661   0.481  0.00  0.00    +0.000 A 
ATOM     23  C   UNL     1       2.901  -0.311  -0.189  0.00  0.00    +0.001 A 
ATOM     24  C   UNL     1       2.244  -1.379  -0.770  0.00  0.00    +0.020 A 
ATOM     25  C   UNL     1       0.868  -1.478  -0.677  0.00  0.00    +0.043 A 
ATOM     26 CL   UNL     1       0.043  -2.823  -1.402  0.00  0.00    -0.083 Cl
ENDBRANCH  19  20
BRANCH  19  28
ATOM     27  C   UNL     1      -3.300   0.231   1.207  0.00  0.00    -0.096 C 
ATOM     28  N   UNL     1      -1.831   0.228   1.195  0.00  0.00    +0.382 N 
ATOM     29  C   UNL     1      -1.332  -0.314   2.465  0.00  0.00    -0.096 C 
ATOM     30  H   UNL     1      -1.494   1.172   1.076  0.00  0.00    -0.082 HD
ENDBRANCH  19  28
ENDBRANCH  18  19
ENDBRANCH   1  18
TORSDOF 8
