REMARK  Name = ZINC21623951
REMARK  8 active torsions:
REMARK  status: ('A' for Active; 'I' for Inactive)
REMARK    1  A    between atoms: C_1  and  C_2
REMARK    2  A    between atoms: C_3  and  C_7
REMARK    3  A    between atoms: C_10  and  S_13
REMARK    4  A    between atoms: N_11  and  N_12
REMARK    5  A    between atoms: S_13  and  C_14
REMARK    6  A    between atoms: C_14  and  C_16
REMARK    7  A    between atoms: C_14  and  C_17
REMARK    8  A    between atoms: N_19  and  C_20
REMARK                            x       y       z     vdW  Elec       q    Type
REMARK                         _______ _______ _______ _____ _____    ______ ____
ROOT
ATOM      1  S   UNL     1       3.471  -2.619   0.867  0.00  0.00    -0.072 S 
ENDROOT
BRANCH   1   5
ATOM      2  C   UNL     1       6.927  -4.360   1.405  0.00  0.00    +0.185 A 
ATOM      3  N   UNL     1       7.265  -3.193   0.909  0.00  0.00    -0.127 NA
ATOM      4  N   UNL     1       6.213  -2.493   0.676  0.00  0.00    -0.121 NA
ATOM      5  C   UNL     1       5.138  -3.170   1.008  0.00  0.00    +0.209 A 
ATOM      6  N   UNL     1       5.555  -4.381   1.489  0.00  0.00    -0.224 N 
BRANCH   2   9
ATOM      7  C   UNL     1      10.056  -4.308   1.210  0.00  0.00    +0.087 C 
ATOM      8  C   UNL     1       9.207  -5.441   1.725  0.00  0.00    +0.112 A 
ATOM      9  C   UNL     1       7.849  -5.447   1.803  0.00  0.00    +0.061 A 
ATOM     10  C   UNL     1       7.487  -6.757   2.358  0.00  0.00    +0.053 A 
ATOM     11  C   UNL     1       8.645  -7.405   2.564  0.00  0.00    +0.196 A 
ATOM     12  O   UNL     1       9.662  -6.615   2.188  0.00  0.00    -0.467 OA
ENDBRANCH   2   9
BRANCH   6  13
ATOM     13  N   UNL     1       4.771  -5.399   1.953  0.00  0.00    -0.295 N 
ATOM     14  H   UNL     1       3.677  -5.287   1.968  0.00  0.00    +0.163 HD
ATOM     15  H   UNL     1       5.234  -6.329   2.313  0.00  0.00    +0.163 HD
ENDBRANCH   6  13
ENDBRANCH   1   5
BRANCH   1  16
ATOM     16  C   UNL     1       3.742  -0.969   0.176  0.00  0.00    +0.137 C 
ATOM     17  C   UNL     1       4.359  -1.094  -1.218  0.00  0.00    +0.029 C 
BRANCH  16  18
ATOM     18  C   UNL     1       2.426  -0.242   0.079  0.00  0.00    +0.230 C 
ATOM     19  O   UNL     1       1.386  -0.866   0.086  0.00  0.00    -0.274 OA
ATOM     20  N   UNL     1       2.404   1.103  -0.015  0.00  0.00    -0.282 N 
ATOM     21  H   UNL     1       3.345   1.663  -0.113  0.00  0.00    +0.155 HD
BRANCH  20  22
ATOM     22  C   UNL     1       1.181   1.787   0.012  0.00  0.00    +0.072 A 
ATOM     23  C   UNL     1       0.077   1.213   0.627  0.00  0.00    +0.029 A 
ATOM     24  C   UNL     1      -1.130   1.885   0.648  0.00  0.00    +0.043 A 
ATOM     25  C   UNL     1      -1.238   3.137   0.065  0.00  0.00    +0.161 A 
ATOM     26  C   UNL     1      -0.138   3.714  -0.551  0.00  0.00    +0.195 A 
ATOM     27  C   UNL     1       1.072   3.041  -0.579  0.00  0.00    +0.182 A 
ATOM     28  F   UNL     1       2.145   3.602  -1.178  0.00  0.00    -0.200 F 
ATOM     29  F   UNL     1      -0.246   4.932  -1.124  0.00  0.00    -0.199 F 
ATOM     30  F   UNL     1      -2.418   3.794   0.091  0.00  0.00    -0.202 F 
ENDBRANCH  20  22
ENDBRANCH  16  18
ENDBRANCH   1  16
TORSDOF 6
