REMARK  Name = ZINC47926006
REMARK  4 active torsions:
REMARK  status: ('A' for Active; 'I' for Inactive)
REMARK    1  A    between atoms: C_1  and  C_2
REMARK    2  A    between atoms: C_7  and  S_8
REMARK    3  A    between atoms: S_8  and  N_11
REMARK    4  A    between atoms: C_15  and  C_17
REMARK                            x       y       z     vdW  Elec       q    Type
REMARK                         _______ _______ _______ _____ _____    ______ ____
ROOT
ATOM      1  S   UNL     1       0.295   0.260   2.707  0.00  0.00    +0.062 S 
ATOM      2  O   UNL     1       0.629  -1.120   2.670  0.00  0.00    -0.153 OA
ATOM      3  O   UNL     1      -0.342   0.919   1.621  0.00  0.00    -0.153 OA
ENDROOT
BRANCH   1  10
ATOM      4  C   UNL     1       0.932  -0.776   5.475  0.00  0.00    +0.046 C 
ATOM      5  C   UNL     1      -0.365  -0.022   5.340  0.00  0.00    -0.021 A 
ATOM      6  C   UNL     1      -1.175   0.163   6.445  0.00  0.00    +0.043 A 
ATOM      7  C   UNL     1      -2.366   0.857   6.321  0.00  0.00    +0.124 A 
ATOM      8  C   UNL     1      -2.745   1.365   5.090  0.00  0.00    +0.040 A 
ATOM      9  C   UNL     1      -1.934   1.179   3.987  0.00  0.00    +0.031 A 
ATOM     10  C   UNL     1      -0.742   0.491   4.113  0.00  0.00    +0.109 A 
ATOM     11  F   UNL     1      -3.159   1.037   7.400  0.00  0.00    -0.205 F 
ENDBRANCH   1  10
BRANCH   1  12
ATOM     12  N   UNL     1       1.704   1.081   2.998  0.00  0.00    -0.168 NA
ATOM     13  C   UNL     1       2.961   0.483   3.485  0.00  0.00    +0.110 C 
ATOM     14  C   UNL     1       3.717   1.652   4.165  0.00  0.00    +0.019 C 
ATOM     15  C   UNL     1       3.360   2.839   3.232  0.00  0.00    +0.028 C 
ATOM     16  C   UNL     1       1.910   2.524   2.807  0.00  0.00    +0.126 C 
BRANCH  16  17
ATOM     17  C   UNL     1       1.708   2.883   1.358  0.00  0.00    +0.035 A 
ATOM     18  C   UNL     1       2.042   2.118   0.299  0.00  0.00    +0.024 A 
ATOM     19  C   UNL     1       1.682   2.826  -0.864  0.00  0.00    +0.019 A 
ATOM     20  C   UNL     1       1.142   3.998  -0.472  0.00  0.00    +0.083 A 
ATOM     21  N   UNL     1       1.150   4.036   0.891  0.00  0.00    -0.363 N 
ATOM     22  H   UNL     1       0.815   4.764   1.438  0.00  0.00    +0.165 HD
ENDBRANCH  16  17
ENDBRANCH   1  12
TORSDOF 3
