REMARK  Name = ZINC14110512
REMARK  6 active torsions:
REMARK  status: ('A' for Active; 'I' for Inactive)
REMARK    1  A    between atoms: C_1  and  N_2
REMARK    2  A    between atoms: C_3  and  N_34
REMARK    3  A    between atoms: C_4  and  C_11
REMARK    4  A    between atoms: N_7  and  C_10
REMARK    5  A    between atoms: C_17  and  C_29
REMARK    6  A    between atoms: C_20  and  C_22
REMARK                            x       y       z     vdW  Elec       q    Type
REMARK                         _______ _______ _______ _____ _____    ______ ____
ROOT
ATOM      1  C   UNL     1       0.095   6.043   4.234  0.00  0.00    +0.089 A 
ATOM      2  C   UNL     1      -0.355   4.849   4.721  0.00  0.00    +0.077 A 
ATOM      3  S   UNL     1      -0.933   4.073   3.218  0.00  0.00    -0.058 S 
ATOM      4  C   UNL     1      -0.519   5.409   2.104  0.00  0.00    +0.182 A 
ATOM      5  N   UNL     1       0.007   6.291   2.937  0.00  0.00    -0.223 NA
ATOM      6  N   UNL     1      -0.696   5.494   0.734  0.00  0.00    -0.190 N 
ATOM      7  C   UNL     1      -1.290   4.452  -0.119  0.00  0.00    +0.172 C 
ATOM      8  C   UNL     1      -1.243   5.065  -1.532  0.00  0.00    +0.090 C 
ATOM      9  C   UNL     1      -0.610   6.422  -1.320  0.00  0.00    +0.069 C 
ATOM     10  N   UNL     1      -0.341   6.580  -0.069  0.00  0.00    -0.181 NA
ENDROOT
BRANCH   1  14
ATOM     11  C   UNL     1       0.086  10.548   6.288  0.00  0.00    +0.155 C 
ATOM     12  N   UNL     1       0.680   9.217   6.139  0.00  0.00    -0.284 N 
ATOM     13  C   UNL     1       0.113   8.310   5.278  0.00  0.00    +0.114 A 
ATOM     14  C   UNL     1       0.684   7.051   5.150  0.00  0.00    +0.103 A 
ATOM     15  C   UNL     1       1.840   6.750   5.906  0.00  0.00    +0.267 A 
ATOM     16  O   UNL     1       2.368   5.656   5.813  0.00  0.00    -0.267 OA
ATOM     17  N   UNL     1       2.354   7.684   6.730  0.00  0.00    -0.263 N 
ATOM     18  C   UNL     1       1.781   8.896   6.841  0.00  0.00    +0.333 A 
ATOM     19  O   UNL     1       2.268   9.717   7.593  0.00  0.00    -0.246 OA
ATOM     20  C   UNL     1       3.552   7.376   7.515  0.00  0.00    +0.157 C 
BRANCH  13  21
ATOM     21  N   UNL     1      -1.006   8.642   4.559  0.00  0.00    -0.344 N 
ATOM     22  H   UNL     1      -1.463   7.966   4.034  0.00  0.00    +0.144 HD
ATOM     23  H   UNL     1      -1.340   9.552   4.574  0.00  0.00    +0.144 HD
ENDBRANCH  13  21
ENDBRANCH   1  14
BRANCH   9  24
ATOM     24  C   UNL     1      -0.340   7.411  -2.380  0.00  0.00    -0.002 A 
ATOM     25  C   UNL     1      -0.670   7.124  -3.707  0.00  0.00    +0.011 A 
ATOM     26  C   UNL     1      -0.421   8.056  -4.692  0.00  0.00    +0.020 A 
ATOM     27  C   UNL     1       0.166   9.268  -4.371  0.00  0.00    +0.041 A 
ATOM     28  C   UNL     1       0.501   9.556  -3.058  0.00  0.00    +0.020 A 
ATOM     29  C   UNL     1       0.251   8.636  -2.062  0.00  0.00    +0.011 A 
ATOM     30 CL   UNL     1       0.482  10.433  -5.619  0.00  0.00    -0.084 Cl
ENDBRANCH   9  24
BRANCH   7  31
ATOM     31  C   UNL     1      -0.469   3.189  -0.062  0.00  0.00    +0.127 A 
ATOM     32  C   UNL     1      -0.953   1.934  -0.092  0.00  0.00    +0.046 A 
ATOM     33  C   UNL     1       0.158   1.064  -0.012  0.00  0.00    +0.041 A 
ATOM     34  C   UNL     1       1.256   1.839   0.054  0.00  0.00    +0.195 A 
ATOM     35  O   UNL     1       0.870   3.125   0.023  0.00  0.00    -0.466 OA
ENDBRANCH   7  31
TORSDOF 4
