REMARK  Name = ZINC32935672
REMARK  10 active torsions:
REMARK  status: ('A' for Active; 'I' for Inactive)
REMARK    1  A    between atoms: C_1  and  C_2
REMARK    2  A    between atoms: C_3  and  C_27
REMARK    3  A    between atoms: C_5  and  N_11
REMARK    4  A    between atoms: C_6  and  C_7
REMARK    5  A    between atoms: C_7  and  O_9
REMARK    6  A    between atoms: O_9  and  C_10
REMARK    7  A    between atoms: C_12  and  C_14
REMARK    8  A    between atoms: C_14  and  N_15
REMARK    9  A    between atoms: C_19  and  C_22
REMARK   10  A    between atoms: C_22  and  N_23
REMARK                            x       y       z     vdW  Elec       q    Type
REMARK                         _______ _______ _______ _____ _____    ______ ____
ROOT
ATOM      1  C   UNL     1      -1.801   2.200   4.958  0.00  0.00    +0.019 C 
ENDROOT
BRANCH   1   2
ATOM      2  N   UNL     1      -2.787   2.750   5.898  0.00  0.00    +0.386 N 
ATOM      3  C   UNL     1      -4.062   2.028   5.805  0.00  0.00    -0.078 C 
ATOM      4  C   UNL     1      -5.105   2.716   6.688  0.00  0.00    -0.018 C 
ATOM      5  C   UNL     1      -4.611   2.730   8.137  0.00  0.00    +0.001 C 
ATOM      6  C   UNL     1      -3.258   3.445   8.199  0.00  0.00    -0.011 C 
ATOM      7  C   UNL     1      -2.268   2.736   7.272  0.00  0.00    -0.073 C 
ATOM      8  H   UNL     1      -2.974   3.797   5.621  0.00  0.00    -0.081 HD
BRANCH   6   9
ATOM      9  C   UNL     1      -2.728   3.412   9.634  0.00  0.00    +0.107 C 
BRANCH   9  10
ATOM     10  N   UNL     1      -3.616   4.189  10.501  0.00  0.00    -0.299 N 
ATOM     11  C   UNL     1      -3.346   4.300  11.817  0.00  0.00    +0.297 C 
ATOM     12  O   UNL     1      -2.364   3.756  12.284  0.00  0.00    -0.253 OA
ATOM     13  N   UNL     1      -4.163   5.015  12.615  0.00  0.00    -0.313 N 
ATOM     14  H   UNL     1      -4.505   4.681  10.079  0.00  0.00    +0.150 HD
ATOM     15  H   UNL     1      -3.943   5.106  13.689  0.00  0.00    +0.146 HD
ATOM     16  H   UNL     1      -5.052   5.507  12.193  0.00  0.00    +0.146 HD
ENDBRANCH   9  10
ENDBRANCH   6   9
ENDBRANCH   1   2
BRANCH   1  18
ATOM     17  N   UNL     1      -1.505   2.040   2.507  0.00  0.00    -0.281 N 
ATOM     18  C   UNL     1      -2.256   2.458   3.545  0.00  0.00    +0.201 C 
ATOM     19  O   UNL     1      -3.300   3.042   3.341  0.00  0.00    -0.278 OA
ATOM     20  H   UNL     1      -0.558   1.510   2.692  0.00  0.00    +0.155 HD
BRANCH  17  25
ATOM     21  C   UNL     1      -1.365   1.988  -2.553  0.00  0.00    +0.045 C 
ATOM     22  C   UNL     1      -1.957   2.308  -1.205  0.00  0.00    -0.025 A 
ATOM     23  C   UNL     1      -3.129   2.958  -1.091  0.00  0.00    -0.008 A 
ATOM     24  S   UNL     1      -3.359   3.083   0.670  0.00  0.00    -0.078 S 
ATOM     25  C   UNL     1      -1.924   2.277   1.208  0.00  0.00    +0.086 A 
ATOM     26  C   UNL     1      -1.292   1.927   0.019  0.00  0.00    +0.091 A 
ATOM     27  C   UNL     1      -4.028   3.464  -2.190  0.00  0.00    +0.052 C 
BRANCH  26  28
ATOM     28  C   UNL     1      -0.014   1.212   0.009  0.00  0.00    +0.342 C 
ATOM     29  O   UNL     1       0.002  -0.004   0.002  0.00  0.00    -0.245 OA
BRANCH  28  30
ATOM     30  O   UNL     1       1.144   1.902   0.001  0.00  0.00    -0.464 OA
ATOM     31  C   UNL     1       2.373   1.128  -0.015  0.00  0.00    +0.280 C 
ENDBRANCH  28  30
ENDBRANCH  26  28
ENDBRANCH  17  25
ENDBRANCH   1  18
TORSDOF 7
