REMARK  Name = ZINC16545694
REMARK  2 active torsions:
REMARK  status: ('A' for Active; 'I' for Inactive)
REMARK    1  A    between atoms: N_9  and  C_10
REMARK    2  A    between atoms: N_20  and  O_21
REMARK                            x       y       z     vdW  Elec       q    Type
REMARK                         _______ _______ _______ _____ _____    ______ ____
ROOT
ATOM      1  C   UNL     1       3.048   0.070  -0.027  0.00  0.00    +0.160 C 
ATOM      2  C   UNL     1       3.843  -0.187  -1.344  0.00  0.00    +0.020 C 
ATOM      3  C   UNL     1       4.780   1.053  -1.477  0.00  0.00    +0.006 C 
ATOM      4  C   UNL     1       5.804   0.887  -0.330  0.00  0.00    +0.010 C 
ATOM      5  C   UNL     1       5.391  -0.440   0.377  0.00  0.00    +0.039 C 
ATOM      6  C   UNL     1       4.865  -1.270  -0.847  0.00  0.00    +0.015 C 
ATOM      7  C   UNL     1       4.069  -0.105   1.088  0.00  0.00    +0.085 C 
ATOM      8  N   UNL     1       3.870   0.004   2.347  0.00  0.00    -0.094 NA
ENDROOT
BRANCH   1  17
ATOM      9  C   UNL     1      -1.111   3.191  -0.858  0.00  0.00    +0.002 A 
ATOM     10  C   UNL     1      -1.059   1.812  -1.021  0.00  0.00    +0.002 A 
ATOM     11  C   UNL     1       0.094   1.125  -0.763  0.00  0.00    +0.029 A 
ATOM     12  C   UNL     1       1.229   1.812  -0.343  0.00  0.00    +0.090 A 
ATOM     13  C   UNL     1       1.183   3.207  -0.180  0.00  0.00    +0.113 A 
ATOM     14  C   UNL     1      -0.013   3.887  -0.447  0.00  0.00    +0.032 A 
ATOM     15  N   UNL     1       2.402   3.611   0.229  0.00  0.00    -0.129 NA
ATOM     16  N   UNL     1       3.195   2.604   0.335  0.00  0.00    -0.064 NA
ATOM     17  N   UNL     1       2.508   1.431  -0.014  0.00  0.00    -0.235 N 
ENDBRANCH   1  17
BRANCH   8  18
ATOM     18  O   UNL     1       4.940  -0.192   3.253  0.00  0.00    -0.409 OA
ATOM     19  H   UNL     1       4.692  -0.089   4.183  0.00  0.00    +0.328 HD
ENDBRANCH   8  18
TORSDOF 2
