REMARK  Name = ZINC12502156
REMARK  12 active torsions:
REMARK  status: ('A' for Active; 'I' for Inactive)
REMARK    1  A    between atoms: C_1  and  C_2
REMARK    2  A    between atoms: C_5  and  C_30
REMARK    3  A    between atoms: C_6  and  N_8
REMARK    4  A    between atoms: C_9  and  C_11
REMARK    5  A    between atoms: C_11  and  C_12
REMARK    6  A    between atoms: C_12  and  C_13
REMARK    7  A    between atoms: N_15  and  N_16
REMARK    8  A    between atoms: N_16  and  C_17
REMARK    9  A    between atoms: C_17  and  N_19
REMARK   10  A    between atoms: C_20  and  C_22
REMARK   11  A    between atoms: C_22  and  O_23
REMARK   12  A    between atoms: O_23  and  C_24
REMARK                            x       y       z     vdW  Elec       q    Type
REMARK                         _______ _______ _______ _____ _____    ______ ____
ROOT
ATOM      1  C   UNL     1      -0.730   3.504   1.291  0.00  0.00    +0.230 C 
ATOM      2  O   UNL     1      -0.216   4.122   0.383  0.00  0.00    -0.274 OA
ATOM      3  N   UNL     1      -1.310   4.165   2.312  0.00  0.00    -0.235 N 
ATOM      4  H   UNL     1      -1.721   3.670   3.038  0.00  0.00    +0.173 HD
ENDROOT
BRANCH   3   5
ATOM      5  N   UNL     1      -1.319   5.565   2.325  0.00  0.00    -0.246 N 
ATOM      6  H   UNL     1      -0.908   6.060   1.599  0.00  0.00    +0.172 HD
BRANCH   5   7
ATOM      7  C   UNL     1      -1.899   6.226   3.346  0.00  0.00    +0.153 C 
ATOM      8  S   UNL     1      -1.910   7.938   3.362  0.00  0.00    -0.017 S 
BRANCH   7   9
ATOM      9  N   UNL     1      -2.470   5.539   4.356  0.00  0.00    -0.264 N 
ATOM     10  C   UNL     1      -3.050   6.200   5.377  0.00  0.00    +0.256 C 
ATOM     11  O   UNL     1      -3.058   7.412   5.388  0.00  0.00    -0.272 OA
ATOM     12  H   UNL     1      -2.464   4.569   4.347  0.00  0.00    +0.157 HD
BRANCH  10  13
ATOM     13  C   UNL     1      -3.689   5.432   6.505  0.00  0.00    +0.324 C 
BRANCH  13  14
ATOM     14  O   UNL     1      -4.231   6.348   7.459  0.00  0.00    -0.483 OA
BRANCH  14  15
ATOM     15  C   UNL     1      -4.847   5.814   8.546  0.00  0.00    +0.121 A 
ATOM     16  C   UNL     1      -4.933   4.437   8.690  0.00  0.00    +0.045 A 
ATOM     17  C   UNL     1      -5.555   3.897   9.799  0.00  0.00    +0.004 A 
ATOM     18  C   UNL     1      -6.101   4.729  10.760  0.00  0.00    +0.000 A 
ATOM     19  C   UNL     1      -6.021   6.101  10.616  0.00  0.00    +0.004 A 
ATOM     20  C   UNL     1      -5.396   6.646   9.512  0.00  0.00    +0.045 A 
ENDBRANCH  14  15
ENDBRANCH  13  14
ENDBRANCH  10  13
ENDBRANCH   7   9
ENDBRANCH   5   7
ENDBRANCH   3   5
BRANCH   1  21
ATOM     21  C   UNL     1      -0.720   1.997   1.277  0.00  0.00    +0.106 C 
BRANCH  21  22
ATOM     22  C   UNL     1      -0.005   1.503   0.017  0.00  0.00    +0.105 C 
BRANCH  22  24
ATOM     23  N   UNL     1       0.585  -0.664  -1.018  0.00  0.00    -0.285 N 
ATOM     24  C   UNL     1       0.005  -0.004   0.004  0.00  0.00    +0.218 C 
ATOM     25  O   UNL     1      -0.509  -0.622   0.912  0.00  0.00    -0.275 OA
ATOM     26  H   UNL     1       0.925  -0.174  -1.782  0.00  0.00    +0.155 HD
BRANCH  23  32
ATOM     27  C   UNL     1       0.825  -4.813   1.609  0.00  0.00    +0.044 C 
ATOM     28  C   UNL     1       0.816  -4.095   0.284  0.00  0.00    -0.049 A 
ATOM     29  C   UNL     1       0.919  -4.815  -0.892  0.00  0.00    +0.004 A 
ATOM     30  C   UNL     1       0.912  -4.160  -2.110  0.00  0.00    +0.005 A 
ATOM     31  C   UNL     1       0.801  -2.784  -2.155  0.00  0.00    -0.029 A 
ATOM     32  C   UNL     1       0.697  -2.059  -0.976  0.00  0.00    +0.037 A 
ATOM     33  C   UNL     1       0.710  -2.719   0.246  0.00  0.00    +0.027 A 
ATOM     34  C   UNL     1       0.793  -2.071  -3.483  0.00  0.00    +0.045 C 
ENDBRANCH  23  32
ENDBRANCH  22  24
ENDBRANCH  21  22
ENDBRANCH   1  21
TORSDOF 10
