REMARK  Name = ZINC07595556
REMARK  6 active torsions:
REMARK  status: ('A' for Active; 'I' for Inactive)
REMARK    1  A    between atoms: C_1  and  C_2
REMARK    2  A    between atoms: C_5  and  N_24
REMARK    3  A    between atoms: C_7  and  S_8
REMARK    4  A    between atoms: S_8  and  N_11
REMARK    5  A    between atoms: N_11  and  C_12
REMARK    6  A    between atoms: C_12  and  C_13
REMARK                            x       y       z     vdW  Elec       q    Type
REMARK                         _______ _______ _______ _____ _____    ______ ____
ROOT
ATOM      1  S   UNL     1       2.743   7.834   0.695  0.00  0.00    +0.059 S 
ATOM      2  O   UNL     1       1.726   8.800   0.465  0.00  0.00    -0.153 OA
ATOM      3  O   UNL     1       3.484   7.783   1.907  0.00  0.00    -0.153 OA
ENDROOT
BRANCH   1  10
ATOM      4  C   UNL     1       2.021   7.970  -2.239  0.00  0.00    +0.046 C 
ATOM      5  C   UNL     1       3.491   8.071  -1.919  0.00  0.00    -0.024 A 
ATOM      6  C   UNL     1       4.411   8.221  -2.940  0.00  0.00    +0.007 A 
ATOM      7  C   UNL     1       5.759   8.309  -2.647  0.00  0.00    +0.033 A 
ATOM      8  C   UNL     1       6.186   8.252  -1.333  0.00  0.00    +0.128 A 
ATOM      9  C   UNL     1       5.266   8.107  -0.313  0.00  0.00    +0.061 A 
ATOM     10  C   UNL     1       3.917   8.019  -0.606  0.00  0.00    +0.110 A 
BRANCH   8  11
ATOM     11  N   UNL     1       7.630   8.346  -1.020  0.00  0.00    +0.056 N 
ATOM     12  O   UNL     1       8.006   8.296   0.138  0.00  0.00    -0.126 OA
ATOM     13  O   UNL     1       8.441   8.474  -1.919  0.00  0.00    -0.126 OA
ENDBRANCH   8  11
ENDBRANCH   1  10
BRANCH   1  14
ATOM     14  N   UNL     1       2.036   6.348   0.509  0.00  0.00    -0.187 NA
ATOM     15  H   UNL     1       1.089   6.283   0.314  0.00  0.00    +0.148 HD
BRANCH  14  16
ATOM     16  C   UNL     1       2.843   5.132   0.639  0.00  0.00    +0.139 C 
BRANCH  16  17
ATOM     17  C   UNL     1       1.919   3.924   0.811  0.00  0.00    +0.163 C 
ATOM     18  C   UNL     1       2.744   2.621   0.955  0.00  0.00    +0.196 C 
ATOM     19  O   UNL     1       1.809   1.626   0.472  0.00  0.00    -0.346 OA
ATOM     20  C   UNL     1       1.098   2.277  -0.594  0.00  0.00    +0.171 C 
ATOM     21  O   UNL     1       1.152   3.695  -0.388  0.00  0.00    -0.342 OA
ATOM     22  C   UNL     1      -0.359   1.812  -0.592  0.00  0.00    +0.065 C 
ATOM     23  C   UNL     1      -0.409   0.297  -0.805  0.00  0.00    +0.005 C 
ATOM     24  C   UNL     1       0.241  -0.051  -2.145  0.00  0.00    +0.000 C 
ATOM     25  C   UNL     1       1.699   0.412  -2.141  0.00  0.00    +0.005 C 
ATOM     26  C   UNL     1       1.753   1.926  -1.930  0.00  0.00    +0.065 C 
ENDBRANCH  16  17
ENDBRANCH  14  16
ENDBRANCH   1  14
TORSDOF 5
