REMARK  Name = ZINC00107340
REMARK  5 active torsions:
REMARK  status: ('A' for Active; 'I' for Inactive)
REMARK    1  A    between atoms: C_1  and  C_2
REMARK    2  A    between atoms: C_4  and  O_14
REMARK    3  A    between atoms: O_14  and  C_15
REMARK    4  A    between atoms: C_19  and  N_21
REMARK    5  A    between atoms: C_22  and  C_24
REMARK                            x       y       z     vdW  Elec       q    Type
REMARK                         _______ _______ _______ _____ _____    ______ ____
ROOT
ATOM      1  C   UNL     1      -1.310  -0.769  -0.024  0.00  0.00    +0.088 C 
ATOM      2  C   UNL     1      -0.006  -0.013  -0.017  0.00  0.00    +0.131 A 
ATOM      3  N   UNL     1      -0.026   1.308  -0.001  0.00  0.00    -0.197 NA
ATOM      4  C   UNL     1       1.082   2.029   0.005  0.00  0.00    +0.232 A 
ATOM      5  C   UNL     1       2.336   1.364  -0.005  0.00  0.00    +0.073 A 
ATOM      6  C   UNL     1       3.685   1.954  -0.002  0.00  0.00    -0.023 A 
ATOM      7  C   UNL     1       4.721   1.100  -0.011  0.00  0.00    -0.004 A 
ATOM      8  S   UNL     1       3.986  -0.519  -0.026  0.00  0.00    -0.073 S 
ATOM      9  C   UNL     1       2.280  -0.042  -0.020  0.00  0.00    +0.116 A 
ATOM     10  N   UNL     1       1.129  -0.685  -0.026  0.00  0.00    -0.225 NA
ATOM     11  C   UNL     1       6.046   1.814  -0.002  0.00  0.00    +0.043 C 
ATOM     12  C   UNL     1       5.709   3.252   0.452  0.00  0.00    +0.010 C 
ATOM     13  C   UNL     1       4.238   3.382   0.009  0.00  0.00    +0.037 C 
ENDROOT
BRANCH   4  14
ATOM     14  O   UNL     1       1.021   3.382   0.021  0.00  0.00    -0.437 OA
BRANCH  14  15
ATOM     15  C   UNL     1      -0.201   3.968  -0.075  0.00  0.00    +0.132 A 
ATOM     16  C   UNL     1      -1.057   3.970   1.018  0.00  0.00    +0.046 A 
ATOM     17  C   UNL     1      -2.301   4.565   0.923  0.00  0.00    +0.005 A 
ATOM     18  C   UNL     1      -2.696   5.160  -0.260  0.00  0.00    +0.023 A 
ATOM     19  C   UNL     1      -1.843   5.161  -1.357  0.00  0.00    +0.037 A 
ATOM     20  C   UNL     1      -0.592   4.567  -1.261  0.00  0.00    +0.069 A 
BRANCH  19  21
ATOM     21  N   UNL     1      -2.244   5.763  -2.555  0.00  0.00    -0.286 N 
ATOM     22  C   UNL     1      -3.008   6.873  -2.528  0.00  0.00    +0.214 C 
ATOM     23  O   UNL     1      -3.419   7.301  -1.471  0.00  0.00    -0.276 OA
ATOM     24  C   UNL     1      -3.353   7.581  -3.813  0.00  0.00    +0.109 C 
ATOM     25  H   UNL     1      -1.970   5.382  -3.404  0.00  0.00    +0.155 HD
ENDBRANCH  19  21
ENDBRANCH  14  15
ENDBRANCH   4  14
TORSDOF 3
