REMARK  Name = ZINC67649344
REMARK  3 active torsions:
REMARK  status: ('A' for Active; 'I' for Inactive)
REMARK    1  A    between atoms: C_3  and  N_17
REMARK    2  A    between atoms: C_4  and  S_7
REMARK    3  A    between atoms: S_7  and  C_8
REMARK                            x       y       z     vdW  Elec       q    Type
REMARK                         _______ _______ _______ _____ _____    ______ ____
ROOT
ATOM      1  S   UNL     1       3.804  -0.971  -0.040  0.00  0.00    -0.091 S 
ENDROOT
BRANCH   1   2
ATOM      2  C   UNL     1       3.244  -2.696  -0.043  0.00  0.00    +0.138 C 
ATOM      3  C   UNL     1       4.453  -3.630   0.056  0.00  0.00    +0.024 C 
ATOM      4  C   UNL     1       5.643  -3.050  -0.688  0.00  0.00    +0.003 C 
ATOM      5  C   UNL     1       5.449  -2.977  -2.192  0.00  0.00    +0.019 C 
ATOM      6  C   UNL     1       4.359  -1.966  -2.553  0.00  0.00    +0.104 C 
ATOM      7  N   UNL     1       3.054  -2.644  -2.506  0.00  0.00    -0.314 N 
ATOM      8  C   UNL     1       2.510  -2.990  -1.335  0.00  0.00    +0.226 C 
ATOM      9  O   UNL     1       1.431  -3.543  -1.304  0.00  0.00    -0.275 OA
ATOM     10  H   UNL     1       2.583  -2.840  -3.331  0.00  0.00    +0.149 HD
ENDBRANCH   1   2
BRANCH   1  14
ATOM     11  C   UNL     1      -0.017   1.376   0.010  0.00  0.00    +0.022 A 
ATOM     12  C   UNL     1       1.185   2.073   0.002  0.00  0.00    +0.037 A 
ATOM     13  C   UNL     1       2.365   1.353  -0.013  0.00  0.00    +0.158 A 
ATOM     14  C   UNL     1       2.310  -0.037  -0.020  0.00  0.00    +0.128 A 
ATOM     15  N   UNL     1       1.144  -0.665  -0.013  0.00  0.00    -0.246 NA
ATOM     16  C   UNL     1       0.002  -0.004   0.002  0.00  0.00    +0.112 A 
BRANCH  13  17
ATOM     17  N   UNL     1       3.670   2.052  -0.022  0.00  0.00    +0.059 N 
ATOM     18  O   UNL     1       3.708   3.261  -0.017  0.00  0.00    -0.126 OA
ATOM     19  O   UNL     1       4.697   1.415  -0.036  0.00  0.00    -0.126 OA
ENDBRANCH  13  17
ENDBRANCH   1  14
TORSDOF 3
