REMARK  Name = ZINC50043641
REMARK  4 active torsions:
REMARK  status: ('A' for Active; 'I' for Inactive)
REMARK    1  A    between atoms: C_10  and  O_11
REMARK    2  A    between atoms: O_11  and  C_12
REMARK    3  A    between atoms: C_13  and  C_19
REMARK    4  A    between atoms: C_19  and  O_20
REMARK                            x       y       z     vdW  Elec       q    Type
REMARK                         _______ _______ _______ _____ _____    ______ ____
ROOT
ATOM      1  O   UNL     1       4.838   0.079  -0.045  0.00  0.00    -0.437 OA
ENDROOT
BRANCH   1  11
ATOM      2  C   UNL     1      -0.037   1.250  -0.303  0.00  0.00    +0.001 A 
ATOM      3  C   UNL     1       1.133   2.007  -0.317  0.00  0.00    +0.001 A 
ATOM      4  C   UNL     1       2.354   1.410  -0.230  0.00  0.00    +0.012 A 
ATOM      5  C   UNL     1       2.439   0.013  -0.125  0.00  0.00    +0.024 A 
ATOM      6  C   UNL     1       1.250  -0.757  -0.110  0.00  0.00    -0.014 A 
ATOM      7  C   UNL     1       0.007  -0.106  -0.202  0.00  0.00    +0.008 A 
ATOM      8  C   UNL     1       1.333  -2.156  -0.004  0.00  0.00    +0.009 A 
ATOM      9  C   UNL     1       2.550  -2.759   0.084  0.00  0.00    +0.004 A 
ATOM     10  C   UNL     1       3.725  -2.012   0.071  0.00  0.00    +0.047 A 
ATOM     11  C   UNL     1       3.686  -0.640  -0.032  0.00  0.00    +0.138 A 
ENDBRANCH   1  11
BRANCH   1  12
ATOM     12  C   UNL     1       5.290   0.579   1.132  0.00  0.00    +0.226 A 
ATOM     13  C   UNL     1       6.418   1.389   1.148  0.00  0.00    +0.041 A 
ATOM     14  C   UNL     1       6.870   1.893   2.355  0.00  0.00    +0.028 A 
ATOM     15  C   UNL     1       6.172   1.566   3.511  0.00  0.00    +0.037 A 
ATOM     16  C   UNL     1       5.057   0.755   3.421  0.00  0.00    +0.130 A 
ATOM     17  N   UNL     1       4.649   0.295   2.254  0.00  0.00    -0.220 NA
ATOM     18 BR   UNL     1       6.742   2.225   5.189  0.00  0.00    -0.049 Br
BRANCH  13  19
ATOM     19  C   UNL     1       7.142   1.715  -0.134  0.00  0.00    +0.196 C 
BRANCH  19  20
ATOM     20  O   UNL     1       8.260   2.557   0.152  0.00  0.00    -0.390 OA
ATOM     21  H   UNL     1       8.774   2.808  -0.629  0.00  0.00    +0.210 HD
ENDBRANCH  19  20
ENDBRANCH  13  19
ENDBRANCH   1  12
TORSDOF 4
