REMARK  Name = ZINC49590533
REMARK  6 active torsions:
REMARK  status: ('A' for Active; 'I' for Inactive)
REMARK    1  A    between atoms: C_6  and  O_7
REMARK    2  A    between atoms: C_8  and  C_12
REMARK    3  A    between atoms: C_12  and  C_13
REMARK    4  A    between atoms: C_19  and  C_21
REMARK    5  A    between atoms: C_21  and  C_22
REMARK    6  A    between atoms: C_25  and  C_27
REMARK                            x       y       z     vdW  Elec       q    Type
REMARK                         _______ _______ _______ _____ _____    ______ ____
ROOT
ATOM      1  C   UNL     1       5.268  -2.539  -0.397  0.00  0.00    +0.016 C 
ATOM      2  C   UNL     1       5.737  -2.522   1.061  0.00  0.00    +0.112 C 
ATOM      3  N   UNL     1       4.976  -3.528   1.814  0.00  0.00    -0.301 N 
ATOM      4  C   UNL     1       4.949  -4.911   1.318  0.00  0.00    +0.108 C 
ATOM      5  C   UNL     1       4.489  -4.901  -0.144  0.00  0.00    +0.023 C 
ATOM      6  C   UNL     1       5.388  -3.961  -0.951  0.00  0.00    +0.006 C 
ATOM      7  C   UNL     1       4.315  -3.190   2.939  0.00  0.00    +0.219 C 
ATOM      8  O   UNL     1       4.345  -2.045   3.338  0.00  0.00    -0.275 OA
ENDROOT
BRANCH   7   9
ATOM      9  C   UNL     1       3.539  -4.234   3.700  0.00  0.00    +0.075 C 
ATOM     10  C   UNL     1       2.013  -4.115   3.705  0.00  0.00    +0.013 C 
ATOM     11  C   UNL     1       2.810  -3.786   4.969  0.00  0.00    +0.013 C 
ENDBRANCH   7   9
BRANCH   1  12
ATOM     12  C   UNL     1       3.809  -2.084  -0.471  0.00  0.00    +0.061 C 
BRANCH  12  19
ATOM     13  C   UNL     1      -0.017   1.384   0.010  0.00  0.00    +0.046 A 
ATOM     14  C   UNL     1       1.168   2.100   0.002  0.00  0.00    +0.008 A 
ATOM     15  C   UNL     1       2.373   1.435  -0.013  0.00  0.00    -0.037 A 
ATOM     16  C   UNL     1       2.401   0.037  -0.021  0.00  0.00    +0.003 A 
ATOM     17  C   UNL     1       1.210  -0.683  -0.013  0.00  0.00    +0.055 A 
ATOM     18  C   UNL     1       0.002  -0.004   0.002  0.00  0.00    +0.117 A 
ATOM     19  C   UNL     1       3.711  -0.643  -0.039  0.00  0.00    +0.044 C 
ATOM     20  N   UNL     1       4.771   0.001   0.317  0.00  0.00    -0.287 NA
ATOM     21  C   UNL     1       4.726   1.391   0.759  0.00  0.00    +0.146 C 
ATOM     22  C   UNL     1       3.679   2.185  -0.021  0.00  0.00    +0.059 C 
BRANCH  18  23
ATOM     23  O   UNL     1      -1.166  -0.698   0.010  0.00  0.00    -0.507 OA
ATOM     24  H   UNL     1      -1.513  -0.894  -0.871  0.00  0.00    +0.292 HD
ENDBRANCH  18  23
ENDBRANCH  12  19
ENDBRANCH   1  12
BRANCH   6  25
ATOM     25  C   UNL     1       4.954  -3.974  -2.418  0.00  0.00    +0.129 C 
BRANCH  25  26
ATOM     26  C   UNL     1       5.187  -5.346  -2.999  0.00  0.00    +0.356 C 
ATOM     27  O   UNL     1       5.657  -6.230  -2.303  0.00  0.00    -0.246 OA
ATOM     28  O   UNL     1       4.906  -5.571  -4.163  0.00  0.00    -0.246 OA
ENDBRANCH  25  26
ENDBRANCH   6  25
TORSDOF 6
