REMARK  Name = ZINC44926731
REMARK  4 active torsions:
REMARK  status: ('A' for Active; 'I' for Inactive)
REMARK    1  A    between atoms: C_1  and  C_2
REMARK    2  A    between atoms: C_2  and  C_4
REMARK    3  A    between atoms: C_2  and  N_9
REMARK    4  A    between atoms: N_9  and  C_10
REMARK                            x       y       z     vdW  Elec       q    Type
REMARK                         _______ _______ _______ _____ _____    ______ ____
ROOT
ATOM      1  C   UNL     1       2.122  -0.083   1.122  0.00  0.00    +0.050 C 
ATOM      2  C   UNL     1       2.859  -0.506   2.372  0.00  0.00    -0.030 A 
ATOM      3  C   UNL     1       2.702  -0.189   3.703  0.00  0.00    +0.022 A 
ATOM      4  C   UNL     1       3.547  -0.744   4.649  0.00  0.00    +0.053 A 
ATOM      5  C   UNL     1       4.548  -1.617   4.251  0.00  0.00    +0.139 A 
ATOM      6  C   UNL     1       4.705  -1.935   2.916  0.00  0.00    +0.063 A 
ATOM      7  C   UNL     1       3.858  -1.379   1.960  0.00  0.00    +0.038 A 
ATOM      8  N   UNL     1       3.815  -1.541   0.575  0.00  0.00    -0.286 N 
ATOM      9  C   UNL     1       2.832  -0.818   0.005  0.00  0.00    +0.208 C 
ATOM     10  O   UNL     1       2.564  -0.765  -1.176  0.00  0.00    -0.277 OA
ATOM     11  F   UNL     1       5.373  -2.158   5.173  0.00  0.00    -0.204 F 
ATOM     12 BR   UNL     1       3.337  -0.312   6.478  0.00  0.00    -0.047 Br
ATOM     13  H   UNL     1       4.425  -2.109   0.078  0.00  0.00    +0.155 HD
ENDROOT
BRANCH   1  14
ATOM     14  N   UNL     1       0.713  -0.491   1.192  0.00  0.00    +0.396 N 
ATOM     15  H   UNL     1       0.290  -0.099   2.020  0.00  0.00    -0.083 HD
ATOM     16  H   UNL     1       0.655  -1.497   1.230  0.00  0.00    -0.083 HD
BRANCH  14  18
ATOM     17  C   UNL     1      -0.019   1.526   0.010  0.00  0.00    -0.006 C 
ATOM     18  C   UNL     1       0.002  -0.004   0.002  0.00  0.00    -0.000 C 
BRANCH  18  19
ATOM     19  C   UNL     1      -1.412  -0.526   0.013  0.00  0.00    +0.163 A 
ATOM     20  N   UNL     1      -2.067  -1.052  -1.011  0.00  0.00    -0.113 NA
ATOM     21  N   UNL     1      -3.245  -1.375  -0.596  0.00  0.00    -0.021 NA
ATOM     22  N   UNL     1      -3.348  -1.069   0.650  0.00  0.00    -0.021 NA
ATOM     23  N   UNL     1      -2.236  -0.552   1.050  0.00  0.00    -0.113 NA
ENDBRANCH  18  19
ENDBRANCH  14  18
ENDBRANCH   1  14
TORSDOF 3
