REMARK  Name = ZINC21356874
REMARK  6 active torsions:
REMARK  status: ('A' for Active; 'I' for Inactive)
REMARK    1  A    between atoms: C_1  and  C_2
REMARK    2  A    between atoms: C_2  and  O_3
REMARK    3  A    between atoms: N_4  and  C_5
REMARK    4  A    between atoms: C_9  and  S_11
REMARK    5  A    between atoms: S_11  and  C_12
REMARK    6  A    between atoms: C_12  and  C_13
REMARK                            x       y       z     vdW  Elec       q    Type
REMARK                         _______ _______ _______ _____ _____    ______ ____
ROOT
ATOM      1  C   UNL     1       0.019  -2.012  -1.137  0.00  0.00    +0.250 A 
ATOM      2  N   UNL     1       0.024  -2.803  -2.235  0.00  0.00    -0.242 N 
ATOM      3  H   UNL     1       0.016  -2.512  -3.161  0.00  0.00    +0.192 HD
ATOM      4  N   UNL     1       0.045  -4.128  -1.770  0.00  0.00    -0.144 NA
ATOM      5  C   UNL     1       0.051  -4.074  -0.458  0.00  0.00    +0.211 A 
ATOM      6  N   UNL     1       0.040  -2.795  -0.074  0.00  0.00    -0.184 NA
ENDROOT
BRANCH   1   9
ATOM      7  C   UNL     1      -0.018   1.503   0.010  0.00  0.00    +0.109 C 
ATOM      8  C   UNL     1       0.002  -0.004   0.002  0.00  0.00    +0.187 C 
ATOM      9  N   UNL     1       0.000  -0.649  -1.129  0.00  0.00    -0.180 NA
BRANCH   8  10
ATOM     10  O   UNL     1       0.022  -0.684   1.165  0.00  0.00    -0.496 OA
ATOM     11  H   UNL     1       0.022  -0.120   1.950  0.00  0.00    +0.293 HD
ENDBRANCH   8  10
ENDBRANCH   1   9
BRANCH   5  12
ATOM     12  S   UNL     1       0.075  -5.466   0.621  0.00  0.00    -0.080 S 
BRANCH  12  13
ATOM     13  C   UNL     1       0.089  -6.892  -0.500  0.00  0.00    +0.112 C 
BRANCH  13  14
ATOM     14  C   UNL     1       0.111  -8.165   0.305  0.00  0.00    -0.037 A 
ATOM     15  C   UNL     1       1.318  -8.729   0.674  0.00  0.00    +0.007 A 
ATOM     16  C   UNL     1       1.338  -9.896   1.413  0.00  0.00    +0.038 A 
ATOM     17  C   UNL     1       0.149 -10.501   1.785  0.00  0.00    +0.123 A 
ATOM     18  C   UNL     1      -1.059  -9.935   1.415  0.00  0.00    +0.038 A 
ATOM     19  C   UNL     1      -1.077  -8.765   0.680  0.00  0.00    +0.007 A 
ATOM     20  F   UNL     1       0.168 -11.643   2.507  0.00  0.00    -0.205 F 
ENDBRANCH  13  14
ENDBRANCH  12  13
ENDBRANCH   5  12
TORSDOF 5
