REMARK  Name = ZINC04043081
REMARK  8 active torsions:
REMARK  status: ('A' for Active; 'I' for Inactive)
REMARK    1  A    between atoms: C_1  and  C_2
REMARK    2  A    between atoms: N_4  and  C_5
REMARK    3  A    between atoms: C_7  and  O_27
REMARK    4  A    between atoms: C_9  and  O_26
REMARK    5  A    between atoms: C_11  and  C_24
REMARK    6  A    between atoms: C_14  and  O_16
REMARK    7  A    between atoms: O_16  and  C_17
REMARK    8  A    between atoms: C_24  and  O_25
REMARK                            x       y       z     vdW  Elec       q    Type
REMARK                         _______ _______ _______ _____ _____    ______ ____
ROOT
ATOM      1  C   UNL     1       2.541   3.717   0.076  0.00  0.00    +0.173 C 
ATOM      2  C   UNL     1       1.146   3.087   0.008  0.00  0.00    +0.172 C 
ATOM      3  C   UNL     1       1.286   1.562  -0.002  0.00  0.00    +0.176 C 
ATOM      4  C   UNL     1       2.062   1.121   1.242  0.00  0.00    +0.179 C 
ATOM      5  O   UNL     1       3.337   1.766   1.260  0.00  0.00    -0.332 OA
ATOM      6  C   UNL     1       3.268   3.192   1.317  0.00  0.00    +0.331 C 
ENDROOT
BRANCH   1  10
ATOM      7  C   UNL     1       3.296   7.461  -0.177  0.00  0.00    +0.109 C 
ATOM      8  C   UNL     1       3.424   5.962  -0.264  0.00  0.00    +0.210 C 
ATOM      9  O   UNL     1       4.434   5.465  -0.716  0.00  0.00    -0.276 OA
ATOM     10  N   UNL     1       2.417   5.174   0.161  0.00  0.00    -0.304 N 
ATOM     11  H   UNL     1       1.609   5.572   0.523  0.00  0.00    +0.149 HD
ENDBRANCH   1  10
BRANCH   3  12
ATOM     12  O   UNL     1      -0.011   0.963   0.007  0.00  0.00    -0.387 OA
ATOM     13  H   UNL     1       0.002  -0.004   0.002  0.00  0.00    +0.210 HD
ENDBRANCH   3  12
BRANCH   2  14
ATOM     14  O   UNL     1       0.485   3.514  -1.185  0.00  0.00    -0.387 OA
ATOM     15  H   UNL     1      -0.403   3.147  -1.296  0.00  0.00    +0.210 HD
ENDBRANCH   2  14
BRANCH   6  16
ATOM     16  O   UNL     1       4.591   3.732   1.358  0.00  0.00    -0.460 OA
BRANCH  16  17
ATOM     17  C   UNL     1       5.340   3.448   2.456  0.00  0.00    +0.142 A 
ATOM     18  C   UNL     1       4.812   2.666   3.473  0.00  0.00    +0.047 A 
ATOM     19  C   UNL     1       5.575   2.379   4.589  0.00  0.00    +0.004 A 
ATOM     20  C   UNL     1       6.864   2.870   4.692  0.00  0.00    +0.002 A 
ATOM     21  C   UNL     1       7.393   3.650   3.680  0.00  0.00    +0.023 A 
ATOM     22  C   UNL     1       6.635   3.936   2.559  0.00  0.00    +0.083 A 
ATOM     23 CL   UNL     1       7.302   4.908   1.285  0.00  0.00    -0.080 Cl
ENDBRANCH  16  17
ENDBRANCH   6  16
BRANCH   4  24
ATOM     24  C   UNL     1       2.259  -0.396   1.210  0.00  0.00    +0.190 C 
BRANCH  24  25
ATOM     25  O   UNL     1       2.879  -0.822   2.424  0.00  0.00    -0.392 OA
ATOM     26  H   UNL     1       3.035  -1.776   2.473  0.00  0.00    +0.210 HD
ENDBRANCH  24  25
ENDBRANCH   4  24
TORSDOF 7
