REMARK  Name = ZINC05525779
REMARK  7 active torsions:
REMARK  status: ('A' for Active; 'I' for Inactive)
REMARK    1  A    between atoms: C_1  and  C_2
REMARK    2  A    between atoms: C_2  and  O_3
REMARK    3  A    between atoms: O_3  and  C_4
REMARK    4  A    between atoms: C_6  and  C_14
REMARK    5  A    between atoms: C_8  and  C_11
REMARK    6  A    between atoms: C_9  and  O_10
REMARK    7  A    between atoms: C_11  and  C_12
REMARK                            x       y       z     vdW  Elec       q    Type
REMARK                         _______ _______ _______ _____ _____    ______ ____
ROOT
ATOM      1  C   UNL     1      -0.087   1.565  -2.750  0.00  0.00    +0.162 A 
ATOM      2  C   UNL     1       0.908   0.611  -2.676  0.00  0.00    +0.057 A 
ATOM      3  C   UNL     1       1.619   0.255  -3.829  0.00  0.00    -0.020 A 
ATOM      4  C   UNL     1       1.322   0.876  -5.048  0.00  0.00    +0.015 A 
ATOM      5  C   UNL     1       0.331   1.831  -5.111  0.00  0.00    +0.002 A 
ATOM      6  C   UNL     1      -0.376   2.179  -3.968  0.00  0.00    +0.162 A 
ENDROOT
BRANCH   3   7
ATOM      7  C   UNL     1       2.675  -0.763  -3.759  0.00  0.00    +0.028 C 
ATOM      8  C   UNL     1       2.807  -1.673  -4.757  0.00  0.00    +0.081 A 
ATOM      9  C   UNL     1       1.931  -1.931  -5.908  0.00  0.00    +0.272 A 
ATOM     10  O   UNL     1       0.913  -1.286  -6.079  0.00  0.00    -0.266 OA
ATOM     11  N   UNL     1       2.289  -2.899  -6.765  0.00  0.00    -0.253 N 
ATOM     12  C   UNL     1       1.769  -3.456  -7.948  0.00  0.00    +0.077 A 
ATOM     13  C   UNL     1       0.634  -3.186  -8.694  0.00  0.00    +0.028 A 
ATOM     14  C   UNL     1       0.379  -3.915  -9.839  0.00  0.00    +0.002 A 
ATOM     15  C   UNL     1       1.252  -4.913 -10.244  0.00  0.00    +0.002 A 
ATOM     16  C   UNL     1       2.385  -5.193  -9.512  0.00  0.00    +0.030 A 
ATOM     17  C   UNL     1       2.656  -4.462  -8.351  0.00  0.00    +0.091 A 
ATOM     18  N   UNL     1       3.662  -4.499  -7.439  0.00  0.00    -0.221 NA
ATOM     19  C   UNL     1       3.449  -3.597  -6.524  0.00  0.00    +0.182 A 
ATOM     20  S   UNL     1       4.099  -2.877  -5.031  0.00  0.00    -0.046 S 
ENDBRANCH   3   7
BRANCH   6  21
ATOM     21  O   UNL     1      -1.352   3.121  -4.036  0.00  0.00    -0.503 OA
ATOM     22  H   UNL     1      -1.040   4.023  -3.880  0.00  0.00    +0.292 HD
ENDBRANCH   6  21
BRANCH   1  23
ATOM     23  O   UNL     1      -0.782   1.910  -1.633  0.00  0.00    -0.489 OA
BRANCH  23  25
ATOM     24  C   UNL     1      -1.316   1.757   0.719  0.00  0.00    +0.048 C 
ATOM     25  C   UNL     1      -0.433   1.241  -0.419  0.00  0.00    +0.226 C 
ENDBRANCH  23  25
ENDBRANCH   1  23
BRANCH   5  26
ATOM     26  C   UNL     1       0.013   2.499  -6.424  0.00  0.00    +0.065 C 
BRANCH  26  27
ATOM     27  C   UNL     1       0.772   3.796  -6.524  0.00  0.00    -0.030 C 
ATOM     28  C   UNL     1       1.551   4.022  -7.553  0.00  0.00    +0.004 C 
ENDBRANCH  26  27
ENDBRANCH   5  26
TORSDOF 6
