REMARK  Name = ZINC42692070
REMARK  10 active torsions:
REMARK  status: ('A' for Active; 'I' for Inactive)
REMARK    1  A    between atoms: C_1  and  C_2
REMARK    2  A    between atoms: C_4  and  C_20
REMARK    3  A    between atoms: C_7  and  C_8
REMARK    4  A    between atoms: C_8  and  N_10
REMARK    5  A    between atoms: N_11  and  C_12
REMARK    6  A    between atoms: N_11  and  C_16
REMARK    7  A    between atoms: C_12  and  C_13
REMARK    8  A    between atoms: C_13  and  C_14
REMARK    9  A    between atoms: C_13  and  C_15
REMARK   10  A    between atoms: C_16  and  C_17
REMARK                            x       y       z     vdW  Elec       q    Type
REMARK                         _______ _______ _______ _____ _____    ______ ____
ROOT
ATOM      1  C   UNL     1       3.097  -0.283  -0.361  0.00  0.00    +0.044 C 
ATOM      2  C   UNL     1       1.685  -0.728  -0.083  0.00  0.00    -0.036 A 
ATOM      3  C   UNL     1       0.660  -0.428  -0.963  0.00  0.00    +0.025 A 
ATOM      4  C   UNL     1      -0.626  -0.851  -0.681  0.00  0.00    +0.015 A 
ATOM      5  N   UNL     1      -0.897  -1.535   0.414  0.00  0.00    -0.347 N 
ATOM      6  C   UNL     1       0.044  -1.849   1.290  0.00  0.00    +0.109 A 
ATOM      7  C   UNL     1       1.378  -1.460   1.070  0.00  0.00    +0.044 A 
ATOM      8  N   UNL     1      -0.285  -2.568   2.425  0.00  0.00    -0.307 N 
ATOM      9  C   UNL     1      -1.740  -0.523  -1.642  0.00  0.00    +0.063 C 
ATOM     10  H   UNL     1      -1.810  -1.815   0.582  0.00  0.00    +0.167 HD
ENDROOT
BRANCH   7  11
ATOM     11  C   UNL     1       2.430  -1.812   2.038  0.00  0.00    +0.080 C 
ATOM     12  S   UNL     1       2.547  -0.965   3.521  0.00  0.00    -0.035 S 
BRANCH  11  13
ATOM     13  N   UNL     1       3.302  -2.800   1.756  0.00  0.00    -0.352 N 
ATOM     14  H   UNL     1       3.192  -3.329   0.950  0.00  0.00    +0.143 HD
ATOM     15  H   UNL     1       4.040  -2.984   2.359  0.00  0.00    +0.143 HD
ENDBRANCH  11  13
ENDBRANCH   7  11
BRANCH   8  16
ATOM     16  C   UNL     1      -0.406  -4.026   2.359  0.00  0.00    +0.110 C 
BRANCH  16  17
ATOM     17  C   UNL     1       0.952  -4.665   2.656  0.00  0.00    +0.000 C 
ATOM     18  C   UNL     1       1.365  -4.340   4.093  0.00  0.00    +0.009 C 
ATOM     19  C   UNL     1       0.850  -6.182   2.485  0.00  0.00    +0.009 C 
ENDBRANCH  16  17
ENDBRANCH   8  16
BRANCH   8  20
ATOM     20  C   UNL     1      -0.512  -1.871   3.694  0.00  0.00    +0.201 C 
BRANCH  20  21
ATOM     21  C   UNL     1      -1.979  -1.562   3.842  0.00  0.00    +0.228 C 
ATOM     22  O   UNL     1      -2.771  -1.974   3.021  0.00  0.00    -0.274 OA
ATOM     23  N   UNL     1      -2.412  -0.830   4.887  0.00  0.00    -0.328 N 
ATOM     24  H   UNL     1      -1.772  -0.440   5.504  0.00  0.00    +0.145 HD
ATOM     25  H   UNL     1      -3.362  -0.692   5.023  0.00  0.00    +0.145 HD
ENDBRANCH  20  21
ENDBRANCH   8  20
TORSDOF 6
