REMARK  Name = ZINC40783536
REMARK  7 active torsions:
REMARK  status: ('A' for Active; 'I' for Inactive)
REMARK    1  A    between atoms: C_1  and  C_2
REMARK    2  A    between atoms: C_2  and  O_3
REMARK    3  A    between atoms: O_3  and  C_4
REMARK    4  A    between atoms: C_9  and  N_10
REMARK    5  A    between atoms: C_12  and  N_28
REMARK    6  A    between atoms: C_13  and  N_17
REMARK    7  A    between atoms: C_21  and  C_27
REMARK                            x       y       z     vdW  Elec       q    Type
REMARK                         _______ _______ _______ _____ _____    ______ ____
ROOT
ATOM      1  N   UNL     1      -3.902  -1.567   0.030  0.00  0.00    -0.295 N 
ATOM      2  C   UNL     1      -5.176  -2.115  -0.065  0.00  0.00    +0.149 A 
ATOM      3  C   UNL     1      -6.298  -1.289  -0.162  0.00  0.00    +0.106 A 
ATOM      4  C   UNL     1      -7.553  -1.892  -0.256  0.00  0.00    +0.150 A 
ATOM      5  N   UNL     1      -7.633  -3.221  -0.249  0.00  0.00    -0.219 NA
ATOM      6  C   UNL     1      -6.549  -3.963  -0.156  0.00  0.00    +0.225 A 
ATOM      7  N   UNL     1      -5.344  -3.435  -0.071  0.00  0.00    -0.219 NA
ATOM      8  H   UNL     1      -3.778  -0.610  -0.065  0.00  0.00    +0.154 HD
ENDROOT
BRANCH   4   9
ATOM      9  N   UNL     1      -8.704  -1.116  -0.354  0.00  0.00    -0.277 N 
ATOM     10  C   UNL     1      -9.942  -1.724  -0.446  0.00  0.00    +0.165 A 
ATOM     11  N   UNL     1     -11.127  -1.167  -0.550  0.00  0.00    -0.224 NA
ATOM     12  C   UNL     1     -12.264  -1.893  -0.633  0.00  0.00    +0.083 A 
ATOM     13  C   UNL     1     -13.593  -1.423  -0.747  0.00  0.00    -0.024 A 
ATOM     14  C   UNL     1     -14.642  -2.301  -0.820  0.00  0.00    +0.005 A 
ATOM     15  C   UNL     1     -14.443  -3.673  -0.784  0.00  0.00    +0.001 A 
ATOM     16  C   UNL     1     -13.156  -4.168  -0.673  0.00  0.00    +0.017 A 
ATOM     17  C   UNL     1     -12.099  -3.296  -0.600  0.00  0.00    +0.041 A 
ATOM     18  S   UNL     1     -10.336  -3.467  -0.462  0.00  0.00    -0.052 S 
ATOM     19  C   UNL     1     -13.857   0.060  -0.789  0.00  0.00    +0.046 C 
ATOM     20  H   UNL     1      -8.638  -0.148  -0.358  0.00  0.00    +0.156 HD
ENDBRANCH   4   9
BRANCH   1  26
ATOM     21  C   UNL     1      -1.529  -2.005  -0.154  0.00  0.00    +0.142 A 
ATOM     22  C   UNL     1      -0.440  -2.827   0.085  0.00  0.00    +0.047 A 
ATOM     23  C   UNL     1      -0.615  -4.035   0.734  0.00  0.00    +0.004 A 
ATOM     24  C   UNL     1      -1.876  -4.427   1.145  0.00  0.00    +0.002 A 
ATOM     25  C   UNL     1      -2.967  -3.613   0.910  0.00  0.00    +0.027 A 
ATOM     26  C   UNL     1      -2.799  -2.396   0.265  0.00  0.00    +0.075 A 
BRANCH  21  27
ATOM     27  O   UNL     1      -1.358  -0.816  -0.792  0.00  0.00    -0.490 OA
BRANCH  27  29
ATOM     28  C   UNL     1      -0.034   0.883  -1.889  0.00  0.00    +0.048 C 
ATOM     29  C   UNL     1      -0.028  -0.480  -1.193  0.00  0.00    +0.226 C 
ENDBRANCH  27  29
ENDBRANCH  21  27
ENDBRANCH   1  26
BRANCH   3  30
ATOM     30  N   UNL     1      -6.167   0.108  -0.165  0.00  0.00    -0.353 N 
ATOM     31  H   UNL     1      -5.288   0.513  -0.099  0.00  0.00    +0.143 HD
ATOM     32  H   UNL     1      -6.955   0.669  -0.233  0.00  0.00    +0.143 HD
ENDBRANCH   3  30
TORSDOF 5
