REMARK  Name = ZINC66683063
REMARK  10 active torsions:
REMARK  status: ('A' for Active; 'I' for Inactive)
REMARK    1  A    between atoms: C_1  and  C_2
REMARK    2  A    between atoms: C_4  and  N_14
REMARK    3  A    between atoms: C_7  and  C_8
REMARK    4  A    between atoms: N_10  and  C_11
REMARK    5  A    between atoms: C_11  and  C_12
REMARK    6  A    between atoms: C_11  and  C_13
REMARK    7  A    between atoms: N_17  and  C_18
REMARK    8  A    between atoms: C_18  and  C_19
REMARK    9  A    between atoms: C_22  and  C_24
REMARK   10  A    between atoms: C_27  and  C_29
REMARK                            x       y       z     vdW  Elec       q    Type
REMARK                         _______ _______ _______ _____ _____    ______ ____
ROOT
ATOM      1  N   UNL     1       0.211  -2.848  -2.359  0.00  0.00    -0.269 N 
ATOM      2  C   UNL     1       0.451  -4.173  -2.309  0.00  0.00    +0.304 C 
ATOM      3  O   UNL     1       0.675  -4.711  -1.241  0.00  0.00    -0.252 OA
ATOM      4  N   UNL     1       0.443  -4.903  -3.442  0.00  0.00    -0.292 N 
ATOM      5  H   UNL     1       0.107  -2.406  -3.216  0.00  0.00    +0.156 HD
ATOM      6  H   UNL     1       0.264  -4.474  -4.293  0.00  0.00    +0.151 HD
ENDROOT
BRANCH   1  10
ATOM      7  C   UNL     1      -1.133  -2.603   2.357  0.00  0.00    +0.044 C 
ATOM      8  C   UNL     1      -0.536  -1.971   1.126  0.00  0.00    -0.037 A 
ATOM      9  C   UNL     1      -0.438  -2.695  -0.041  0.00  0.00    +0.027 A 
ATOM     10  C   UNL     1       0.113  -2.112  -1.179  0.00  0.00    +0.035 A 
ATOM     11  C   UNL     1       0.566  -0.797  -1.141  0.00  0.00    +0.024 A 
ATOM     12  C   UNL     1       0.470  -0.068   0.023  0.00  0.00    +0.015 A 
ATOM     13  C   UNL     1      -0.087  -0.649   1.166  0.00  0.00    +0.040 A 
BRANCH  13  14
ATOM     14  C   UNL     1      -0.196   0.132   2.414  0.00  0.00    +0.245 C 
ATOM     15  O   UNL     1      -0.785  -0.332   3.371  0.00  0.00    -0.270 OA
ATOM     16  N   UNL     1       0.357   1.358   2.492  0.00  0.00    -0.309 N 
ATOM     17  H   UNL     1       0.827   1.728   1.728  0.00  0.00    +0.149 HD
BRANCH  16  18
ATOM     18  C   UNL     1       0.249   2.133   3.731  0.00  0.00    +0.067 C 
ATOM     19  C   UNL     1       1.372   1.726   4.686  0.00  0.00    +0.027 C 
ATOM     20  C   UNL     1       0.367   3.625   3.411  0.00  0.00    +0.027 C 
ENDBRANCH  16  18
ENDBRANCH  13  14
ENDBRANCH   1  10
BRANCH   4  21
ATOM     21  C   UNL     1       0.704  -6.344  -3.387  0.00  0.00    +0.180 C 
BRANCH  21  22
ATOM     22  C   UNL     1       0.637  -6.919  -4.778  0.00  0.00    +0.122 A 
ATOM     23  C   UNL     1       1.670  -7.037  -5.631  0.00  0.00    +0.046 A 
ATOM     24  C   UNL     1       1.161  -7.625  -6.812  0.00  0.00    +0.045 A 
ATOM     25  C   UNL     1      -0.153  -7.831  -6.610  0.00  0.00    +0.109 A 
ATOM     26  O   UNL     1      -0.464  -7.407  -5.374  0.00  0.00    -0.463 OA
BRANCH  25  27
ATOM     27  C   UNL     1      -1.112  -8.440  -7.601  0.00  0.00    +0.058 C 
ATOM     28  C   UNL     1      -2.520  -8.776  -7.105  0.00  0.00    +0.015 C 
ATOM     29  C   UNL     1      -2.302  -7.588  -8.046  0.00  0.00    -0.003 C 
ATOM     30  C   UNL     1      -2.428  -6.184  -7.452  0.00  0.00    +0.008 C 
ENDBRANCH  25  27
ENDBRANCH  21  22
ENDBRANCH   4  21
TORSDOF 6
