REMARK  Name = ZINC15956228
REMARK  6 active torsions:
REMARK  status: ('A' for Active; 'I' for Inactive)
REMARK    1  A    between atoms: C_4  and  C_7
REMARK    2  A    between atoms: C_7  and  C_9
REMARK    3  A    between atoms: C_7  and  O_41
REMARK    4  A    between atoms: C_9  and  N_10
REMARK    5  A    between atoms: C_30  and  C_32
REMARK    6  A    between atoms: C_36  and  N_38
REMARK                            x       y       z     vdW  Elec       q    Type
REMARK                         _______ _______ _______ _____ _____    ______ ____
ROOT
ATOM      1  N   UNL     1      -1.899  -2.584   2.285  0.00  0.00    -0.288 N 
ATOM      2  C   UNL     1      -2.732  -1.549   2.875  0.00  0.00    +0.203 C 
ATOM      3  C   UNL     1      -2.878  -0.366   1.974  0.00  0.00    +0.234 C 
ATOM      4  O   UNL     1      -3.533   0.572   2.375  0.00  0.00    -0.274 OA
ATOM      5  N   UNL     1      -2.345  -0.284   0.768  0.00  0.00    -0.276 N 
ATOM      6  C   UNL     1      -1.593  -1.362   0.128  0.00  0.00    +0.167 C 
ATOM      7  C   UNL     1      -1.383  -2.511   1.060  0.00  0.00    +0.237 C 
ATOM      8  O   UNL     1      -0.698  -3.436   0.676  0.00  0.00    -0.274 OA
ATOM      9  C   UNL     1      -2.356  -1.840  -1.116  0.00  0.00    +0.069 C 
ATOM     10  C   UNL     1      -2.822  -0.636  -1.894  0.00  0.00    -0.015 A 
ATOM     11  C   UNL     1      -3.269  -0.574  -3.271  0.00  0.00    +0.003 A 
ATOM     12  C   UNL     1      -3.402  -1.545  -4.268  0.00  0.00    +0.010 A 
ATOM     13  C   UNL     1      -3.870  -1.121  -5.487  0.00  0.00    +0.001 A 
ATOM     14  C   UNL     1      -4.199   0.202  -5.730  0.00  0.00    +0.002 A 
ATOM     15  C   UNL     1      -4.077   1.183  -4.761  0.00  0.00    +0.026 A 
ATOM     16  C   UNL     1      -3.604   0.783  -3.514  0.00  0.00    +0.047 A 
ATOM     17  N   UNL     1      -3.367   1.473  -2.360  0.00  0.00    -0.356 N 
ATOM     18  H   UNL     1      -3.509   2.425  -2.239  0.00  0.00    +0.166 HD
ATOM     19  C   UNL     1      -2.899   0.618  -1.397  0.00  0.00    +0.046 A 
ATOM     20  C   UNL     1      -2.514   0.980   0.019  0.00  0.00    +0.154 C 
ENDROOT
BRANCH  20  21
ATOM     21  C   UNL     1      -1.219   1.751   0.017  0.00  0.00    -0.019 A 
ATOM     22  C   UNL     1      -0.066   1.167   0.508  0.00  0.00    +0.006 A 
ATOM     23  C   UNL     1       1.123   1.872   0.501  0.00  0.00    +0.003 A 
ATOM     24  C   UNL     1       1.157   3.163   0.009  0.00  0.00    +0.033 A 
ATOM     25  C   UNL     1       0.004   3.749  -0.477  0.00  0.00    +0.127 A 
ATOM     26  C   UNL     1      -1.185   3.043  -0.471  0.00  0.00    +0.038 A 
BRANCH  25  27
ATOM     27  N   UNL     1       0.041   5.131  -1.005  0.00  0.00    +0.056 N 
ATOM     28  O   UNL     1       1.088   5.753  -1.011  0.00  0.00    -0.126 OA
ATOM     29  O   UNL     1      -0.976   5.647  -1.433  0.00  0.00    -0.126 OA
ENDBRANCH  25  27
ENDBRANCH  20  21
BRANCH   1  30
ATOM     30  C   UNL     1      -1.611  -3.777   3.086  0.00  0.00    +0.144 C 
BRANCH  30  31
ATOM     31  C   UNL     1      -0.335  -3.550   3.898  0.00  0.00    +0.162 C 
BRANCH  31  35
ATOM     32  C   UNL     1       0.698  -7.145   5.962  0.00  0.00    +0.000 A 
ATOM     33  C   UNL     1       1.345  -6.812   4.787  0.00  0.00    +0.000 A 
ATOM     34  C   UNL     1       1.011  -5.649   4.119  0.00  0.00    +0.006 A 
ATOM     35  C   UNL     1       0.029  -4.819   4.626  0.00  0.00    -0.018 A 
ATOM     36  C   UNL     1      -0.615  -5.148   5.804  0.00  0.00    +0.006 A 
ATOM     37  C   UNL     1      -0.283  -6.314   6.470  0.00  0.00    +0.000 A 
ENDBRANCH  31  35
BRANCH  31  38
ATOM     38  O   UNL     1      -0.553  -2.503   4.846  0.00  0.00    -0.386 OA
ATOM     39  H   UNL     1      -1.264  -2.685   5.476  0.00  0.00    +0.210 HD
ENDBRANCH  31  38
ENDBRANCH  30  31
ENDBRANCH   1  30
TORSDOF 6
