REMARK  Name = ZINC46497734
REMARK  5 active torsions:
REMARK  status: ('A' for Active; 'I' for Inactive)
REMARK    1  A    between atoms: C_1  and  N_2
REMARK    2  A    between atoms: C_11  and  C_13
REMARK    3  A    between atoms: C_13  and  C_14
REMARK    4  A    between atoms: C_14  and  N_16
REMARK    5  A    between atoms: N_25  and  C_26
REMARK                            x       y       z     vdW  Elec       q    Type
REMARK                         _______ _______ _______ _____ _____    ______ ____
ROOT
ATOM      1  N   UNL     1       5.040  -1.898  -0.018  0.00  0.00    -0.146 NA
ATOM      2  C   UNL     1       5.980  -0.963  -0.126  0.00  0.00    +0.206 A 
ATOM      3  N   UNL     1       5.760   0.379  -0.126  0.00  0.00    -0.326 N 
ATOM      4  C   UNL     1       6.987   1.022  -0.258  0.00  0.00    +0.066 A 
ATOM      5  C   UNL     1       7.353   2.360  -0.316  0.00  0.00    +0.028 A 
ATOM      6  C   UNL     1       8.682   2.704  -0.454  0.00  0.00    +0.002 A 
ATOM      7  C   UNL     1       9.653   1.720  -0.535  0.00  0.00    +0.002 A 
ATOM      8  C   UNL     1       9.300   0.387  -0.478  0.00  0.00    +0.028 A 
ATOM      9  C   UNL     1       7.966   0.030  -0.339  0.00  0.00    +0.073 A 
ATOM     10  N   UNL     1       7.315  -1.197  -0.250  0.00  0.00    -0.280 N 
ATOM     11  H   UNL     1       4.896   0.813  -0.047  0.00  0.00    +0.169 HD
ENDROOT
BRANCH  10  12
ATOM     12  C   UNL     1       7.928  -2.456  -0.284  0.00  0.00    +0.050 A 
ATOM     13  C   UNL     1       7.685  -3.319  -1.345  0.00  0.00    +0.026 A 
ATOM     14  C   UNL     1       8.291  -4.560  -1.376  0.00  0.00    +0.002 A 
ATOM     15  C   UNL     1       9.139  -4.943  -0.352  0.00  0.00    +0.000 A 
ATOM     16  C   UNL     1       9.382  -4.086   0.705  0.00  0.00    +0.002 A 
ATOM     17  C   UNL     1       8.784  -2.841   0.739  0.00  0.00    +0.026 A 
ENDBRANCH  10  12
BRANCH   1  18
ATOM     18  C   UNL     1       3.756  -1.552  -0.018  0.00  0.00    +0.245 C 
ATOM     19  O   UNL     1       3.442  -0.378  -0.020  0.00  0.00    -0.273 OA
BRANCH  18  20
ATOM     20  C   UNL     1       2.689  -2.617  -0.015  0.00  0.00    +0.155 C 
BRANCH  20  31
ATOM     21  C   UNL     1      -0.021   1.455  -0.023  0.00  0.00    +0.176 C 
ATOM     22  N   UNL     1       0.001  -0.010  -0.019  0.00  0.00    -0.232 N 
ATOM     23  C   UNL     1      -1.168  -0.684  -0.017  0.00  0.00    +0.275 A 
ATOM     24  O   UNL     1      -2.229  -0.086  -0.019  0.00  0.00    -0.266 OA
ATOM     25  C   UNL     1      -1.136  -2.152  -0.014  0.00  0.00    +0.050 A 
ATOM     26  C   UNL     1      -2.302  -2.916  -0.013  0.00  0.00    +0.014 A 
ATOM     27  C   UNL     1      -2.209  -4.291  -0.010  0.00  0.00    +0.001 A 
ATOM     28  C   UNL     1      -0.970  -4.918  -0.009  0.00  0.00    +0.001 A 
ATOM     29  C   UNL     1       0.186  -4.189  -0.010  0.00  0.00    +0.010 A 
ATOM     30  C   UNL     1       0.123  -2.794  -0.013  0.00  0.00    +0.011 A 
ATOM     31  C   UNL     1       1.330  -1.967  -0.016  0.00  0.00    +0.078 A 
ATOM     32  N   UNL     1       1.230  -0.671  -0.024  0.00  0.00    -0.172 NA
ENDBRANCH  20  31
ENDBRANCH  18  20
ENDBRANCH   1  18
TORSDOF 4
