REMARK  Name = ZINC49513866
REMARK  5 active torsions:
REMARK  status: ('A' for Active; 'I' for Inactive)
REMARK    1  A    between atoms: C_4  and  S_7
REMARK    2  A    between atoms: S_7  and  N_10
REMARK    3  A    between atoms: C_11  and  C_13
REMARK    4  A    between atoms: C_13  and  N_14
REMARK    5  A    between atoms: N_17  and  C_18
REMARK                            x       y       z     vdW  Elec       q    Type
REMARK                         _______ _______ _______ _____ _____    ______ ____
ROOT
ATOM      1  N   UNL     1       2.840  -2.200  -2.724  0.00  0.00    -0.094 NA
ATOM      2  C   UNL     1       3.346  -2.920  -3.668  0.00  0.00    +0.281 C 
ATOM      3  O   UNL     1       4.010  -2.329  -4.684  0.00  0.00    -0.268 OA
ENDROOT
BRANCH   1   4
ATOM      4  S   UNL     1       3.003  -0.553  -2.760  0.00  0.00    +0.075 S 
ATOM      5  O   UNL     1       2.292  -0.143  -3.920  0.00  0.00    -0.151 OA
ATOM      6  O   UNL     1       4.401  -0.325  -2.649  0.00  0.00    -0.151 OA
BRANCH   4  10
ATOM      7  C   UNL     1      -0.019   1.526   0.010  0.00  0.00    +0.000 C 
ATOM      8  C   UNL     1       1.417   2.055  -0.000  0.00  0.00    +0.002 C 
ATOM      9  C   UNL     1       2.133   1.562  -1.259  0.00  0.00    +0.028 C 
ATOM     10  C   UNL     1       2.154   0.032  -1.268  0.00  0.00    +0.155 C 
ATOM     11  C   UNL     1       0.718  -0.497  -1.257  0.00  0.00    +0.028 C 
ATOM     12  C   UNL     1       0.002  -0.004   0.002  0.00  0.00    +0.002 C 
ENDBRANCH   4  10
ENDBRANCH   1   4
BRANCH   2  13
ATOM     13  C   UNL     1       3.198  -4.419  -3.636  0.00  0.00    +0.208 C 
BRANCH  13  14
ATOM     14  N   UNL     1       2.445  -4.809  -2.441  0.00  0.00    -0.290 N 
ATOM     15  C   UNL     1       2.188  -6.111  -2.202  0.00  0.00    +0.300 C 
ATOM     16  O   UNL     1       2.582  -6.961  -2.977  0.00  0.00    -0.253 OA
ATOM     17  N   UNL     1       1.496  -6.470  -1.103  0.00  0.00    -0.297 N 
ATOM     18  H   UNL     1       2.130  -4.131  -1.823  0.00  0.00    +0.151 HD
ATOM     19  H   UNL     1       1.181  -5.792  -0.485  0.00  0.00    +0.151 HD
BRANCH  17  20
ATOM     20  C   UNL     1       1.217  -7.884  -0.843  0.00  0.00    +0.075 C 
ATOM     21  C   UNL     1      -0.193  -8.252  -0.375  0.00  0.00    +0.024 C 
ATOM     22  C   UNL     1       0.977  -8.301   0.610  0.00  0.00    +0.024 C 
ENDBRANCH  17  20
ENDBRANCH  13  14
ENDBRANCH   2  13
TORSDOF 5
