REMARK  Name = ZINC35188598
REMARK  3 active torsions:
REMARK  status: ('A' for Active; 'I' for Inactive)
REMARK    1  A    between atoms: C_1  and  C_2
REMARK    2  A    between atoms: C_10  and  O_14
REMARK    3  A    between atoms: O_14  and  C_15
REMARK                            x       y       z     vdW  Elec       q    Type
REMARK                         _______ _______ _______ _____ _____    ______ ____
ROOT
ATOM      1  C   UNL     1      -0.019   1.526   0.010  0.00  0.00    +0.029 C 
ATOM      2  C   UNL     1       0.002  -0.004   0.002  0.00  0.00    +0.085 C 
ATOM      3  C   UNL     1      -1.432  -0.563   0.060  0.00  0.00    +0.124 C 
ATOM      4  N   UNL     1      -1.465  -1.337   1.310  0.00  0.00    -0.330 N 
ATOM      5  C   UNL     1      -0.258  -1.261   1.909  0.00  0.00    +0.095 C 
ATOM      6  C   UNL     1       0.040  -1.898   3.134  0.00  0.00    +0.057 C 
ATOM      7  C   UNL     1      -0.939  -2.662   3.791  0.00  0.00    +0.018 C 
ATOM      8  C   UNL     1      -0.649  -3.275   4.971  0.00  0.00    +0.046 C 
ATOM      9  C   UNL     1       0.619  -3.155   5.545  0.00  0.00    +0.124 C 
ATOM     10  C   UNL     1       1.603  -2.411   4.925  0.00  0.00    +0.097 C 
ATOM     11  C   UNL     1       1.332  -1.776   3.708  0.00  0.00    +0.193 C 
ATOM     12  O   UNL     1       2.200  -1.118   3.146  0.00  0.00    -0.287 OA
ATOM     13  N   UNL     1       0.640  -0.517   1.223  0.00  0.00    -0.328 N 
ATOM     14  H   UNL     1      -2.232  -1.824   1.649  0.00  0.00    +0.147 HD
ATOM     15  H   UNL     1       1.556  -0.348   1.492  0.00  0.00    +0.148 HD
ENDROOT
BRANCH   9  16
ATOM     16  O   UNL     1       0.886  -3.775   6.722  0.00  0.00    -0.495 OA
ATOM     17  C   UNL     1       2.201  -3.613   7.257  0.00  0.00    +0.277 C 
ENDBRANCH   9  16
TORSDOF 1
