REMARK  Name = ZINC13833445
REMARK  3 active torsions:
REMARK  status: ('A' for Active; 'I' for Inactive)
REMARK    1  A    between atoms: N_19  and  N_20
REMARK    2  A    between atoms: C_21  and  C_23
REMARK    3  A    between atoms: C_24  and  C_25
REMARK                            x       y       z     vdW  Elec       q    Type
REMARK                         _______ _______ _______ _____ _____    ______ ____
ROOT
ATOM      1  C   UNL     1       5.404  -3.347   2.110  0.00  0.00    +0.001 A 
ATOM      2  C   UNL     1       4.414  -3.728   2.998  0.00  0.00    +0.004 A 
ATOM      3  C   UNL     1       3.142  -3.224   2.852  0.00  0.00    +0.046 A 
ATOM      4  C   UNL     1       2.833  -2.329   1.818  0.00  0.00    +0.133 A 
ATOM      5  C   UNL     1       3.815  -1.961   0.931  0.00  0.00    +0.013 A 
ATOM      6  C   UNL     1       5.103  -2.474   1.089  0.00  0.00    +0.009 A 
ATOM      7  C   UNL     1       3.639  -1.028  -0.241  0.00  0.00    +0.154 C 
ATOM      8  N   UNL     1       2.374  -0.318  -0.226  0.00  0.00    -0.246 N 
ATOM      9  C   UNL     1       1.169  -1.013  -0.317  0.00  0.00    +0.082 A 
ATOM     10  C   UNL     1       0.358  -0.872  -1.441  0.00  0.00    +0.047 A 
ATOM     11  C   UNL     1      -0.798  -1.624  -1.547  0.00  0.00    +0.043 A 
ATOM     12  C   UNL     1      -1.148  -2.515  -0.547  0.00  0.00    +0.024 A 
ATOM     13  C   UNL     1      -0.356  -2.637   0.582  0.00  0.00    +0.049 A 
ATOM     14  C   UNL     1       0.784  -1.864   0.700  0.00  0.00    +0.150 A 
ATOM     15  O   UNL     1       1.556  -1.892   1.810  0.00  0.00    -0.454 OA
ATOM     16 CL   UNL     1      -1.817  -1.448  -2.942  0.00  0.00    -0.083 Cl
ATOM     17  C   UNL     1       2.363   1.025  -0.117  0.00  0.00    +0.323 C 
ATOM     18  O   UNL     1       3.410   1.644  -0.126  0.00  0.00    -0.251 OA
ATOM     19  N   UNL     1       1.193   1.683   0.003  0.00  0.00    -0.218 N 
ATOM     20  H   UNL     1       0.364   1.186   0.084  0.00  0.00    +0.174 HD
ENDROOT
BRANCH  19  21
ATOM     21  N   UNL     1       1.173   3.083   0.009  0.00  0.00    -0.230 N 
ATOM     22  C   UNL     1      -0.003   3.741   0.032  0.00  0.00    +0.253 C 
ATOM     23  O   UNL     1      -1.048   3.118   0.042  0.00  0.00    -0.269 OA
ATOM     24  H   UNL     1       2.006   3.580   0.001  0.00  0.00    +0.173 HD
BRANCH  22  25
ATOM     25  C   UNL     1      -0.023   5.207   0.045  0.00  0.00    +0.071 C 
ATOM     26  C   UNL     1      -1.198   5.864   0.068  0.00  0.00    +0.033 C 
BRANCH  26  27
ATOM     27  C   UNL     1      -1.218   7.338   0.081  0.00  0.00    +0.064 A 
ATOM     28  C   UNL     1      -2.440   8.014   0.105  0.00  0.00    +0.028 A 
ATOM     29  C   UNL     1      -2.442   9.399   0.117  0.00  0.00    +0.004 A 
ATOM     30  C   UNL     1      -1.224  10.063   0.105  0.00  0.00    +0.020 A 
ATOM     31  C   UNL     1      -0.050   9.329   0.081  0.00  0.00    +0.111 A 
ATOM     32  N   UNL     1      -0.074   8.014   0.076  0.00  0.00    -0.256 NA
ENDBRANCH  26  27
ENDBRANCH  22  25
ENDBRANCH  19  21
TORSDOF 3
