REMARK  Name = ZINC66262937
REMARK  5 active torsions:
REMARK  status: ('A' for Active; 'I' for Inactive)
REMARK    1  A    between atoms: C_1  and  C_2
REMARK    2  A    between atoms: C_2  and  C_17
REMARK    3  A    between atoms: N_5  and  C_9
REMARK    4  A    between atoms: C_9  and  C_10
REMARK    5  A    between atoms: C_10  and  C_11
REMARK                            x       y       z     vdW  Elec       q    Type
REMARK                         _______ _______ _______ _____ _____    ______ ____
ROOT
ATOM      1  C   UNL     1      -0.019   1.526   0.010  0.00  0.00    +0.047 C 
ATOM      2  C   UNL     1       0.002  -0.004   0.002  0.00  0.00    +0.141 C 
ATOM      3  C   UNL     1      -1.404  -0.557   0.121  0.00  0.00    +0.251 C 
ATOM      4  O   UNL     1      -2.324  -0.392  -0.652  0.00  0.00    -0.272 OA
ATOM      5  N   UNL     1      -1.419  -1.272   1.263  0.00  0.00    -0.223 N 
ATOM      6  C   UNL     1      -0.231  -1.248   1.876  0.00  0.00    +0.310 C 
ATOM      7  O   UNL     1       0.001  -1.819   2.923  0.00  0.00    -0.252 OA
ATOM      8  N   UNL     1       0.679  -0.520   1.204  0.00  0.00    -0.281 N 
ATOM      9  H   UNL     1       1.602  -0.365   1.461  0.00  0.00    +0.152 HD
ENDROOT
BRANCH   2  10
ATOM     10  C   UNL     1       0.673  -0.517  -1.246  0.00  0.00    +0.023 A 
ATOM     11  C   UNL     1       1.983  -0.790  -1.459  0.00  0.00    +0.015 A 
ATOM     12  C   UNL     1       2.378  -1.257  -2.699  0.00  0.00    +0.028 A 
ATOM     13  C   UNL     1       1.441  -1.428  -3.666  0.00  0.00    +0.078 A 
ATOM     14  S   UNL     1      -0.052  -0.929  -2.824  0.00  0.00    -0.079 S 
ATOM     15 CL   UNL     1       1.642  -1.992  -5.295  0.00  0.00    -0.076 Cl
ENDBRANCH   2  10
BRANCH   5  16
ATOM     16  C   UNL     1      -2.593  -1.987   1.771  0.00  0.00    +0.127 C 
BRANCH  16  17
ATOM     17  C   UNL     1      -2.601  -3.413   1.217  0.00  0.00    +0.115 C 
BRANCH  17  18
ATOM     18  C   UNL     1      -3.808  -4.148   1.739  0.00  0.00    +0.222 C 
ATOM     19  O   UNL     1      -4.585  -3.587   2.482  0.00  0.00    -0.275 OA
ATOM     20  N   UNL     1      -4.024  -5.429   1.381  0.00  0.00    -0.240 N 
ATOM     21  C   UNL     1      -5.104  -6.087   1.849  0.00  0.00    +0.303 C 
ATOM     22  O   UNL     1      -5.883  -5.524   2.593  0.00  0.00    -0.253 OA
ATOM     23  N   UNL     1      -5.320  -7.368   1.491  0.00  0.00    -0.313 N 
ATOM     24  H   UNL     1      -3.403  -5.878   0.787  0.00  0.00    +0.159 HD
ATOM     25  H   UNL     1      -4.698  -7.817   0.897  0.00  0.00    +0.146 HD
ATOM     26  H   UNL     1      -6.097  -7.841   1.827  0.00  0.00    +0.146 HD
ENDBRANCH  17  18
ENDBRANCH  16  17
ENDBRANCH   5  16
TORSDOF 4
