REMARK  Name = ZINC28847801
REMARK  8 active torsions:
REMARK  status: ('A' for Active; 'I' for Inactive)
REMARK    1  A    between atoms: C_1  and  C_2
REMARK    2  A    between atoms: C_2  and  N_3
REMARK    3  A    between atoms: C_7  and  C_9
REMARK    4  A    between atoms: C_9  and  C_11
REMARK    5  A    between atoms: C_9  and  S_12
REMARK    6  A    between atoms: S_12  and  C_13
REMARK    7  A    between atoms: C_16  and  C_19
REMARK    8  A    between atoms: N_17  and  N_18
REMARK                            x       y       z     vdW  Elec       q    Type
REMARK                         _______ _______ _______ _____ _____    ______ ____
ROOT
ATOM      1  S   UNL     1      -3.818   1.918   0.614  0.00  0.00    -0.072 S 
ENDROOT
BRANCH   1   2
ATOM      2  C   UNL     1      -5.141   0.755   0.658  0.00  0.00    +0.209 A 
ATOM      3  N   UNL     1      -5.077  -0.513   0.324  0.00  0.00    -0.121 NA
ATOM      4  N   UNL     1      -6.227  -1.064   0.480  0.00  0.00    -0.123 NA
ATOM      5  C   UNL     1      -7.089  -0.187   0.911  0.00  0.00    +0.255 A 
ATOM      6  N   UNL     1      -6.428   1.004   1.040  0.00  0.00    -0.220 N 
BRANCH   5   7
ATOM      7  C   UNL     1      -8.544  -0.438   1.212  0.00  0.00    +0.454 C 
ATOM      8  F   UNL     1      -8.773  -1.815   1.291  0.00  0.00    -0.163 F 
ATOM      9  F   UNL     1      -8.878   0.161   2.432  0.00  0.00    -0.163 F 
ATOM     10  F   UNL     1      -9.332   0.109   0.193  0.00  0.00    -0.163 F 
ENDBRANCH   5   7
BRANCH   6  11
ATOM     11  N   UNL     1      -6.948   2.194   1.464  0.00  0.00    -0.295 N 
ATOM     12  H   UNL     1      -8.009   2.261   1.745  0.00  0.00    +0.163 HD
ATOM     13  H   UNL     1      -6.305   3.084   1.523  0.00  0.00    +0.163 HD
ENDBRANCH   6  11
ENDBRANCH   1   2
BRANCH   1  14
ATOM     14  C   UNL     1      -2.482   0.853   0.018  0.00  0.00    +0.137 C 
ATOM     15  C   UNL     1      -2.799   0.384  -1.403  0.00  0.00    +0.029 C 
BRANCH  14  20
ATOM     16  N   UNL     1       2.323   0.998  -0.015  0.00  0.00    -0.299 N 
ATOM     17  C   UNL     1       1.147   1.655   0.000  0.00  0.00    +0.306 C 
ATOM     18  O   UNL     1       1.130   2.871   0.007  0.00  0.00    -0.252 OA
ATOM     19  N   UNL     1      -0.011   0.966   0.007  0.00  0.00    -0.239 N 
ATOM     20  C   UNL     1      -1.187   1.624   0.017  0.00  0.00    +0.234 C 
ATOM     21  O   UNL     1      -1.204   2.836   0.023  0.00  0.00    -0.274 OA
ATOM     22  H   UNL     1       2.338  -0.102  -0.021  0.00  0.00    +0.150 HD
ATOM     23  H   UNL     1       0.004  -0.134   0.006  0.00  0.00    +0.159 HD
BRANCH  16  25
ATOM     24  C   UNL     1       4.758   0.769  -0.039  0.00  0.00    +0.024 C 
ATOM     25  C   UNL     1       3.582   1.747  -0.023  0.00  0.00    +0.102 C 
ENDBRANCH  16  25
ENDBRANCH  14  20
ENDBRANCH   1  14
TORSDOF 6
