REMARK  Name = ZINC36319252
REMARK  3 active torsions:
REMARK  status: ('A' for Active; 'I' for Inactive)
REMARK    1  A    between atoms: C_5  and  N_8
REMARK    2  A    between atoms: C_6  and  N_7
REMARK    3  A    between atoms: N_8  and  C_9
REMARK                            x       y       z     vdW  Elec       q    Type
REMARK                         _______ _______ _______ _____ _____    ______ ____
ROOT
ATOM      1  C   UNL     1      -0.017   1.376   0.010  0.00  0.00    +0.040 A 
ATOM      2  C   UNL     1       1.188   2.081   0.002  0.00  0.00    +0.067 A 
ATOM      3  C   UNL     1       2.419   1.386  -0.014  0.00  0.00    +0.080 A 
ATOM      4  C   UNL     1       2.421  -0.008  -0.022  0.00  0.00    +0.053 A 
ATOM      5  C   UNL     1       1.222  -0.696  -0.014  0.00  0.00    +0.050 A 
ATOM      6  C   UNL     1       0.002  -0.004   0.002  0.00  0.00    +0.047 A 
ATOM      7  N   UNL     1       3.576   2.097  -0.021  0.00  0.00    -0.237 NA
ATOM      8  C   UNL     1       3.576   3.395  -0.015  0.00  0.00    +0.199 A 
ATOM      9  N   UNL     1       2.441   4.142   0.001  0.00  0.00    -0.313 N 
ATOM     10  H   UNL     1       2.503   5.111   0.005  0.00  0.00    +0.170 HD
ATOM     11  C   UNL     1       1.225   3.549   0.009  0.00  0.00    +0.259 A 
ATOM     12  O   UNL     1       0.200   4.207   0.022  0.00  0.00    -0.267 OA
ENDROOT
BRANCH   6  13
ATOM     13  N   UNL     1      -1.203  -0.717   0.010  0.00  0.00    -0.357 N 
ATOM     14  H   UNL     1      -2.048  -0.241   0.021  0.00  0.00    +0.142 HD
ATOM     15  H   UNL     1      -1.193  -1.687   0.005  0.00  0.00    +0.142 HD
ENDBRANCH   6  13
BRANCH   5  16
ATOM     16  N   UNL     1       1.225  -2.090  -0.022  0.00  0.00    -0.339 N 
ATOM     17  H   UNL     1       0.386  -2.577  -0.017  0.00  0.00    +0.146 HD
BRANCH  16  18
ATOM     18  C   UNL     1       2.495  -2.820  -0.038  0.00  0.00    +0.075 C 
ATOM     19  C   UNL     1       2.983  -2.967  -1.483  0.00  0.00    +0.050 C 
ATOM     20  C   UNL     1       4.269  -3.798  -1.497  0.00  0.00    +0.161 C 
ATOM     21  O   UNL     1       4.020  -5.069  -0.893  0.00  0.00    -0.380 OA
ATOM     22  C   UNL     1       3.606  -4.995   0.473  0.00  0.00    +0.161 C 
ATOM     23  C   UNL     1       2.294  -4.213   0.566  0.00  0.00    +0.050 C 
ENDBRANCH  16  18
ENDBRANCH   5  16
TORSDOF 3
