REMARK  Name = ZINC39677965
REMARK  10 active torsions:
REMARK  status: ('A' for Active; 'I' for Inactive)
REMARK    1  A    between atoms: C_1  and  C_2
REMARK    2  A    between atoms: C_2  and  C_3
REMARK    3  A    between atoms: C_3  and  C_5
REMARK    4  A    between atoms: C_3  and  C_6
REMARK    5  A    between atoms: C_6  and  C_7
REMARK    6  A    between atoms: C_11  and  C_20
REMARK    7  A    between atoms: N_22  and  C_23
REMARK    8  A    between atoms: C_23  and  C_24
REMARK    9  A    between atoms: N_27  and  C_31
REMARK   10  A    between atoms: C_31  and  C_32
REMARK                            x       y       z     vdW  Elec       q    Type
REMARK                         _______ _______ _______ _____ _____    ______ ____
ROOT
ATOM      1  C   UNL     1       1.778  -2.509  -2.497  0.00  0.00    +0.216 C 
ATOM      2  O   UNL     1       2.176  -1.736  -3.343  0.00  0.00    -0.276 OA
ATOM      3  N   UNL     1       1.977  -3.833  -2.648  0.00  0.00    -0.300 N 
ATOM      4  C   UNL     1       1.562  -4.924  -1.734  0.00  0.00    +0.121 C 
ATOM      5  C   UNL     1       1.094  -6.061  -2.670  0.00  0.00    +0.100 C 
ATOM      6  C   UNL     1       1.819  -5.797  -4.000  0.00  0.00    -0.004 C 
ATOM      7  C   UNL     1       2.654  -4.529  -3.768  0.00  0.00    +0.115 C 
ATOM      8  C   UNL     1       2.727  -6.973  -4.349  0.00  0.00    -0.010 C 
ATOM      9  C   UNL     1       3.392  -6.713  -5.704  0.00  0.00    -0.082 C 
ATOM     10  N   UNL     1       2.360  -6.544  -6.733  0.00  0.00    +0.379 N 
ATOM     11  C   UNL     1       1.549  -5.357  -6.439  0.00  0.00    -0.082 C 
ATOM     12  C   UNL     1       0.806  -5.559  -5.115  0.00  0.00    -0.010 C 
ATOM     13  H   UNL     1       2.800  -6.434  -7.635  0.00  0.00    -0.086 HD
ATOM     14  H   UNL     1       1.766  -7.360  -6.750  0.00  0.00    -0.086 HD
ENDROOT
BRANCH   5  15
ATOM     15  C   UNL     1       1.494  -7.401  -2.108  0.00  0.00    +0.218 C 
ATOM     16  O   UNL     1       2.500  -7.501  -1.438  0.00  0.00    -0.275 OA
ATOM     17  N   UNL     1       0.734  -8.487  -2.350  0.00  0.00    -0.313 N 
ATOM     18  H   UNL     1      -0.071  -8.406  -2.886  0.00  0.00    +0.149 HD
BRANCH  17  19
ATOM     19  C   UNL     1       1.123  -9.790  -1.804  0.00  0.00    +0.137 C 
BRANCH  19  20
ATOM     20  C   UNL     1       0.098 -10.845  -2.223  0.00  0.00    +0.149 C 
ATOM     21  C   UNL     1       0.435 -12.180  -1.554  0.00  0.00    +0.118 C 
ATOM     22  N   UNL     1      -0.507 -13.208  -2.020  0.00  0.00    -0.293 NA
ATOM     23  C   UNL     1      -0.443 -13.348  -3.482  0.00  0.00    +0.113 C 
ATOM     24  C   UNL     1      -0.771 -12.001  -4.133  0.00  0.00    +0.175 C 
ATOM     25  O   UNL     1       0.133 -11.007  -3.644  0.00  0.00    -0.372 OA
BRANCH  22  26
ATOM     26  C   UNL     1      -0.253 -14.494  -1.357  0.00  0.00    +0.119 C 
BRANCH  26  27
ATOM     27  C   UNL     1      -1.376 -15.450  -1.669  0.00  0.00    -0.033 A 
ATOM     28  C   UNL     1      -2.487 -15.502  -0.847  0.00  0.00    +0.005 A 
ATOM     29  C   UNL     1      -3.517 -16.379  -1.133  0.00  0.00    +0.000 A 
ATOM     30  C   UNL     1      -3.436 -17.203  -2.240  0.00  0.00    +0.000 A 
ATOM     31  C   UNL     1      -2.325 -17.150  -3.062  0.00  0.00    +0.000 A 
ATOM     32  C   UNL     1      -1.298 -16.270  -2.779  0.00  0.00    +0.005 A 
ENDBRANCH  26  27
ENDBRANCH  22  26
ENDBRANCH  19  20
ENDBRANCH  17  19
ENDBRANCH   5  15
BRANCH   1  33
ATOM     33  C   UNL     1       1.062  -1.988  -1.278  0.00  0.00    +0.099 C 
BRANCH  33  34
ATOM     34  C   UNL     1       0.971  -0.463  -1.353  0.00  0.00    -0.006 C 
ATOM     35  C   UNL     1       0.092  -0.062  -2.540  0.00  0.00    +0.008 C 
BRANCH  34  37
ATOM     36  C   UNL     1       0.378   1.605  -0.082  0.00  0.00    +0.004 C 
ATOM     37  C   UNL     1       0.356   0.076  -0.060  0.00  0.00    +0.000 C 
ENDBRANCH  34  37
ENDBRANCH  33  34
ENDBRANCH   1  33
TORSDOF 8
