REMARK  Name = ZINC05184389
REMARK  7 active torsions:
REMARK  status: ('A' for Active; 'I' for Inactive)
REMARK    1  A    between atoms: C_1  and  C_2
REMARK    2  A    between atoms: C_5  and  C_23
REMARK    3  A    between atoms: C_6  and  N_8
REMARK    4  A    between atoms: C_9  and  C_11
REMARK    5  A    between atoms: N_13  and  C_14
REMARK    6  A    between atoms: C_14  and  C_15
REMARK    7  A    between atoms: C_15  and  C_16
REMARK                            x       y       z     vdW  Elec       q    Type
REMARK                         _______ _______ _______ _____ _____    ______ ____
ROOT
ATOM      1  C   UNL     1       1.140   2.150  -0.012  0.00  0.00    +0.299 C 
ATOM      2  O   UNL     1       2.200   1.558  -0.032  0.00  0.00    -0.265 OA
ATOM      3  N   UNL     1      -0.017   1.460  -0.008  0.00  0.00    -0.307 N 
ATOM      4  H   UNL     1      -0.864   1.934   0.004  0.00  0.00    +0.149 HD
ENDROOT
BRANCH   1   6
ATOM      5  N   UNL     1       2.278   4.333   0.004  0.00  0.00    -0.278 N 
ATOM      6  C   UNL     1       1.120   3.644   0.008  0.00  0.00    +0.303 C 
ATOM      7  O   UNL     1       0.061   4.236   0.028  0.00  0.00    -0.265 OA
ATOM      8  H   UNL     1       3.123   3.862   0.068  0.00  0.00    +0.155 HD
BRANCH   5  14
ATOM      9  C   UNL     1      -0.009   8.446  -1.415  0.00  0.00    +0.044 C 
ATOM     10  C   UNL     1       1.164   7.748  -0.777  0.00  0.00    -0.049 A 
ATOM     11  C   UNL     1       2.226   8.487  -0.289  0.00  0.00    +0.004 A 
ATOM     12  C   UNL     1       3.304   7.850   0.297  0.00  0.00    +0.005 A 
ATOM     13  C   UNL     1       3.325   6.473   0.396  0.00  0.00    -0.029 A 
ATOM     14  C   UNL     1       2.260   5.727  -0.094  0.00  0.00    +0.037 A 
ATOM     15  C   UNL     1       1.180   6.370  -0.687  0.00  0.00    +0.027 A 
ATOM     16  C   UNL     1       4.501   5.780   1.034  0.00  0.00    +0.045 C 
ENDBRANCH   5  14
ENDBRANCH   1   6
BRANCH   3  17
ATOM     17  C   UNL     1       0.003  -0.004  -0.027  0.00  0.00    +0.109 C 
BRANCH  17  18
ATOM     18  C   UNL     1      -1.433  -0.534  -0.018  0.00  0.00    +0.054 C 
BRANCH  18  19
ATOM     19  C   UNL     1      -1.412  -2.041  -0.038  0.00  0.00    -0.046 A 
ATOM     20  C   UNL     1      -1.422  -2.716  -1.244  0.00  0.00    +0.005 A 
ATOM     21  C   UNL     1      -1.398  -4.098  -1.263  0.00  0.00    +0.020 A 
ATOM     22  C   UNL     1      -1.374  -4.805  -0.075  0.00  0.00    +0.041 A 
ATOM     23  C   UNL     1      -1.370  -4.129   1.133  0.00  0.00    +0.020 A 
ATOM     24  C   UNL     1      -1.389  -2.748   1.150  0.00  0.00    +0.005 A 
ATOM     25 CL   UNL     1      -1.350  -6.541  -0.098  0.00  0.00    -0.084 Cl
ENDBRANCH  18  19
ENDBRANCH  17  18
ENDBRANCH   3  17
TORSDOF 5
