REMARK  Name = ZINC01050120
REMARK  8 active torsions:
REMARK  status: ('A' for Active; 'I' for Inactive)
REMARK    1  A    between atoms: C_1  and  C_2
REMARK    2  A    between atoms: C_2  and  O_3
REMARK    3  A    between atoms: O_3  and  C_4
REMARK    4  A    between atoms: C_4  and  C_6
REMARK    5  A    between atoms: C_7  and  C_27
REMARK    6  A    between atoms: N_8  and  C_20
REMARK    7  A    between atoms: C_12  and  O_19
REMARK    8  A    between atoms: C_20  and  C_21
REMARK                            x       y       z     vdW  Elec       q    Type
REMARK                         _______ _______ _______ _____ _____    ______ ____
ROOT
ATOM      1  C   UNL     1       0.114   1.004   4.885  0.00  0.00    +0.087 A 
ATOM      2  C   UNL     1       1.099   1.655   5.572  0.00  0.00    +0.031 A 
ATOM      3  N   UNL     1       1.462   0.924   6.644  0.00  0.00    -0.340 N 
ATOM      4  C   UNL     1       0.737  -0.245   6.699  0.00  0.00    +0.058 A 
ATOM      5  C   UNL     1      -0.136  -0.255   5.610  0.00  0.00    +0.018 A 
ATOM      6  C   UNL     1      -1.011  -1.332   5.402  0.00  0.00    +0.056 A 
ATOM      7  C   UNL     1      -1.027  -2.390   6.257  0.00  0.00    +0.125 A 
ATOM      8  C   UNL     1      -0.157  -2.416   7.370  0.00  0.00    +0.026 A 
ATOM      9  C   UNL     1       0.732  -1.338   7.595  0.00  0.00    +0.010 A 
ATOM     10  C   UNL     1       1.592  -1.372   8.702  0.00  0.00    +0.011 A 
ATOM     11  C   UNL     1       1.562  -2.440   9.548  0.00  0.00    +0.001 A 
ATOM     12  C   UNL     1       0.688  -3.501   9.328  0.00  0.00    +0.001 A 
ATOM     13  C   UNL     1      -0.160  -3.500   8.262  0.00  0.00    +0.012 A 
ATOM     14  C   UNL     1       1.686   2.990   5.193  0.00  0.00    +0.064 C 
ENDROOT
BRANCH   1  15
ATOM     15  C   UNL     1      -0.557   1.464   3.663  0.00  0.00    +0.341 C 
ATOM     16  O   UNL     1      -1.567   2.136   3.740  0.00  0.00    -0.245 OA
BRANCH  15  17
ATOM     17  O   UNL     1      -0.053   1.140   2.455  0.00  0.00    -0.461 OA
BRANCH  17  19
ATOM     18  C   UNL     1      -0.054   1.165   0.020  0.00  0.00    +0.048 C 
ATOM     19  C   UNL     1      -0.769   1.629   1.290  0.00  0.00    +0.229 C 
ENDBRANCH  17  19
ENDBRANCH  15  17
ENDBRANCH   1  15
BRANCH   7  20
ATOM     20  O   UNL     1      -1.881  -3.425   6.040  0.00  0.00    -0.506 OA
ATOM     21  H   UNL     1      -1.514  -4.129   5.488  0.00  0.00    +0.292 HD
ENDBRANCH   7  20
BRANCH   3  22
ATOM     22  C   UNL     1       2.490   1.315   7.612  0.00  0.00    +0.153 C 
BRANCH  22  23
ATOM     23  C   UNL     1       3.821   0.662   7.233  0.00  0.00    +0.138 C 
ATOM     24  C   UNL     1       4.881   0.970   8.313  0.00  0.00    +0.035 C 
ATOM     25  C   UNL     1       6.158   1.210   7.460  0.00  0.00    +0.031 C 
ATOM     26  C   UNL     1       5.550   1.870   6.197  0.00  0.00    +0.160 C 
ATOM     27  O   UNL     1       4.293   1.204   5.994  0.00  0.00    -0.375 OA
ENDBRANCH  22  23
ENDBRANCH   3  22
TORSDOF 6
