REMARK  Name = ZINC63063843
REMARK  4 active torsions:
REMARK  status: ('A' for Active; 'I' for Inactive)
REMARK    1  A    between atoms: C_1  and  C_2
REMARK    2  A    between atoms: C_6  and  C_9
REMARK    3  A    between atoms: C_7  and  O_8
REMARK    4  A    between atoms: C_17  and  O_21
REMARK                            x       y       z     vdW  Elec       q    Type
REMARK                         _______ _______ _______ _____ _____    ______ ____
ROOT
ATOM      1  C   UNL     1      -0.483  -3.019   2.492  0.00  0.00    +0.254 C 
ATOM      2  O   UNL     1       0.077  -2.306   1.682  0.00  0.00    -0.270 OA
ATOM      3  N   UNL     1      -0.359  -4.359   2.410  0.00  0.00    -0.264 N 
ATOM      4  C   UNL     1      -0.621  -5.207   3.581  0.00  0.00    +0.114 C 
ATOM      5  C   UNL     1       0.502  -6.250   3.664  0.00  0.00    +0.024 C 
ATOM      6  C   UNL     1       0.444  -7.137   2.421  0.00  0.00    +0.038 C 
ATOM      7  C   UNL     1       0.415  -6.295   1.172  0.00  0.00    -0.022 A 
ATOM      8  C   UNL     1       0.016  -4.968   1.203  0.00  0.00    +0.081 A 
ATOM      9  C   UNL     1      -0.011  -4.219   0.027  0.00  0.00    +0.138 A 
ATOM     10  C   UNL     1       0.359  -4.802  -1.173  0.00  0.00    +0.047 A 
ATOM     11  C   UNL     1       0.754  -6.127  -1.201  0.00  0.00    +0.004 A 
ATOM     12  C   UNL     1       0.790  -6.869  -0.032  0.00  0.00    +0.006 A 
ENDROOT
BRANCH   1  18
ATOM     13  C   UNL     1      -1.285   0.669   5.771  0.00  0.00    +0.047 C 
ATOM     14  C   UNL     1      -1.690  -0.643   5.148  0.00  0.00    -0.008 A 
ATOM     15  C   UNL     1      -2.830  -1.290   5.582  0.00  0.00    +0.007 A 
ATOM     16  C   UNL     1      -3.210  -2.495   5.016  0.00  0.00    +0.001 A 
ATOM     17  C   UNL     1      -2.453  -3.062   4.014  0.00  0.00    +0.017 A 
ATOM     18  C   UNL     1      -1.298  -2.418   3.565  0.00  0.00    +0.079 A 
ATOM     19  C   UNL     1      -0.919  -1.196   4.137  0.00  0.00    +0.132 A 
BRANCH  19  20
ATOM     20  O   UNL     1       0.198  -0.559   3.706  0.00  0.00    -0.506 OA
ATOM     21  H   UNL     1       1.002  -0.808   4.183  0.00  0.00    +0.292 HD
ENDBRANCH  19  20
ENDBRANCH   1  18
BRANCH   9  22
ATOM     22  O   UNL     1      -0.399  -2.916   0.059  0.00  0.00    -0.505 OA
ATOM     23  H   UNL     1       0.324  -2.287  -0.073  0.00  0.00    +0.292 HD
ENDBRANCH   9  22
TORSDOF 3
