REMARK  Name = ZINC12401694
REMARK  9 active torsions:
REMARK  status: ('A' for Active; 'I' for Inactive)
REMARK    1  A    between atoms: C_1  and  C_2
REMARK    2  A    between atoms: C_2  and  C_3
REMARK    3  A    between atoms: C_2  and  S_4
REMARK    4  A    between atoms: S_4  and  C_5
REMARK    5  A    between atoms: C_13  and  C_20
REMARK    6  A    between atoms: C_15  and  C_18
REMARK    7  A    between atoms: C_16  and  N_17
REMARK    8  A    between atoms: C_28  and  C_30
REMARK    9  A    between atoms: C_28  and  C_31
REMARK                            x       y       z     vdW  Elec       q    Type
REMARK                         _______ _______ _______ _____ _____    ______ ____
ROOT
ATOM      1  C   UNL     1      -6.550   6.414   0.186  0.00  0.00    +0.160 A 
ATOM      2  N   UNL     1      -7.278   5.314   0.062  0.00  0.00    -0.133 NA
ATOM      3  N   UNL     1      -6.752   4.168   0.016  0.00  0.00    -0.124 NA
ATOM      4  C   UNL     1      -5.443   3.994   0.090  0.00  0.00    +0.194 A 
ATOM      5  S   UNL     1      -4.911   5.696   0.252  0.00  0.00    -0.024 S 
ATOM      6  N   UNL     1      -4.693   2.821   0.057  0.00  0.00    -0.237 N 
ATOM      7  C   UNL     1      -4.321   2.284  -1.148  0.00  0.00    +0.027 C 
ATOM      8  C   UNL     1      -3.293   1.412  -1.225  0.00  0.00    +0.025 C 
ATOM      9  C   UNL     1      -2.527   1.006   0.008  0.00  0.00    +0.098 C 
ATOM     10  C   UNL     1      -3.298   1.327   1.255  0.00  0.00    +0.077 C 
ATOM     11  C   UNL     1      -4.330   2.208   1.236  0.00  0.00    +0.108 C 
ATOM     12  C   UNL     1      -2.905   0.857  -2.457  0.00  0.00    +0.162 C 
ATOM     13  O   UNL     1      -1.986   0.062  -2.490  0.00  0.00    -0.292 OA
ATOM     14  C   UNL     1      -3.607   1.228  -3.735  0.00  0.00    +0.086 C 
ATOM     15  C   UNL     1      -4.168   2.648  -3.600  0.00  0.00    -0.023 C 
ATOM     16  C   UNL     1      -5.091   2.690  -2.381  0.00  0.00    +0.058 C 
ATOM     17  C   UNL     1      -3.019   3.640  -3.410  0.00  0.00    +0.011 C 
ATOM     18  C   UNL     1      -4.957   3.010  -4.860  0.00  0.00    +0.011 C 
ENDROOT
BRANCH   9  19
ATOM     19  C   UNL     1      -1.213   1.743   0.038  0.00  0.00    -0.028 A 
ATOM     20  C   UNL     1      -0.018   1.048   0.019  0.00  0.00    +0.012 A 
ATOM     21  C   UNL     1       1.146   1.741   0.040  0.00  0.00    +0.045 A 
ATOM     22  S   UNL     1       0.570   3.429   0.097  0.00  0.00    -0.105 S 
ATOM     23  C   UNL     1      -1.184   3.097   0.088  0.00  0.00    +0.049 A 
ENDBRANCH   9  19
BRANCH  11  24
ATOM     24  N   UNL     1      -5.014   2.490   2.394  0.00  0.00    -0.345 N 
ATOM     25  H   UNL     1      -5.804   3.052   2.367  0.00  0.00    +0.144 HD
ATOM     26  H   UNL     1      -4.707   2.126   3.240  0.00  0.00    +0.144 HD
ENDBRANCH  11  24
BRANCH  10  27
ATOM     27  C   UNL     1      -2.940   0.692   2.487  0.00  0.00    +0.099 C 
ATOM     28  N   UNL     1      -2.656   0.188   3.465  0.00  0.00    -0.191 NA
ENDBRANCH  10  27
BRANCH   1  29
ATOM     29  S   UNL     1      -7.051   8.101   0.272  0.00  0.00    -0.094 S 
BRANCH  29  31
ATOM     30  C   UNL     1      -9.427   7.309   1.373  0.00  0.00    +0.019 C 
ATOM     31  C   UNL     1      -8.860   8.028   0.147  0.00  0.00    +0.047 C 
ATOM     32  C   UNL     1      -9.424   9.449   0.083  0.00  0.00    +0.019 C 
ENDBRANCH  29  31
ENDBRANCH   1  29
TORSDOF 5
