REMARK  Name = ZINC66678887
REMARK  4 active torsions:
REMARK  status: ('A' for Active; 'I' for Inactive)
REMARK    1  A    between atoms: C_3  and  C_18
REMARK    2  A    between atoms: C_5  and  N_7
REMARK    3  A    between atoms: N_10  and  C_11
REMARK    4  A    between atoms: C_11  and  C_12
REMARK                            x       y       z     vdW  Elec       q    Type
REMARK                         _______ _______ _______ _____ _____    ______ ____
ROOT
ATOM      1  C   UNL     1       0.005   1.380   0.172  0.00  0.00    +0.002 A 
ATOM      2  C   UNL     1       1.176   2.088  -0.014  0.00  0.00    +0.010 A 
ATOM      3  C   UNL     1       2.378   1.410  -0.205  0.00  0.00    +0.004 A 
ATOM      4  C   UNL     1       2.395   0.018  -0.207  0.00  0.00    +0.033 A 
ATOM      5  C   UNL     1       1.215  -0.686  -0.019  0.00  0.00    +0.035 A 
ATOM      6  C   UNL     1       0.021  -0.002   0.170  0.00  0.00    +0.023 A 
ENDROOT
BRANCH   3   7
ATOM      7  C   UNL     1       3.636   2.170  -0.406  0.00  0.00    +0.091 A 
ATOM      8  C   UNL     1       3.615   3.584  -0.398  0.00  0.00    +0.035 A 
ATOM      9  C   UNL     1       4.791   4.248  -0.585  0.00  0.00    +0.073 A 
ATOM     10  C   UNL     1       5.961   3.481  -0.777  0.00  0.00    +0.265 A 
ATOM     11  O   UNL     1       7.036   4.032  -0.949  0.00  0.00    -0.266 OA
ATOM     12  N   UNL     1       5.881   2.137  -0.769  0.00  0.00    -0.243 N 
ATOM     13  H   UNL     1       6.688   1.615  -0.901  0.00  0.00    +0.192 HD
ATOM     14  N   UNL     1       4.766   1.527  -0.586  0.00  0.00    -0.171 NA
ENDBRANCH   3   7
BRANCH   5  15
ATOM     15  N   UNL     1       1.228  -2.086  -0.021  0.00  0.00    -0.269 N 
ATOM     16  C   UNL     1       2.297  -2.751   0.458  0.00  0.00    +0.304 C 
ATOM     17  O   UNL     1       3.210  -2.140   0.980  0.00  0.00    -0.252 OA
ATOM     18  N   UNL     1       2.356  -4.094   0.359  0.00  0.00    -0.295 N 
ATOM     19  H   UNL     1       0.466  -2.577  -0.367  0.00  0.00    +0.156 HD
ATOM     20  H   UNL     1       1.628  -4.582  -0.057  0.00  0.00    +0.151 HD
BRANCH  18  21
ATOM     21  C   UNL     1       3.518  -4.817   0.880  0.00  0.00    +0.148 C 
BRANCH  21  22
ATOM     22  C   UNL     1       3.337  -6.295   0.646  0.00  0.00    +0.008 A 
ATOM     23  C   UNL     1       3.714  -7.042  -0.419  0.00  0.00    +0.014 A 
ATOM     24  C   UNL     1       3.441  -8.398  -0.417  0.00  0.00    +0.028 A 
ATOM     25  C   UNL     1       2.803  -8.938   0.651  0.00  0.00    +0.078 A 
ATOM     26  S   UNL     1       2.577  -7.515   1.705  0.00  0.00    -0.080 S 
ATOM     27 CL   UNL     1       2.335 -10.587   0.926  0.00  0.00    -0.076 Cl
ENDBRANCH  21  22
ENDBRANCH  18  21
ENDBRANCH   5  15
TORSDOF 4
