REMARK  Name = ZINC33916776
REMARK  6 active torsions:
REMARK  status: ('A' for Active; 'I' for Inactive)
REMARK    1  A    between atoms: C_4  and  N_7
REMARK    2  A    between atoms: C_12  and  C_24
REMARK    3  A    between atoms: N_14  and  C_20
REMARK    4  A    between atoms: C_20  and  C_21
REMARK    5  A    between atoms: C_27  and  O_30
REMARK    6  A    between atoms: O_30  and  C_31
REMARK                            x       y       z     vdW  Elec       q    Type
REMARK                         _______ _______ _______ _____ _____    ______ ____
ROOT
ATOM      1  N   UNL     1       5.896   0.074   1.000  0.00  0.00    -0.208 N 
ATOM      2  C   UNL     1       5.634  -1.230   0.664  0.00  0.00    +0.234 C 
ATOM      3  O   UNL     1       4.551  -1.744   0.484  0.00  0.00    -0.274 OA
ATOM      4  C   UNL     1       6.932  -1.857   0.572  0.00  0.00    +0.139 C 
ATOM      5  C   UNL     1       7.556  -3.037  -0.050  0.00  0.00    +0.130 C 
ATOM      6  N   UNL     1       9.004  -2.641  -0.113  0.00  0.00    -0.170 NA
ATOM      7  O   UNL     1       9.090  -1.235   0.382  0.00  0.00    -0.282 OA
ATOM      8  C   UNL     1       7.818  -0.680   0.000  0.00  0.00    +0.242 C 
ATOM      9  C   UNL     1       7.212   0.404   0.850  0.00  0.00    +0.258 C 
ATOM     10  O   UNL     1       7.779   1.372   1.310  0.00  0.00    -0.272 OA
ENDROOT
BRANCH   1  14
ATOM     11  C   UNL     1       2.982   2.748   2.318  0.00  0.00    +0.000 A 
ATOM     12  C   UNL     1       4.295   3.163   2.196  0.00  0.00    +0.002 A 
ATOM     13  C   UNL     1       5.263   2.280   1.759  0.00  0.00    +0.024 A 
ATOM     14  C   UNL     1       4.916   0.973   1.444  0.00  0.00    +0.044 A 
ATOM     15  C   UNL     1       3.597   0.558   1.569  0.00  0.00    +0.024 A 
ATOM     16  C   UNL     1       2.634   1.447   2.005  0.00  0.00    +0.002 A 
ENDBRANCH   1  14
BRANCH   5  17
ATOM     17  C   UNL     1       7.367  -4.259   0.810  0.00  0.00    -0.027 A 
ATOM     18  C   UNL     1       7.647  -4.201   2.163  0.00  0.00    +0.009 A 
ATOM     19  C   UNL     1       7.475  -5.320   2.954  0.00  0.00    +0.046 A 
ATOM     20  C   UNL     1       7.020  -6.503   2.391  0.00  0.00    +0.128 A 
ATOM     21  C   UNL     1       6.740  -6.559   1.033  0.00  0.00    +0.046 A 
ATOM     22  C   UNL     1       6.909  -5.436   0.247  0.00  0.00    +0.009 A 
BRANCH  20  23
ATOM     23  O   UNL     1       6.850  -7.606   3.167  0.00  0.00    -0.456 OA
BRANCH  23  24
ATOM     24  C   UNL     1       7.053  -7.482   4.505  0.00  0.00    +0.128 A 
ATOM     25  C   UNL     1       6.093  -6.875   5.301  0.00  0.00    +0.046 A 
ATOM     26  C   UNL     1       6.302  -6.750   6.660  0.00  0.00    +0.004 A 
ATOM     27  C   UNL     1       7.469  -7.229   7.228  0.00  0.00    +0.000 A 
ATOM     28  C   UNL     1       8.428  -7.833   6.437  0.00  0.00    +0.004 A 
ATOM     29  C   UNL     1       8.220  -7.967   5.078  0.00  0.00    +0.046 A 
ENDBRANCH  23  24
ENDBRANCH  20  23
ENDBRANCH   5  17
BRANCH   6  30
ATOM     30  C   UNL     1       9.831  -3.538   0.705  0.00  0.00    +0.210 C 
BRANCH  30  31
ATOM     31  C   UNL     1      11.285  -3.323   0.373  0.00  0.00    +0.227 C 
ATOM     32  O   UNL     1      11.602  -2.503  -0.463  0.00  0.00    -0.275 OA
ATOM     33  N   UNL     1      12.234  -4.042   1.005  0.00  0.00    -0.328 N 
ATOM     34  H   UNL     1      11.981  -4.698   1.673  0.00  0.00    +0.145 HD
ATOM     35  H   UNL     1      13.170  -3.904   0.791  0.00  0.00    +0.145 HD
ENDBRANCH  30  31
ENDBRANCH   6  30
TORSDOF 6
