REMARK  Name = ZINC36609061
REMARK  11 active torsions:
REMARK  status: ('A' for Active; 'I' for Inactive)
REMARK    1  A    between atoms: C_1  and  C_2
REMARK    2  A    between atoms: C_2  and  C_3
REMARK    3  A    between atoms: C_2  and  C_4
REMARK    4  A    between atoms: C_2  and  N_5
REMARK    5  A    between atoms: C_6  and  C_8
REMARK    6  A    between atoms: C_8  and  C_10
REMARK    7  A    between atoms: C_8  and  N_19
REMARK    8  A    between atoms: C_11  and  O_18
REMARK    9  A    between atoms: C_13  and  O_17
REMARK   10  A    between atoms: C_15  and  O_16
REMARK   11  A    between atoms: N_19  and  C_22
REMARK                            x       y       z     vdW  Elec       q    Type
REMARK                         _______ _______ _______ _____ _____    ______ ____
ROOT
ATOM      1  C   UNL     1       2.735  -0.566  -2.752  0.00  0.00    +0.204 C 
ENDROOT
BRANCH   1   2
ATOM      2  C   UNL     1       2.722  -2.072  -2.800  0.00  0.00    +0.065 A 
ATOM      3  C   UNL     1       3.608  -2.798  -2.019  0.00  0.00    +0.129 A 
ATOM      4  C   UNL     1       3.596  -4.184  -2.065  0.00  0.00    +0.091 A 
ATOM      5  C   UNL     1       2.698  -4.844  -2.890  0.00  0.00    +0.124 A 
ATOM      6  C   UNL     1       1.811  -4.117  -3.670  0.00  0.00    +0.091 A 
ATOM      7  C   UNL     1       1.820  -2.731  -3.622  0.00  0.00    +0.129 A 
BRANCH   7   8
ATOM      8  O   UNL     1       0.948  -2.019  -4.383  0.00  0.00    -0.506 OA
ATOM      9  H   UNL     1       1.284  -1.797  -5.262  0.00  0.00    +0.292 HD
ENDBRANCH   7   8
BRANCH   5  10
ATOM     10  O   UNL     1       2.687  -6.202  -2.935  0.00  0.00    -0.507 OA
ATOM     11  H   UNL     1       2.093  -6.612  -2.291  0.00  0.00    +0.292 HD
ENDBRANCH   5  10
BRANCH   3  12
ATOM     12  O   UNL     1       4.488  -2.152  -1.210  0.00  0.00    -0.506 OA
ATOM     13  H   UNL     1       4.184  -2.052  -0.298  0.00  0.00    +0.292 HD
ENDBRANCH   3  12
ENDBRANCH   1   2
BRANCH   1  15
ATOM     14  N   UNL     1       1.203  -0.439  -0.813  0.00  0.00    -0.309 N 
ATOM     15  C   UNL     1       2.390  -0.105  -1.359  0.00  0.00    +0.239 C 
ATOM     16  O   UNL     1       3.180   0.565  -0.728  0.00  0.00    -0.273 OA
ATOM     17  H   UNL     1       0.571  -0.975  -1.317  0.00  0.00    +0.149 HD
BRANCH  14  19
ATOM     18  C   UNL     1       0.881   1.538   0.591  0.00  0.00    +0.031 C 
ATOM     19  C   UNL     1       0.868   0.009   0.541  0.00  0.00    +0.026 C 
ATOM     20  C   UNL     1       1.897  -0.542   1.530  0.00  0.00    +0.031 C 
ATOM     21  C   UNL     1      -0.525  -0.502   0.917  0.00  0.00    +0.031 C 
ENDBRANCH  14  19
ENDBRANCH   1  15
BRANCH   1  22
ATOM     22  N   UNL     1       4.068  -0.077  -3.111  0.00  0.00    -0.258 N 
ATOM     23  C   UNL     1       4.323   1.247  -3.111  0.00  0.00    +0.333 C 
ATOM     24  O   UNL     1       5.447   1.648  -3.325  0.00  0.00    -0.279 OA
BRANCH  22  25
ATOM     25  C   UNL     1       5.077  -0.983  -3.455  0.00  0.00    +0.037 A 
ATOM     26  C   UNL     1       4.922  -1.810  -4.560  0.00  0.00    +0.023 A 
ATOM     27  C   UNL     1       5.919  -2.704  -4.896  0.00  0.00    +0.002 A 
ATOM     28  C   UNL     1       7.071  -2.777  -4.134  0.00  0.00    +0.000 A 
ATOM     29  C   UNL     1       7.228  -1.956  -3.033  0.00  0.00    +0.002 A 
ATOM     30  C   UNL     1       6.237  -1.055  -2.695  0.00  0.00    +0.023 A 
ENDBRANCH  22  25
ENDBRANCH   1  22
TORSDOF 8
