REMARK  Name = ZINC05343751
REMARK  5 active torsions:
REMARK  status: ('A' for Active; 'I' for Inactive)
REMARK    1  A    between atoms: C_1  and  C_2
REMARK    2  A    between atoms: C_2  and  C_3
REMARK    3  A    between atoms: C_3  and  O_4
REMARK    4  A    between atoms: O_4  and  C_5
REMARK    5  A    between atoms: C_8  and  C_11
REMARK                            x       y       z     vdW  Elec       q    Type
REMARK                         _______ _______ _______ _____ _____    ______ ____
ROOT
ATOM      1  C   UNL     1      -6.397  -4.588   0.038  0.00  0.00    +0.093 C 
ATOM      2  C   UNL     1      -6.519  -5.449  -1.193  0.00  0.00    +0.069 A 
ATOM      3  C   UNL     1      -6.739  -4.823  -2.442  0.00  0.00    +0.280 A 
ATOM      4  O   UNL     1      -6.829  -3.606  -2.510  0.00  0.00    -0.265 OA
ATOM      5  N   UNL     1      -6.847  -5.568  -3.552  0.00  0.00    -0.177 NA
ATOM      6  C   UNL     1      -6.751  -6.880  -3.496  0.00  0.00    +0.195 A 
ATOM      7  N   UNL     1      -6.543  -7.520  -2.315  0.00  0.00    -0.316 N 
ATOM      8  C   UNL     1      -6.428  -6.804  -1.148  0.00  0.00    +0.112 A 
ATOM      9  N   UNL     1      -6.229  -7.491   0.034  0.00  0.00    -0.300 N 
ATOM     10  C   UNL     1      -6.413  -6.820   1.221  0.00  0.00    +0.048 C 
ATOM     11  C   UNL     1      -6.502  -5.451   1.268  0.00  0.00    +0.034 C 
ATOM     12  C   UNL     1      -6.695  -5.034   2.603  0.00  0.00    +0.193 C 
ATOM     13  O   UNL     1      -6.816  -3.887   2.988  0.00  0.00    -0.287 OA
ATOM     14  C   UNL     1      -6.725  -6.247   3.449  0.00  0.00    +0.031 A 
ATOM     15  C   UNL     1      -6.549  -7.354   2.580  0.00  0.00    +0.007 A 
ATOM     16  C   UNL     1      -6.529  -8.649   3.072  0.00  0.00    +0.010 A 
ATOM     17  C   UNL     1      -6.692  -8.806   4.452  0.00  0.00    +0.001 A 
ATOM     18  C   UNL     1      -6.865  -7.731   5.291  0.00  0.00    +0.001 A 
ATOM     19  C   UNL     1      -6.885  -6.417   4.810  0.00  0.00    +0.012 A 
ATOM     20  N   UNL     1      -6.865  -7.612  -4.648  0.00  0.00    -0.329 N 
ATOM     21  H   UNL     1      -5.965  -8.424   0.027  0.00  0.00    +0.154 HD
ATOM     22  H   UNL     1      -7.014  -7.164  -5.495  0.00  0.00    +0.145 HD
ATOM     23  H   UNL     1      -6.796  -8.579  -4.616  0.00  0.00    +0.145 HD
ATOM     24  H   UNL     1      -6.474  -8.487  -2.296  0.00  0.00    +0.170 HD
ENDROOT
BRANCH   1  28
ATOM     25  C   UNL     1      -2.616  -2.596   0.013  0.00  0.00    +0.121 A 
ATOM     26  C   UNL     1      -3.791  -1.857   0.022  0.00  0.00    +0.046 A 
ATOM     27  C   UNL     1      -5.012  -2.504   0.030  0.00  0.00    +0.008 A 
ATOM     28  C   UNL     1      -5.064  -3.885   0.029  0.00  0.00    -0.035 A 
ATOM     29  C   UNL     1      -3.895  -4.624   0.020  0.00  0.00    +0.008 A 
ATOM     30  C   UNL     1      -2.671  -3.982   0.006  0.00  0.00    +0.046 A 
BRANCH  25  31
ATOM     31  O   UNL     1      -1.414  -1.962   0.005  0.00  0.00    -0.492 OA
BRANCH  31  32
ATOM     32  C   UNL     1      -1.433  -0.534   0.013  0.00  0.00    +0.229 C 
BRANCH  32  34
ATOM     33  C   UNL     1      -0.019   1.526   0.010  0.00  0.00    +0.007 C 
ATOM     34  C   UNL     1       0.002  -0.004   0.002  0.00  0.00    +0.038 C 
ENDBRANCH  32  34
ENDBRANCH  31  32
ENDBRANCH  25  31
ENDBRANCH   1  28
TORSDOF 4
