REMARK  Name = ZINC06476090
REMARK  6 active torsions:
REMARK  status: ('A' for Active; 'I' for Inactive)
REMARK    1  A    between atoms: C_4  and  N_7
REMARK    2  A    between atoms: C_9  and  C_17
REMARK    3  A    between atoms: C_10  and  C_12
REMARK    4  A    between atoms: N_18  and  N_19
REMARK    5  A    between atoms: C_20  and  C_22
REMARK    6  A    between atoms: C_27  and  O_28
REMARK                            x       y       z     vdW  Elec       q    Type
REMARK                         _______ _______ _______ _____ _____    ______ ____
ROOT
ATOM      1  N   UNL     1       1.258   5.678  -0.344  0.00  0.00    -0.239 N 
ATOM      2  C   UNL     1       2.361   5.533   0.418  0.00  0.00    +0.124 A 
ATOM      3  C   UNL     1       2.525   4.200   0.676  0.00  0.00    +0.041 A 
ATOM      4  C   UNL     1       1.421   3.504   0.007  0.00  0.00    +0.108 A 
ATOM      5  N   UNL     1       0.694   4.423  -0.594  0.00  0.00    -0.165 NA
ENDROOT
BRANCH   1   9
ATOM      6  C   UNL     1      -0.232   9.307  -1.752  0.00  0.00    +0.000 A 
ATOM      7  C   UNL     1      -0.883   8.127  -2.062  0.00  0.00    +0.002 A 
ATOM      8  C   UNL     1      -0.392   6.923  -1.597  0.00  0.00    +0.028 A 
ATOM      9  C   UNL     1       0.757   6.898  -0.818  0.00  0.00    +0.065 A 
ATOM     10  C   UNL     1       1.405   8.085  -0.503  0.00  0.00    +0.028 A 
ATOM     11  C   UNL     1       0.912   9.285  -0.976  0.00  0.00    +0.002 A 
ENDBRANCH   1   9
BRANCH   4  12
ATOM     12  C   UNL     1       1.176   2.048   0.002  0.00  0.00    +0.040 A 
ATOM     13  C   UNL     1      -0.017   1.373   0.010  0.00  0.00    +0.018 A 
ATOM     14  C   UNL     1       0.002  -0.004   0.002  0.00  0.00    +0.008 A 
ATOM     15  C   UNL     1       1.196  -0.649  -0.013  0.00  0.00    +0.046 A 
ATOM     16  S   UNL     1       2.356   0.708  -0.017  0.00  0.00    -0.095 S 
ENDBRANCH   4  12
BRANCH   3  17
ATOM     17  C   UNL     1       3.601   3.584   1.472  0.00  0.00    +0.142 C 
ATOM     18  N   UNL     1       3.632   2.296   1.635  0.00  0.00    -0.187 NA
BRANCH  18  19
ATOM     19  N   UNL     1       4.655   1.710   2.392  0.00  0.00    -0.203 N 
ATOM     20  C   UNL     1       4.687   0.373   2.561  0.00  0.00    +0.267 C 
ATOM     21  O   UNL     1       3.827  -0.324   2.057  0.00  0.00    -0.268 OA
ATOM     22  H   UNL     1       5.340   2.266   2.794  0.00  0.00    +0.178 HD
BRANCH  20  23
ATOM     23  C   UNL     1       5.764  -0.244   3.358  0.00  0.00    +0.080 A 
ATOM     24  C   UNL     1       6.756   0.553   3.934  0.00  0.00    +0.017 A 
ATOM     25  C   UNL     1       7.757  -0.029   4.681  0.00  0.00    +0.001 A 
ATOM     26  C   UNL     1       7.790  -1.403   4.856  0.00  0.00    +0.004 A 
ATOM     27  C   UNL     1       6.819  -2.203   4.287  0.00  0.00    +0.046 A 
ATOM     28  C   UNL     1       5.801  -1.633   3.537  0.00  0.00    +0.129 A 
BRANCH  28  29
ATOM     29  O   UNL     1       4.846  -2.418   2.978  0.00  0.00    -0.506 OA
ATOM     30  H   UNL     1       5.062  -2.726   2.087  0.00  0.00    +0.292 HD
ENDBRANCH  28  29
ENDBRANCH  20  23
ENDBRANCH  18  19
ENDBRANCH   3  17
TORSDOF 6
