REMARK  Name = ZINC19503893
REMARK  4 active torsions:
REMARK  status: ('A' for Active; 'I' for Inactive)
REMARK    1  A    between atoms: C_6  and  C_10
REMARK    2  A    between atoms: C_10  and  O_11
REMARK    3  A    between atoms: O_11  and  C_12
REMARK    4  A    between atoms: C_15  and  N_19
REMARK                            x       y       z     vdW  Elec       q    Type
REMARK                         _______ _______ _______ _____ _____    ______ ____
ROOT
ATOM      1  O   UNL     1       3.714   6.360  -0.001  0.00  0.00    -0.484 OA
ENDROOT
BRANCH   1   2
ATOM      2  C   UNL     1       4.522   7.454  -0.003  0.00  0.00    +0.139 A 
ATOM      3  C   UNL     1       3.967   8.725   0.008  0.00  0.00    +0.049 A 
ATOM      4  C   UNL     1       4.787   9.837   0.006  0.00  0.00    +0.026 A 
ATOM      5  C   UNL     1       6.167   9.682  -0.008  0.00  0.00    +0.026 A 
ATOM      6  C   UNL     1       6.722   8.410  -0.019  0.00  0.00    +0.046 A 
ATOM      7  C   UNL     1       5.901   7.298  -0.011  0.00  0.00    +0.084 A 
ATOM      8 CL   UNL     1       6.595   5.707  -0.017  0.00  0.00    -0.080 Cl
BRANCH   5   9
ATOM      9  N   UNL     1       6.997  10.809  -0.009  0.00  0.00    -0.358 N 
ATOM     10  H   UNL     1       8.090  10.686  -0.020  0.00  0.00    +0.142 HD
ATOM     11  H   UNL     1       6.557  11.817   0.000  0.00  0.00    +0.142 HD
ENDBRANCH   5   9
ENDBRANCH   1   2
BRANCH   1  12
ATOM     12  C   UNL     1       2.304   6.594   0.014  0.00  0.00    +0.286 C 
BRANCH  12  18
ATOM     13  C   UNL     1      -1.240   1.758   0.018  0.00  0.00    +0.005 A 
ATOM     14  C   UNL     1      -0.013   1.076   0.008  0.00  0.00    +0.018 A 
ATOM     15  C   UNL     1       1.149   1.763   0.001  0.00  0.00    +0.092 A 
ATOM     16  N   UNL     1       1.148   3.128   0.007  0.00  0.00    -0.306 N 
ATOM     17  C   UNL     1       2.156   4.054   0.002  0.00  0.00    +0.119 A 
ATOM     18  C   UNL     1       1.576   5.274   0.014  0.00  0.00    +0.097 A 
ATOM     19  N   UNL     1       0.250   5.117   0.026  0.00  0.00    -0.229 NA
ATOM     20  C   UNL     1      -0.034   3.822   0.022  0.00  0.00    +0.138 A 
ATOM     21  C   UNL     1      -1.255   3.119   0.031  0.00  0.00    +0.047 A 
ENDBRANCH  12  18
ENDBRANCH   1  12
TORSDOF 4
