REMARK  Name = ZINC13331197
REMARK  6 active torsions:
REMARK  status: ('A' for Active; 'I' for Inactive)
REMARK    1  A    between atoms: C_1  and  C_2
REMARK    2  A    between atoms: C_2  and  C_3
REMARK    3  A    between atoms: C_2  and  C_4
REMARK    4  A    between atoms: C_2  and  C_5
REMARK    5  A    between atoms: C_8  and  N_11
REMARK    6  A    between atoms: C_12  and  C_14
REMARK                            x       y       z     vdW  Elec       q    Type
REMARK                         _______ _______ _______ _____ _____    ______ ____
ROOT
ATOM      1  C   UNL     1      -1.490   3.616   0.036  0.00  0.00    -0.005 C 
ATOM      2  C   UNL     1      -0.773   3.123  -1.223  0.00  0.00    +0.006 C 
ATOM      3  C   UNL     1      -0.753   1.593  -1.232  0.00  0.00    +0.022 C 
ATOM      4  C   UNL     1      -0.013   1.086   0.008  0.00  0.00    +0.073 C 
ATOM      5  C   UNL     1      -0.729   1.579   1.267  0.00  0.00    +0.022 C 
ATOM      6  C   UNL     1      -0.750   3.109   1.275  0.00  0.00    +0.006 C 
ENDROOT
BRANCH   1   8
ATOM      7  C   UNL     1      -2.250   5.653  -1.195  0.00  0.00    +0.011 C 
ATOM      8  C   UNL     1      -1.510   5.146   0.044  0.00  0.00    -0.035 C 
ATOM      9  C   UNL     1      -2.227   5.639   1.303  0.00  0.00    +0.011 C 
ATOM     10  C   UNL     1      -0.075   5.675   0.033  0.00  0.00    +0.011 C 
ENDBRANCH   1   8
BRANCH   4  11
ATOM     11  N   UNL     1       1.362   1.593  -0.002  0.00  0.00    -0.310 N 
ATOM     12  C   UNL     1       2.331   0.926   0.654  0.00  0.00    +0.242 C 
ATOM     13  O   UNL     1       2.066  -0.095   1.254  0.00  0.00    -0.273 OA
ATOM     14  H   UNL     1       1.602   2.518  -0.546  0.00  0.00    +0.149 HD
BRANCH  12  15
ATOM     15  C   UNL     1       3.745   1.447   0.644  0.00  0.00    +0.204 C 
ATOM     16  C   UNL     1       4.314   1.390  -0.791  0.00  0.00    +0.043 C 
ATOM     17  C   UNL     1       5.780   0.942  -0.546  0.00  0.00    +0.031 C 
ATOM     18  C   UNL     1       5.603   0.009   0.678  0.00  0.00    +0.161 C 
ATOM     19  O   UNL     1       4.574   0.622   1.471  0.00  0.00    -0.367 OA
ENDBRANCH  12  15
ENDBRANCH   4  11
TORSDOF 3
