REMARK  Name = ZINC11872167
REMARK  6 active torsions:
REMARK  status: ('A' for Active; 'I' for Inactive)
REMARK    1  A    between atoms: C_4  and  S_7
REMARK    2  A    between atoms: S_7  and  N_10
REMARK    3  A    between atoms: N_10  and  C_11
REMARK    4  A    between atoms: C_11  and  C_12
REMARK    5  A    between atoms: C_21  and  C_22
REMARK    6  A    between atoms: C_21  and  N_51
REMARK                            x       y       z     vdW  Elec       q    Type
REMARK                         _______ _______ _______ _____ _____    ______ ____
ROOT
ATOM      1  C   UNL     1       2.362   1.638   3.481  0.00  0.00    +0.149 A 
ATOM      2  N   UNL     1       2.817   2.828   3.189  0.00  0.00    -0.133 NA
ATOM      3  N   UNL     1       2.539   3.111   1.964  0.00  0.00    -0.134 NA
ATOM      4  C   UNL     1       1.903   2.115   1.421  0.00  0.00    +0.132 A 
ATOM      5  N   UNL     1       1.759   1.159   2.372  0.00  0.00    -0.316 N 
ATOM      6  C   UNL     1       1.073  -0.122   2.207  0.00  0.00    +0.106 C 
ATOM      7  C   UNL     1       1.149  -0.548   0.738  0.00  0.00    -0.056 C 
ATOM      8  C   UNL     1      -0.018   1.460   0.010  0.00  0.00    -0.071 C 
ATOM      9  C   UNL     1       1.417   1.996  -0.001  0.00  0.00    +0.058 C 
ATOM     10  N   UNL     1      -0.001  -0.018  -0.033  0.00  0.00    +0.384 N 
ATOM     11  H   UNL     1       0.090  -0.320  -1.010  0.00  0.00    -0.081 HD
ENDROOT
BRANCH   1  12
ATOM     12  C   UNL     1       2.486   0.932   4.807  0.00  0.00    +0.182 C 
BRANCH  12  13
ATOM     13  N   UNL     1       3.721   0.145   4.828  0.00  0.00    -0.183 NA
ATOM     14  H   UNL     1       4.194  -0.037   4.001  0.00  0.00    +0.148 HD
BRANCH  13  15
ATOM     15  S   UNL     1       4.311  -0.432   6.264  0.00  0.00    +0.059 S 
ATOM     16  O   UNL     1       5.487  -1.167   5.954  0.00  0.00    -0.153 OA
ATOM     17  O   UNL     1       4.312   0.661   7.171  0.00  0.00    -0.153 OA
BRANCH  15  21
ATOM     18  C   UNL     1       1.298  -3.419   7.843  0.00  0.00    +0.000 A 
ATOM     19  C   UNL     1       2.323  -3.842   7.016  0.00  0.00    +0.002 A 
ATOM     20  C   UNL     1       3.242  -2.930   6.534  0.00  0.00    +0.028 A 
ATOM     21  C   UNL     1       3.138  -1.595   6.878  0.00  0.00    +0.105 A 
ATOM     22  C   UNL     1       2.117  -1.173   7.709  0.00  0.00    +0.028 A 
ATOM     23  C   UNL     1       1.194  -2.085   8.187  0.00  0.00    +0.002 A 
ENDBRANCH  15  21
ENDBRANCH  13  15
ENDBRANCH  12  13
ENDBRANCH   1  12
BRANCH  10  24
ATOM     24  C   UNL     1      -1.261  -0.550   0.516  0.00  0.00    -0.037 C 
BRANCH  24  25
ATOM     25  C   UNL     1      -2.381  -0.202  -0.430  0.00  0.00    +0.009 A 
ATOM     26  C   UNL     1      -2.702  -1.059  -1.469  0.00  0.00    +0.128 A 
ATOM     27  C   UNL     1      -3.731  -0.739  -2.337  0.00  0.00    +0.041 A 
ATOM     28  C   UNL     1      -4.440   0.436  -2.168  0.00  0.00    +0.044 A 
ATOM     29  C   UNL     1      -4.120   1.294  -1.131  0.00  0.00    +0.159 A 
ATOM     30  C   UNL     1      -3.093   0.972  -0.257  0.00  0.00    +0.162 A 
ATOM     31  F   UNL     1      -2.784   1.806   0.760  0.00  0.00    -0.202 F 
ATOM     32  F   UNL     1      -4.813   2.442  -0.966  0.00  0.00    -0.202 F 
ATOM     33  F   UNL     1      -2.011  -2.208  -1.635  0.00  0.00    -0.205 F 
ENDBRANCH  24  25
ENDBRANCH  10  24
TORSDOF 6
