REMARK  Name = ZINC20135197
REMARK  4 active torsions:
REMARK  status: ('A' for Active; 'I' for Inactive)
REMARK    1  A    between atoms: C_3  and  C_6
REMARK    2  A    between atoms: N_11  and  C_14
REMARK    3  A    between atoms: C_17  and  N_22
REMARK    4  A    between atoms: C_19  and  C_20
REMARK                            x       y       z     vdW  Elec       q    Type
REMARK                         _______ _______ _______ _____ _____    ______ ____
ROOT
ATOM      1  C   UNL     1      -7.106   7.114   0.007  0.00  0.00    +0.282 C 
ATOM      2  O   UNL     1      -7.401   7.675   1.046  0.00  0.00    -0.267 OA
ATOM      3  N   UNL     1      -6.624   5.856   0.033  0.00  0.00    -0.292 N 
ATOM      4  C   UNL     1      -6.370   5.171   1.310  0.00  0.00    +0.127 C 
ATOM      5  C   UNL     1      -4.943   4.613   1.287  0.00  0.00    +0.124 C 
ATOM      6  N   UNL     1      -4.766   3.780   0.089  0.00  0.00    -0.326 N 
ATOM      7  C   UNL     1      -4.913   4.574  -1.138  0.00  0.00    +0.124 C 
ATOM      8  C   UNL     1      -6.339   5.131  -1.214  0.00  0.00    +0.127 C 
ENDROOT
BRANCH   6   9
ATOM      9  C   UNL     1      -3.537   3.124   0.115  0.00  0.00    +0.047 A 
ATOM     10  C   UNL     1      -2.358   3.855   0.162  0.00  0.00    +0.026 A 
ATOM     11  C   UNL     1      -1.141   3.206   0.192  0.00  0.00    +0.024 A 
ATOM     12  C   UNL     1      -1.084   1.816   0.165  0.00  0.00    +0.026 A 
ATOM     13  C   UNL     1      -2.251   1.073   0.118  0.00  0.00    +0.043 A 
ATOM     14  C   UNL     1      -3.488   1.722   0.092  0.00  0.00    +0.074 A 
BRANCH  12  15
ATOM     15  N   UNL     1       0.156   1.167   0.191  0.00  0.00    -0.358 N 
ATOM     16  H   UNL     1       0.202   0.068   0.169  0.00  0.00    +0.142 HD
ATOM     17  H   UNL     1       1.084   1.756   0.233  0.00  0.00    +0.142 HD
ENDBRANCH  12  15
BRANCH  14  18
ATOM     18  C   UNL     1      -4.700   0.960   0.043  0.00  0.00    +0.101 C 
ATOM     19  N   UNL     1      -5.661   0.355   0.004  0.00  0.00    -0.191 NA
ENDBRANCH  14  18
ENDBRANCH   6   9
BRANCH   1  22
ATOM     20  C   UNL     1      -7.668   9.356  -2.819  0.00  0.00    +0.042 A 
ATOM     21  C   UNL     1      -7.625   9.118  -1.437  0.00  0.00    +0.054 A 
ATOM     22  C   UNL     1      -7.274   7.809  -1.274  0.00  0.00    +0.189 A 
ATOM     23  O   UNL     1      -7.105   7.267  -2.498  0.00  0.00    -0.458 OA
ATOM     24  C   UNL     1      -7.346   8.195  -3.432  0.00  0.00    +0.196 A 
ENDBRANCH   1  22
TORSDOF 4
