REMARK  Name = ZINC40569301
REMARK  6 active torsions:
REMARK  status: ('A' for Active; 'I' for Inactive)
REMARK    1  A    between atoms: C_1  and  C_2
REMARK    2  A    between atoms: C_2  and  C_3
REMARK    3  A    between atoms: C_3  and  C_4
REMARK    4  A    between atoms: C_11  and  C_19
REMARK    5  A    between atoms: C_13  and  C_17
REMARK    6  A    between atoms: C_14  and  N_16
REMARK                            x       y       z     vdW  Elec       q    Type
REMARK                         _______ _______ _______ _____ _____    ______ ____
ROOT
ATOM      1  C   UNL     1       0.739  -2.004  -1.265  0.00  0.00    +0.113 A 
ATOM      2  C   UNL     1      -0.217  -2.675  -1.937  0.00  0.00    +0.088 A 
ATOM      3  C   UNL     1      -0.203  -4.088  -1.948  0.00  0.00    +0.144 A 
ATOM      4  C   UNL     1       0.796  -4.747  -1.265  0.00  0.00    +0.092 A 
ATOM      5  C   UNL     1       1.763  -3.996  -0.584  0.00  0.00    +0.345 A 
ATOM      6  O   UNL     1       2.656  -4.561   0.027  0.00  0.00    -0.245 OA
ATOM      7  O   UNL     1       1.711  -2.653  -0.608  0.00  0.00    -0.427 OA
ATOM      8  C   UNL     1       0.854  -6.249  -1.245  0.00  0.00    +0.106 C 
ATOM      9  C   UNL     1      -0.015  -6.814  -2.335  0.00  0.00    +0.098 C 
ATOM     10  C   UNL     1      -0.954  -6.056  -2.949  0.00  0.00    +0.199 C 
ATOM     11  O   UNL     1      -1.155  -4.768  -2.619  0.00  0.00    -0.441 OA
ENDROOT
BRANCH   8  12
ATOM     12  C   UNL     1       0.366  -6.751   0.089  0.00  0.00    -0.016 A 
ATOM     13  C   UNL     1       1.199  -7.501   0.905  0.00  0.00    +0.007 A 
ATOM     14  C   UNL     1       0.708  -7.941   2.124  0.00  0.00    +0.020 A 
ATOM     15  C   UNL     1      -0.587  -7.620   2.484  0.00  0.00    +0.111 A 
ATOM     16  N   UNL     1      -1.352  -6.905   1.683  0.00  0.00    -0.263 NA
ATOM     17  C   UNL     1      -0.916  -6.464   0.519  0.00  0.00    +0.115 A 
ENDBRANCH   8  12
BRANCH  10  18
ATOM     18  N   UNL     1      -1.722  -6.618  -3.938  0.00  0.00    -0.328 N 
ATOM     19  H   UNL     1      -1.587  -7.546  -4.188  0.00  0.00    +0.145 HD
ATOM     20  H   UNL     1      -2.398  -6.088  -4.387  0.00  0.00    +0.145 HD
ENDBRANCH  10  18
BRANCH   9  21
ATOM     21  C   UNL     1       0.154  -8.180  -2.731  0.00  0.00    +0.101 C 
ATOM     22  N   UNL     1       0.288  -9.263  -3.046  0.00  0.00    -0.191 NA
ENDBRANCH   9  21
BRANCH   1  23
ATOM     23  C   UNL     1       0.718  -0.497  -1.257  0.00  0.00    +0.074 C 
BRANCH  23  25
ATOM     24  C   UNL     1      -0.019   1.526   0.010  0.00  0.00    +0.004 C 
ATOM     25  C   UNL     1       0.002  -0.004   0.002  0.00  0.00    +0.004 C 
ENDBRANCH  23  25
ENDBRANCH   1  23
TORSDOF 5
