REMARK  Name = ZINC20524721
REMARK  10 active torsions:
REMARK  status: ('A' for Active; 'I' for Inactive)
REMARK    1  A    between atoms: C_1  and  C_2
REMARK    2  A    between atoms: C_2  and  C_4
REMARK    3  A    between atoms: C_2  and  N_10
REMARK    4  A    between atoms: C_4  and  C_5
REMARK    5  A    between atoms: C_5  and  C_6
REMARK    6  A    between atoms: C_5  and  C_7
REMARK    7  A    between atoms: C_5  and  O_8
REMARK    8  A    between atoms: O_8  and  C_9
REMARK    9  A    between atoms: N_10  and  C_11
REMARK   10  A    between atoms: C_14  and  C_17
REMARK                            x       y       z     vdW  Elec       q    Type
REMARK                         _______ _______ _______ _____ _____    ______ ____
ROOT
ATOM      1  C   UNL     1       1.177   2.087   0.002  0.00  0.00    +0.027 A 
ATOM      2  C   UNL     1      -0.017   1.373   0.010  0.00  0.00    +0.023 A 
ATOM      3  C   UNL     1       0.002  -0.004   0.002  0.00  0.00    +0.015 A 
ATOM      4  C   UNL     1       1.222  -0.684  -0.013  0.00  0.00    +0.039 A 
ATOM      5  C   UNL     1       2.419   0.035  -0.021  0.00  0.00    +0.015 A 
ATOM      6  C   UNL     1       2.394   1.412  -0.013  0.00  0.00    +0.023 A 
ENDROOT
BRANCH   4   7
ATOM      7  C   UNL     1       1.245  -2.162  -0.021  0.00  0.00    +0.248 A 
ATOM      8  N   UNL     1       0.201  -2.957  -0.009  0.00  0.00    -0.108 NA
ATOM      9  N   UNL     1       0.600  -4.180  -0.025  0.00  0.00    -0.116 NA
ATOM     10  C   UNL     1       1.902  -4.214  -0.038  0.00  0.00    +0.332 A 
ATOM     11  O   UNL     1       2.343  -2.944  -0.036  0.00  0.00    -0.423 OA
ENDBRANCH   4   7
BRANCH   1  12
ATOM     12  N   UNL     1       1.155   3.481   0.010  0.00  0.00    -0.341 N 
ATOM     13  H   UNL     1       0.194   4.015   0.022  0.00  0.00    +0.146 HD
BRANCH  12  15
ATOM     14  C   UNL     1       2.928   4.380   1.435  0.00  0.00    +0.028 C 
ATOM     15  C   UNL     1       2.412   4.233   0.002  0.00  0.00    +0.070 C 
BRANCH  15  16
ATOM     16  C   UNL     1       2.172   5.620  -0.598  0.00  0.00    +0.056 C 
BRANCH  16  17
ATOM     17  C   UNL     1       1.776   5.478  -2.069  0.00  0.00    +0.065 C 
ATOM     18  C   UNL     1       1.658   6.866  -2.702  0.00  0.00    +0.041 C 
ATOM     19  C   UNL     1       2.844   4.670  -2.809  0.00  0.00    +0.041 C 
BRANCH  17  20
ATOM     20  O   UNL     1       0.520   4.804  -2.161  0.00  0.00    -0.377 OA
ATOM     21  C   UNL     1       0.056   4.619  -3.500  0.00  0.00    +0.194 C 
ENDBRANCH  17  20
ENDBRANCH  16  17
ENDBRANCH  15  16
ENDBRANCH  12  15
ENDBRANCH   1  12
TORSDOF 6
