REMARK  Name = ZINC24304995
REMARK  8 active torsions:
REMARK  status: ('A' for Active; 'I' for Inactive)
REMARK    1  A    between atoms: C_1  and  C_2
REMARK    2  A    between atoms: C_5  and  N_9
REMARK    3  A    between atoms: C_13  and  S_14
REMARK    4  A    between atoms: S_14  and  C_15
REMARK    5  A    between atoms: C_15  and  C_16
REMARK    6  A    between atoms: N_21  and  C_22
REMARK    7  A    between atoms: C_27  and  C_32
REMARK    8  A    between atoms: C_29  and  C_31
REMARK                            x       y       z     vdW  Elec       q    Type
REMARK                         _______ _______ _______ _____ _____    ______ ____
ROOT
ATOM      1  C   UNL     1       1.123   3.381   0.009  0.00  0.00    +0.231 C 
ATOM      2  O   UNL     1       0.065   3.973   0.023  0.00  0.00    -0.274 OA
ATOM      3  N   UNL     1       1.142   2.033   0.002  0.00  0.00    -0.239 N 
ATOM      4  C   UNL     1      -0.016   1.344   0.009  0.00  0.00    +0.306 C 
ATOM      5  O   UNL     1      -1.077   1.937   0.018  0.00  0.00    -0.252 OA
ATOM      6  N   UNL     1       0.002  -0.004   0.002  0.00  0.00    -0.296 N 
ATOM      7  H   UNL     1       2.102   1.496  -0.010  0.00  0.00    +0.159 HD
ATOM      8  H   UNL     1       0.962  -0.541  -0.010  0.00  0.00    +0.151 HD
ENDROOT
BRANCH   6   9
ATOM      9  C   UNL     1      -1.256  -0.754   0.010  0.00  0.00    +0.078 C 
ATOM     10  C   UNL     1      -1.773  -0.899  -1.423  0.00  0.00    +0.022 C 
ATOM     11  C   UNL     1      -3.087  -1.682  -1.415  0.00  0.00    +0.002 C 
ATOM     12  C   UNL     1      -2.851  -3.069  -0.815  0.00  0.00    +0.003 C 
ATOM     13  C   UNL     1      -2.334  -2.924   0.618  0.00  0.00    -0.009 C 
ATOM     14  C   UNL     1      -1.020  -2.141   0.610  0.00  0.00    +0.009 C 
ATOM     15  C   UNL     1       0.015  -2.891  -0.231  0.00  0.00    +0.009 C 
ATOM     16  C   UNL     1      -2.098  -4.312   1.218  0.00  0.00    +0.008 C 
ENDBRANCH   6   9
BRANCH   1  17
ATOM     17  C   UNL     1       2.418   4.152   0.001  0.00  0.00    +0.173 C 
BRANCH  17  18
ATOM     18  S   UNL     1       2.063   5.927   0.014  0.00  0.00    -0.076 S 
BRANCH  18  23
ATOM     19  N   UNL     1       4.063   7.887   0.006  0.00  0.00    -0.277 N 
ATOM     20  C   UNL     1       5.433   7.898  -0.007  0.00  0.00    +0.230 A 
ATOM     21  N   UNL     1       5.830   6.657  -0.018  0.00  0.00    -0.137 NA
ATOM     22  N   UNL     1       4.816   5.868  -0.007  0.00  0.00    -0.122 NA
ATOM     23  C   UNL     1       3.705   6.567   0.002  0.00  0.00    +0.196 A 
BRANCH  19  28
ATOM     24  C   UNL     1       0.599  12.385   0.066  0.00  0.00    +0.045 C 
ATOM     25  C   UNL     1       1.518  11.191   0.050  0.00  0.00    -0.032 A 
ATOM     26  C   UNL     1       2.559  11.108   0.957  0.00  0.00    +0.007 A 
ATOM     27  C   UNL     1       3.404  10.015   0.944  0.00  0.00    +0.026 A 
ATOM     28  C   UNL     1       3.207   8.998   0.020  0.00  0.00    +0.051 A 
ATOM     29  C   UNL     1       2.166   9.085  -0.893  0.00  0.00    +0.046 A 
ATOM     30  C   UNL     1       1.320  10.178  -0.872  0.00  0.00    +0.046 A 
ATOM     31 CL   UNL     1       0.013  10.286  -2.010  0.00  0.00    -0.083 Cl
ENDBRANCH  19  28
ENDBRANCH  18  23
ENDBRANCH  17  18
ENDBRANCH   1  17
TORSDOF 5
