REMARK  Name = ZINC20567318
REMARK  7 active torsions:
REMARK  status: ('A' for Active; 'I' for Inactive)
REMARK    1  A    between atoms: C_1  and  C_2
REMARK    2  A    between atoms: N_5  and  C_11
REMARK    3  A    between atoms: C_7  and  C_10
REMARK    4  A    between atoms: C_11  and  C_12
REMARK    5  A    between atoms: N_16  and  C_17
REMARK    6  A    between atoms: C_17  and  C_18
REMARK    7  A    between atoms: N_31  and  C_32
REMARK                            x       y       z     vdW  Elec       q    Type
REMARK                         _______ _______ _______ _____ _____    ______ ____
ROOT
ATOM      1  C   UNL     1      -1.187   2.453   4.567  0.00  0.00    +0.127 A 
ATOM      2  N   UNL     1      -1.124   3.419   5.447  0.00  0.00    -0.213 NA
ATOM      3  C   UNL     1      -1.919   3.142   6.483  0.00  0.00    +0.168 A 
ATOM      4  C   UNL     1      -2.511   1.910   6.230  0.00  0.00    +0.152 A 
ATOM      5  N   UNL     1      -2.027   1.494   5.005  0.00  0.00    -0.317 N 
ATOM      6  C   UNL     1      -3.406   1.369   7.177  0.00  0.00    +0.280 A 
ATOM      7  O   UNL     1      -3.936   0.291   6.978  0.00  0.00    -0.265 OA
ATOM      8  N   UNL     1      -3.666   2.059   8.307  0.00  0.00    -0.273 N 
ATOM      9  H   UNL     1      -4.362   1.649   9.054  0.00  0.00    +0.173 HD
ATOM     10  C   UNL     1      -3.087   3.250   8.539  0.00  0.00    +0.331 A 
ATOM     11  O   UNL     1      -3.346   3.844   9.568  0.00  0.00    -0.246 OA
ATOM     12  N   UNL     1      -2.228   3.802   7.661  0.00  0.00    -0.280 N 
ATOM     13  C   UNL     1      -1.619   5.102   7.953  0.00  0.00    +0.155 C 
ENDROOT
BRANCH   1  14
ATOM     14  C   UNL     1      -0.430   2.414   3.265  0.00  0.00    +0.159 C 
BRANCH  14  18
ATOM     15  C   UNL     1      -0.519   3.987  -1.398  0.00  0.00    +0.039 C 
ATOM     16  C   UNL     1      -1.325   3.838  -0.106  0.00  0.00    +0.130 C 
ATOM     17  C   UNL     1      -0.457   3.171   0.964  0.00  0.00    +0.116 C 
ATOM     18  N   UNL     1      -1.210   3.099   2.225  0.00  0.00    -0.290 NA
ATOM     19  C   UNL     1      -1.615   4.441   2.667  0.00  0.00    +0.116 C 
ATOM     20  C   UNL     1      -2.471   5.095   1.580  0.00  0.00    +0.130 C 
ATOM     21  O   UNL     1      -1.734   5.128   0.355  0.00  0.00    -0.371 OA
ATOM     22  C   UNL     1      -3.753   4.284   1.383  0.00  0.00    +0.039 C 
ENDBRANCH  14  18
ENDBRANCH   1  14
BRANCH   5  23
ATOM     23  C   UNL     1      -2.365   0.248   4.312  0.00  0.00    +0.160 C 
BRANCH  23  24
ATOM     24  C   UNL     1      -3.494   0.500   3.346  0.00  0.00    -0.009 A 
ATOM     25  C   UNL     1      -4.760   0.785   3.822  0.00  0.00    +0.007 A 
ATOM     26  C   UNL     1      -5.794   1.021   2.936  0.00  0.00    +0.000 A 
ATOM     27  C   UNL     1      -5.565   0.962   1.573  0.00  0.00    +0.001 A 
ATOM     28  C   UNL     1      -4.301   0.673   1.097  0.00  0.00    +0.020 A 
ATOM     29  C   UNL     1      -3.264   0.442   1.983  0.00  0.00    +0.046 A 
ATOM     30 CL   UNL     1      -1.675   0.078   1.385  0.00  0.00    -0.083 Cl
ENDBRANCH  23  24
ENDBRANCH   5  23
TORSDOF 4
