REMARK  Name = ZINC34749828
REMARK  5 active torsions:
REMARK  status: ('A' for Active; 'I' for Inactive)
REMARK    1  A    between atoms: C_1  and  C_2
REMARK    2  A    between atoms: C_13  and  C_15
REMARK    3  A    between atoms: C_13  and  C_16
REMARK    4  A    between atoms: N_20  and  C_23
REMARK    5  A    between atoms: C_23  and  C_24
REMARK                            x       y       z     vdW  Elec       q    Type
REMARK                         _______ _______ _______ _____ _____    ______ ____
ROOT
ATOM      1  C   UNL     1       0.004   1.503   0.010  0.00  0.00    +0.088 C 
ATOM      2  C   UNL     1       0.012  -0.004   0.002  0.00  0.00    +0.129 A 
ATOM      3  N   UNL     1       0.015  -0.644  -1.154  0.00  0.00    -0.217 NA
ATOM      4  C   UNL     1       0.023  -1.965  -1.228  0.00  0.00    +0.133 A 
ATOM      5  C   UNL     1       0.028  -2.727  -0.027  0.00  0.00    +0.051 A 
ATOM      6  C   UNL     1       0.035  -4.178   0.140  0.00  0.00    -0.020 A 
ATOM      7  C   UNL     1       0.039  -4.651   1.405  0.00  0.00    +0.021 A 
ATOM      8  S   UNL     1       0.034  -3.212   2.437  0.00  0.00    -0.071 S 
ATOM      9  C   UNL     1       0.025  -1.974   1.166  0.00  0.00    +0.114 A 
ATOM     10  N   UNL     1       0.022  -0.655   1.149  0.00  0.00    -0.225 NA
ATOM     11  C   UNL     1       0.044  -6.093   1.812  0.00  0.00    +0.203 C 
ATOM     12  O   UNL     1      -0.276  -6.880   0.654  0.00  0.00    -0.368 OA
ATOM     13  C   UNL     1       0.485  -6.526  -0.503  0.00  0.00    +0.068 C 
ATOM     14  C   UNL     1       0.038  -5.159  -1.030  0.00  0.00    +0.071 C 
ATOM     15  C   UNL     1       1.969  -6.468  -0.136  0.00  0.00    +0.041 C 
ATOM     16  C   UNL     1       0.275  -7.581  -1.591  0.00  0.00    +0.041 C 
ATOM     17  N   UNL     1       0.025  -2.597  -2.459  0.00  0.00    -0.318 N 
ATOM     18  C   UNL     1      -1.229  -3.051  -3.078  0.00  0.00    +0.088 C 
ATOM     19  C   UNL     1      -1.276  -2.531  -4.519  0.00  0.00    -0.059 C 
ATOM     20  N   UNL     1      -0.062  -2.952  -5.229  0.00  0.00    +0.387 N 
ATOM     21  C   UNL     1       1.117  -2.324  -4.621  0.00  0.00    -0.059 C 
ATOM     22  C   UNL     1       1.282  -2.828  -3.188  0.00  0.00    +0.088 C 
ATOM     23  H   UNL     1       0.028  -3.956  -5.175  0.00  0.00    -0.081 HD
ENDROOT
BRANCH  20  24
ATOM     24  C   UNL     1      -0.157  -2.549  -6.639  0.00  0.00    +0.018 C 
BRANCH  24  25
ATOM     25  C   UNL     1       1.030  -3.086  -7.396  0.00  0.00    +0.194 C 
ATOM     26  O   UNL     1       1.872  -3.740  -6.819  0.00  0.00    -0.278 OA
ATOM     27  N   UNL     1       1.155  -2.838  -8.715  0.00  0.00    -0.331 N 
ATOM     28  H   UNL     1       0.482  -2.315  -9.177  0.00  0.00    +0.145 HD
ATOM     29  H   UNL     1       1.919  -3.184  -9.203  0.00  0.00    +0.145 HD
ENDBRANCH  24  25
ENDBRANCH  20  24
TORSDOF 2
