REMARK  Name = ZINC39708106
REMARK  6 active torsions:
REMARK  status: ('A' for Active; 'I' for Inactive)
REMARK    1  A    between atoms: C_1  and  C_2
REMARK    2  A    between atoms: C_4  and  C_28
REMARK    3  A    between atoms: C_6  and  N_8
REMARK    4  A    between atoms: C_9  and  C_11
REMARK    5  A    between atoms: C_11  and  S_12
REMARK    6  A    between atoms: S_12  and  C_13
REMARK                            x       y       z     vdW  Elec       q    Type
REMARK                         _______ _______ _______ _____ _____    ______ ____
ROOT
ATOM      1  C   UNL     1       0.536  -2.770   7.657  0.00  0.00    +0.208 C 
ATOM      2  N   UNL     1       0.544  -4.069   7.476  0.00  0.00    -0.227 NA
ATOM      3  C   UNL     1       0.585  -4.921   8.662  0.00  0.00    +0.252 C 
ATOM      4  C   UNL     1       1.303  -4.120   9.739  0.00  0.00    +0.117 C 
ATOM      5  C   UNL     1       2.249  -4.958  10.249  0.00  0.00    +0.028 A 
ATOM      6  C   UNL     1       3.147  -4.828  11.334  0.00  0.00    +0.050 A 
ATOM      7  C   UNL     1       3.993  -5.869  11.575  0.00  0.00    +0.124 A 
ATOM      8  C   UNL     1       4.025  -7.048  10.819  0.00  0.00    +0.040 A 
ATOM      9  C   UNL     1       3.204  -7.282   9.762  0.00  0.00    +0.029 A 
ATOM     10  C   UNL     1       2.248  -6.211   9.432  0.00  0.00    +0.046 A 
ATOM     11  N   UNL     1       1.342  -6.155   8.505  0.00  0.00    -0.358 N 
ATOM     12  F   UNL     1       4.856  -5.756  12.609  0.00  0.00    -0.205 F 
ATOM     13  N   UNL     1       1.047  -2.822   9.922  0.00  0.00    -0.147 NA
ATOM     14  N   UNL     1       0.640  -2.179   8.872  0.00  0.00    -0.122 NA
ATOM     15  H   UNL     1       1.192  -6.826   7.821  0.00  0.00    +0.162 HD
ENDROOT
BRANCH   1  16
ATOM     16  S   UNL     1       0.391  -1.734   6.239  0.00  0.00    -0.075 S 
BRANCH  16  17
ATOM     17  C   UNL     1       0.280  -2.900   4.854  0.00  0.00    +0.173 C 
BRANCH  17  19
ATOM     18  N   UNL     1       0.052  -2.797   2.393  0.00  0.00    -0.285 N 
ATOM     19  C   UNL     1       0.150  -2.134   3.562  0.00  0.00    +0.227 C 
ATOM     20  O   UNL     1       0.134  -0.922   3.575  0.00  0.00    -0.275 OA
ATOM     21  H   UNL     1      -0.012  -3.765   2.388  0.00  0.00    +0.155 HD
BRANCH  18  27
ATOM     22  C   UNL     1      -1.512  -2.365  -2.248  0.00  0.00    +0.044 C 
ATOM     23  C   UNL     1      -0.707  -1.857  -1.080  0.00  0.00    -0.048 A 
ATOM     24  C   UNL     1       0.025  -0.690  -1.201  0.00  0.00    +0.006 A 
ATOM     25  C   UNL     1       0.765  -0.220  -0.131  0.00  0.00    -0.048 A 
ATOM     26  C   UNL     1       0.776  -0.917   1.061  0.00  0.00    +0.026 A 
ATOM     27  C   UNL     1       0.043  -2.089   1.186  0.00  0.00    +0.034 A 
ATOM     28  C   UNL     1      -0.704  -2.555   0.112  0.00  0.00    +0.026 A 
ATOM     29  C   UNL     1       1.561   1.052  -0.268  0.00  0.00    +0.044 C 
ENDBRANCH  18  27
ENDBRANCH  17  19
ENDBRANCH  16  17
ENDBRANCH   1  16
TORSDOF 4
