REMARK  Name = ZINC38752130
REMARK  5 active torsions:
REMARK  status: ('A' for Active; 'I' for Inactive)
REMARK    1  A    between atoms: C_1  and  C_2
REMARK    2  A    between atoms: C_7  and  C_12
REMARK    3  A    between atoms: C_14  and  C_17
REMARK    4  A    between atoms: C_17  and  N_18
REMARK    5  A    between atoms: C_19  and  C_21
REMARK                            x       y       z     vdW  Elec       q    Type
REMARK                         _______ _______ _______ _____ _____    ______ ____
ROOT
ATOM      1  C   UNL     1      -2.443  -5.094   2.284  0.00  0.00    +0.168 A 
ATOM      2  C   UNL     1      -2.136  -6.142   3.097  0.00  0.00    +0.077 A 
ATOM      3  C   UNL     1      -3.206  -7.046   3.061  0.00  0.00    +0.101 A 
ATOM      4  N   UNL     1      -4.120  -6.567   2.263  0.00  0.00    -0.081 NA
ATOM      5  O   UNL     1      -3.661  -5.325   1.761  0.00  0.00    -0.354 OA
ENDROOT
BRANCH   1  11
ATOM      6  C   UNL     1      -0.019   1.526   0.010  0.00  0.00    +0.052 C 
ATOM      7  C   UNL     1       0.002  -0.004   0.002  0.00  0.00    +0.175 C 
ATOM      8  C   UNL     1      -1.435  -0.572   0.076  0.00  0.00    +0.083 C 
ATOM      9  C   UNL     1      -1.241  -1.803   0.940  0.00  0.00    -0.002 A 
ATOM     10  C   UNL     1      -2.037  -2.900   1.172  0.00  0.00    +0.019 A 
ATOM     11  C   UNL     1      -1.595  -3.911   2.028  0.00  0.00    +0.020 A 
ATOM     12  C   UNL     1      -0.345  -3.795   2.641  0.00  0.00    +0.015 A 
ATOM     13  C   UNL     1       0.442  -2.692   2.404  0.00  0.00    +0.046 A 
ATOM     14  C   UNL     1       0.001  -1.679   1.553  0.00  0.00    +0.124 A 
ATOM     15  O   UNL     1       0.612  -0.512   1.201  0.00  0.00    -0.488 OA
ENDBRANCH   1  11
BRANCH   3  16
ATOM     16  C   UNL     1      -3.287  -8.349   3.814  0.00  0.00    +0.163 C 
BRANCH  16  17
ATOM     17  N   UNL     1      -4.007  -8.141   5.072  0.00  0.00    -0.306 N 
ATOM     18  C   UNL     1      -4.202  -9.175   5.916  0.00  0.00    +0.258 C 
ATOM     19  O   UNL     1      -3.781 -10.276   5.633  0.00  0.00    -0.272 OA
ATOM     20  H   UNL     1      -4.344  -7.260   5.299  0.00  0.00    +0.149 HD
BRANCH  18  21
ATOM     21  C   UNL     1      -4.943  -8.961   7.211  0.00  0.00    +0.296 C 
ATOM     22  C   UNL     1      -4.132  -8.031   8.124  0.00  0.00    +0.283 C 
ATOM     23  O   UNL     1      -4.856  -7.862   9.347  0.00  0.00    -0.484 OA
ATOM     24  C   UNL     1      -5.360  -8.988   9.921  0.00  0.00    +0.162 A 
ATOM     25  C   UNL     1      -5.744  -8.960  11.253  0.00  0.00    +0.049 A 
ATOM     26  C   UNL     1      -6.261 -10.095  11.849  0.00  0.00    +0.004 A 
ATOM     27  C   UNL     1      -6.395 -11.261  11.120  0.00  0.00    +0.004 A 
ATOM     28  C   UNL     1      -6.012 -11.297   9.792  0.00  0.00    +0.049 A 
ATOM     29  C   UNL     1      -5.492 -10.162   9.188  0.00  0.00    +0.163 A 
ATOM     30  O   UNL     1      -5.113 -10.214   7.882  0.00  0.00    -0.473 OA
ENDBRANCH  18  21
ENDBRANCH  16  17
ENDBRANCH   3  16
TORSDOF 4
