REMARK  Name = ZINC58950987
REMARK  7 active torsions:
REMARK  status: ('A' for Active; 'I' for Inactive)
REMARK    1  A    between atoms: C_1  and  C_2
REMARK    2  A    between atoms: C_5  and  C_7
REMARK    3  A    between atoms: C_12  and  N_23
REMARK    4  A    between atoms: C_16  and  N_22
REMARK    5  A    between atoms: C_17  and  C_18
REMARK    6  A    between atoms: C_18  and  O_20
REMARK    7  A    between atoms: O_20  and  C_21
REMARK                            x       y       z     vdW  Elec       q    Type
REMARK                         _______ _______ _______ _____ _____    ______ ____
ROOT
ATOM      1  C   UNL     1       1.050  -4.213  -0.054  0.00  0.00    +0.101 C 
ATOM      2  C   UNL     1       1.923  -4.385  -1.268  0.00  0.00    +0.008 A 
ATOM      3  C   UNL     1       1.342  -4.687  -2.487  0.00  0.00    +0.010 A 
ATOM      4  C   UNL     1       2.126  -4.849  -3.612  0.00  0.00    +0.023 A 
ATOM      5  C   UNL     1       3.505  -4.708  -3.522  0.00  0.00    +0.028 A 
ATOM      6  C   UNL     1       4.091  -4.405  -2.301  0.00  0.00    +0.069 A 
ATOM      7  C   UNL     1       3.299  -4.243  -1.172  0.00  0.00    +0.136 A 
ATOM      8  O   UNL     1       3.887  -3.947   0.013  0.00  0.00    -0.441 OA
ATOM      9  C   UNL     1       3.227  -4.164   1.161  0.00  0.00    +0.195 C 
ATOM     10  C   UNL     1       1.880  -4.298   1.196  0.00  0.00    +0.106 C 
ENDROOT
BRANCH   1  15
ATOM     11  C   UNL     1      -0.577   1.209  -0.273  0.00  0.00    +0.051 C 
ATOM     12  C   UNL     1      -0.402  -0.287  -0.216  0.00  0.00    -0.013 A 
ATOM     13  C   UNL     1      -1.348  -1.257  -0.199  0.00  0.00    +0.011 A 
ATOM     14  C   UNL     1      -0.952  -2.580  -0.145  0.00  0.00    +0.012 A 
ATOM     15  C   UNL     1       0.372  -2.868  -0.113  0.00  0.00    +0.002 A 
ATOM     16  S   UNL     1       1.106  -1.241  -0.164  0.00  0.00    -0.097 S 
ENDBRANCH   1  15
BRANCH   9  17
ATOM     17  N   UNL     1       3.936  -4.250   2.329  0.00  0.00    -0.329 N 
ATOM     18  H   UNL     1       4.905  -4.237   2.311  0.00  0.00    +0.145 HD
ATOM     19  H   UNL     1       3.468  -4.325   3.176  0.00  0.00    +0.145 HD
ENDBRANCH   9  17
BRANCH   5  20
ATOM     20  N   UNL     1       4.301  -4.872  -4.658  0.00  0.00    -0.358 N 
ATOM     21  H   UNL     1       3.891  -5.084  -5.511  0.00  0.00    +0.142 HD
ATOM     22  H   UNL     1       5.264  -4.774  -4.594  0.00  0.00    +0.142 HD
ENDBRANCH   5  20
BRANCH  10  23
ATOM     23  C   UNL     1       1.247  -4.522   2.428  0.00  0.00    +0.341 C 
ATOM     24  O   UNL     1       0.891  -5.646   2.734  0.00  0.00    -0.245 OA
BRANCH  23  25
ATOM     25  O   UNL     1       1.033  -3.491   3.274  0.00  0.00    -0.465 OA
ATOM     26  C   UNL     1       0.384  -3.791   4.511  0.00  0.00    +0.280 C 
ENDBRANCH  23  25
ENDBRANCH  10  23
TORSDOF 5
