REMARK  Name = ZINC59334249
REMARK  7 active torsions:
REMARK  status: ('A' for Active; 'I' for Inactive)
REMARK    1  A    between atoms: C_1  and  C_2
REMARK    2  A    between atoms: C_15  and  C_17
REMARK    3  A    between atoms: C_17  and  N_18
REMARK    4  A    between atoms: N_18  and  C_19
REMARK    5  A    between atoms: N_18  and  C_22
REMARK    6  A    between atoms: C_22  and  C_24
REMARK    7  A    between atoms: C_22  and  C_25
REMARK                            x       y       z     vdW  Elec       q    Type
REMARK                         _______ _______ _______ _____ _____    ______ ____
ROOT
ATOM      1  C   UNL     1       1.392   0.672  -0.203  0.00  0.00    +0.029 C 
ATOM      2  C   UNL     1       1.059  -0.814  -0.059  0.00  0.00    +0.087 C 
ATOM      3  C   UNL     1       1.733  -1.597  -1.186  0.00  0.00    +0.118 C 
ATOM      4  C   UNL     1       1.756  -3.066  -0.855  0.00  0.00    +0.219 C 
ATOM      5  O   UNL     1       0.984  -3.821  -1.407  0.00  0.00    -0.275 OA
ATOM      6  N   UNL     1       2.632  -3.548   0.053  0.00  0.00    -0.284 N 
ATOM      7  C   UNL     1       3.463  -2.679   0.769  0.00  0.00    +0.055 A 
ATOM      8  C   UNL     1       4.825  -2.914   0.864  0.00  0.00    +0.025 A 
ATOM      9  C   UNL     1       5.622  -2.054   1.596  0.00  0.00    +0.002 A 
ATOM     10  C   UNL     1       5.065  -0.961   2.234  0.00  0.00    +0.002 A 
ATOM     11  C   UNL     1       3.708  -0.713   2.136  0.00  0.00    +0.025 A 
ATOM     12  C   UNL     1       2.905  -1.564   1.395  0.00  0.00    +0.058 A 
ATOM     13  N   UNL     1       1.539  -1.298   1.237  0.00  0.00    -0.268 N 
ATOM     14  C   UNL     1       0.682  -1.483   2.260  0.00  0.00    +0.204 C 
ATOM     15  O   UNL     1      -0.499  -1.249   2.113  0.00  0.00    -0.277 OA
ATOM     16  H   UNL     1       2.685  -4.504   0.211  0.00  0.00    +0.155 HD
ENDROOT
BRANCH  14  17
ATOM     17  C   UNL     1       1.192  -1.981   3.588  0.00  0.00    +0.020 C 
BRANCH  17  18
ATOM     18  N   UNL     1       0.070  -2.099   4.530  0.00  0.00    +0.392 N 
ATOM     19  H   UNL     1      -0.439  -1.228   4.557  0.00  0.00    -0.080 HD
BRANCH  18  20
ATOM     20  C   UNL     1      -0.826  -3.177   4.092  0.00  0.00    -0.067 C 
ATOM     21  C   UNL     1      -2.191  -2.776   3.530  0.00  0.00    -0.017 C 
ATOM     22  C   UNL     1      -2.093  -3.420   4.914  0.00  0.00    -0.017 C 
ENDBRANCH  18  20
BRANCH  18  23
ATOM     23  C   UNL     1       0.587  -2.406   5.871  0.00  0.00    -0.038 C 
ATOM     24  C   UNL     1       1.723  -3.425   5.758  0.00  0.00    -0.008 C 
BRANCH  23  25
ATOM     25  C   UNL     1       1.105  -1.144   6.510  0.00  0.00    -0.043 A 
ATOM     26  C   UNL     1       1.334  -0.020   5.738  0.00  0.00    +0.003 A 
ATOM     27  C   UNL     1       1.809   1.137   6.324  0.00  0.00    +0.000 A 
ATOM     28  C   UNL     1       2.057   1.173   7.684  0.00  0.00    +0.001 A 
ATOM     29  C   UNL     1       1.829   0.050   8.458  0.00  0.00    +0.020 A 
ATOM     30  C   UNL     1       1.348  -1.107   7.872  0.00  0.00    +0.043 A 
ATOM     31 CL   UNL     1       1.055  -2.515   8.844  0.00  0.00    -0.083 Cl
ENDBRANCH  23  25
ENDBRANCH  18  23
ENDBRANCH  17  18
ENDBRANCH  14  17
TORSDOF 5
