REMARK  Name = ZINC64081777
REMARK  7 active torsions:
REMARK  status: ('A' for Active; 'I' for Inactive)
REMARK    1  A    between atoms: C_10  and  C_12
REMARK    2  A    between atoms: C_12  and  C_13
REMARK    3  A    between atoms: N_15  and  N_16
REMARK    4  A    between atoms: N_16  and  C_17
REMARK    5  A    between atoms: C_17  and  N_19
REMARK    6  A    between atoms: N_19  and  C_20
REMARK    7  A    between atoms: C_20  and  C_21
REMARK                            x       y       z     vdW  Elec       q    Type
REMARK                         _______ _______ _______ _____ _____    ______ ____
ROOT
ATOM      1  C   UNL     1       4.759  -1.677  -2.943  0.00  0.00    +0.231 C 
ATOM      2  O   UNL     1       5.721  -1.623  -2.207  0.00  0.00    -0.274 OA
ATOM      3  N   UNL     1       4.893  -1.379  -4.251  0.00  0.00    -0.235 N 
ATOM      4  H   UNL     1       4.124  -1.422  -4.840  0.00  0.00    +0.173 HD
ENDROOT
BRANCH   3   5
ATOM      5  N   UNL     1       6.145  -1.009  -4.760  0.00  0.00    -0.246 N 
ATOM      6  H   UNL     1       6.915  -0.966  -4.171  0.00  0.00    +0.172 HD
BRANCH   5   7
ATOM      7  C   UNL     1       6.280  -0.712  -6.068  0.00  0.00    +0.147 C 
ATOM      8  S   UNL     1       7.809  -0.259  -6.689  0.00  0.00    -0.017 S 
BRANCH   7   9
ATOM      9  N   UNL     1       5.210  -0.771  -6.886  0.00  0.00    -0.317 N 
ATOM     10  H   UNL     1       4.344  -1.028  -6.533  0.00  0.00    +0.148 HD
BRANCH   9  11
ATOM     11  C   UNL     1       5.357  -0.448  -8.307  0.00  0.00    +0.216 C 
BRANCH  11  12
ATOM     12  C   UNL     1       4.003  -0.593  -9.005  0.00  0.00    +0.405 C 
ATOM     13  F   UNL     1       3.081   0.283  -8.420  0.00  0.00    -0.169 F 
ATOM     14  F   UNL     1       4.143  -0.284 -10.362  0.00  0.00    -0.169 F 
ATOM     15  F   UNL     1       3.547  -1.908  -8.870  0.00  0.00    -0.169 F 
ENDBRANCH  11  12
ENDBRANCH   9  11
ENDBRANCH   7   9
ENDBRANCH   5   7
ENDBRANCH   3   5
BRANCH   1  16
ATOM     16  C   UNL     1       3.412  -2.075  -2.396  0.00  0.00    +0.121 C 
BRANCH  16  26
ATOM     17  C   UNL     1      -0.017   1.377   0.010  0.00  0.00    +0.002 A 
ATOM     18  C   UNL     1       1.166   2.094   0.002  0.00  0.00    +0.001 A 
ATOM     19  C   UNL     1       2.377   1.426  -0.008  0.00  0.00    +0.016 A 
ATOM     20  C   UNL     1       2.401   0.041  -0.015  0.00  0.00    +0.030 A 
ATOM     21  C   UNL     1       1.213  -0.690  -0.015  0.00  0.00    +0.047 A 
ATOM     22  C   UNL     1       0.002  -0.004   0.002  0.00  0.00    +0.024 A 
ATOM     23  N   UNL     1       1.205  -2.081  -0.044  0.00  0.00    -0.284 N 
ATOM     24  C   UNL     1       2.221  -2.873  -0.370  0.00  0.00    +0.231 C 
ATOM     25  O   UNL     1       2.083  -4.071  -0.238  0.00  0.00    -0.274 OA
ATOM     26  C   UNL     1       3.534  -2.357  -0.897  0.00  0.00    +0.146 C 
ATOM     27  S   UNL     1       3.943  -0.819  -0.017  0.00  0.00    -0.110 S 
ATOM     28  H   UNL     1       0.373  -2.517   0.199  0.00  0.00    +0.155 HD
ENDBRANCH  16  26
ENDBRANCH   1  16
TORSDOF 7
