REMARK  Name = ZINC00108653
REMARK  4 active torsions:
REMARK  status: ('A' for Active; 'I' for Inactive)
REMARK    1  A    between atoms: C_1  and  C_2
REMARK    2  A    between atoms: C_3  and  C_21
REMARK    3  A    between atoms: C_4  and  C_16
REMARK    4  A    between atoms: N_23  and  C_24
REMARK                            x       y       z     vdW  Elec       q    Type
REMARK                         _______ _______ _______ _____ _____    ______ ____
ROOT
ATOM      1  C   UNL     1      -4.189   1.485   2.348  0.00  0.00    +0.061 C 
ATOM      2  C   UNL     1      -3.335   1.779   1.142  0.00  0.00    +0.018 C 
ATOM      3  C   UNL     1      -2.175   2.426   1.314  0.00  0.00    +0.059 C 
ATOM      4  C   UNL     1      -1.239   2.759   0.184  0.00  0.00    +0.164 C 
ATOM      5  N   UNL     1      -1.919   2.551  -1.095  0.00  0.00    -0.299 N 
ATOM      6  C   UNL     1      -1.550   2.930  -2.353  0.00  0.00    +0.071 A 
ATOM      7  C   UNL     1      -0.450   3.621  -2.846  0.00  0.00    +0.028 A 
ATOM      8  C   UNL     1      -0.399   3.832  -4.215  0.00  0.00    +0.002 A 
ATOM      9  C   UNL     1      -1.394   3.379  -5.065  0.00  0.00    +0.002 A 
ATOM     10  C   UNL     1      -2.498   2.690  -4.599  0.00  0.00    +0.030 A 
ATOM     11  C   UNL     1      -2.571   2.465  -3.219  0.00  0.00    +0.091 A 
ATOM     12  N   UNL     1      -3.491   1.841  -2.458  0.00  0.00    -0.214 NA
ATOM     13  C   UNL     1      -3.121   1.886  -1.206  0.00  0.00    +0.202 A 
ATOM     14  N   UNL     1      -3.772   1.373  -0.095  0.00  0.00    -0.288 N 
ATOM     15  H   UNL     1      -4.511   0.751  -0.187  0.00  0.00    +0.155 HD
ENDROOT
BRANCH   4  16
ATOM     16  C   UNL     1      -0.026   1.868   0.258  0.00  0.00    +0.017 A 
ATOM     17  C   UNL     1       1.278   2.211   0.394  0.00  0.00    +0.013 A 
ATOM     18  C   UNL     1       2.233   1.212   0.434  0.00  0.00    +0.008 A 
ATOM     19  C   UNL     1       1.837  -0.080   0.336  0.00  0.00    +0.045 A 
ATOM     20  S   UNL     1       0.067   0.086   0.182  0.00  0.00    -0.099 S 
ENDBRANCH   4  16
BRANCH   3  21
ATOM     21  C   UNL     1      -1.810   2.816   2.626  0.00  0.00    +0.244 C 
ATOM     22  O   UNL     1      -2.590   2.656   3.547  0.00  0.00    -0.270 OA
ATOM     23  N   UNL     1      -0.600   3.363   2.854  0.00  0.00    -0.315 N 
ATOM     24  C   UNL     1      -0.224   3.767   4.211  0.00  0.00    +0.128 C 
ATOM     25  H   UNL     1       0.021   3.490   2.120  0.00  0.00    +0.149 HD
ENDBRANCH   3  21
TORSDOF 2
