REMARK  Name = ZINC36985165
REMARK  6 active torsions:
REMARK  status: ('A' for Active; 'I' for Inactive)
REMARK    1  A    between atoms: C_1  and  C_2
REMARK    2  A    between atoms: C_6  and  O_8
REMARK    3  A    between atoms: O_8  and  C_9
REMARK    4  A    between atoms: C_12  and  N_17
REMARK    5  A    between atoms: C_14  and  C_15
REMARK    6  A    between atoms: C_15  and  O_16
REMARK                            x       y       z     vdW  Elec       q    Type
REMARK                         _______ _______ _______ _____ _____    ______ ____
ROOT
ATOM      1  C   UNL     1       0.151  -2.065   3.514  0.00  0.00    +0.134 A 
ATOM      2  C   UNL     1       0.126  -0.677   3.481  0.00  0.00    +0.049 A 
ATOM      3  C   UNL     1       0.228   0.042   4.655  0.00  0.00    +0.036 A 
ATOM      4  C   UNL     1       0.357  -0.619   5.863  0.00  0.00    +0.127 A 
ATOM      5  C   UNL     1       0.383  -2.001   5.899  0.00  0.00    +0.042 A 
ATOM      6  C   UNL     1       0.274  -2.725   4.728  0.00  0.00    +0.022 A 
ENDROOT
BRANCH   4   7
ATOM      7  N   UNL     1       0.468   0.155   7.120  0.00  0.00    +0.056 N 
ATOM      8  O   UNL     1       0.445   1.363   7.090  0.00  0.00    -0.126 OA
ATOM      9  O   UNL     1       0.580  -0.421   8.177  0.00  0.00    -0.126 OA
ENDBRANCH   4   7
BRANCH   1  10
ATOM     10  O   UNL     1       0.050  -2.775   2.360  0.00  0.00    -0.454 OA
BRANCH  10  16
ATOM     11  C   UNL     1      -2.459  -0.822  -1.343  0.00  0.00    +0.044 C 
ATOM     12  C   UNL     1      -1.156  -1.119  -0.647  0.00  0.00    -0.047 A 
ATOM     13  C   UNL     1       0.036  -0.692  -1.202  0.00  0.00    +0.005 A 
ATOM     14  C   UNL     1       1.234  -0.963  -0.567  0.00  0.00    +0.024 A 
ATOM     15  C   UNL     1       1.242  -1.660   0.627  0.00  0.00    +0.083 A 
ATOM     16  C   UNL     1       0.046  -2.089   1.187  0.00  0.00    +0.147 A 
ATOM     17  C   UNL     1      -1.155  -1.811   0.548  0.00  0.00    +0.051 A 
ATOM     18 CL   UNL     1       2.746  -2.000   1.424  0.00  0.00    -0.080 Cl
ENDBRANCH  10  16
ENDBRANCH   1  10
BRANCH   6  19
ATOM     19  C   UNL     1       0.296  -4.231   4.768  0.00  0.00    +0.194 C 
BRANCH  19  20
ATOM     20  O   UNL     1       0.430  -4.670   6.121  0.00  0.00    -0.390 OA
ATOM     21  H   UNL     1       0.451  -5.631   6.223  0.00  0.00    +0.210 HD
ENDBRANCH  19  20
ENDBRANCH   6  19
TORSDOF 5
