REMARK  Name = ZINC64120667
REMARK  3 active torsions:
REMARK  status: ('A' for Active; 'I' for Inactive)
REMARK    1  A    between atoms: C_1  and  C_2
REMARK    2  A    between atoms: C_16  and  C_18
REMARK    3  A    between atoms: C_24  and  C_30
REMARK                            x       y       z     vdW  Elec       q    Type
REMARK                         _______ _______ _______ _____ _____    ______ ____
ROOT
ATOM      1  C   UNL     1      -0.533   1.477   0.258  0.00  0.00    +0.044 C 
ATOM      2  C   UNL     1      -0.475  -0.028   0.234  0.00  0.00    -0.050 A 
ATOM      3  C   UNL     1      -0.553  -0.694  -0.997  0.00  0.00    +0.005 A 
ATOM      4  C   UNL     1      -0.510  -2.039  -1.101  0.00  0.00    +0.026 A 
ATOM      5  C   UNL     1      -0.382  -2.848   0.061  0.00  0.00    +0.043 A 
ATOM      6  N   UNL     1      -0.299  -4.151   0.213  0.00  0.00    -0.377 N 
ATOM      7  C   UNL     1      -0.257  -4.449   1.642  0.00  0.00    +0.109 C 
ATOM      8  C   UNL     1       0.987  -5.257   2.025  0.00  0.00    +0.048 C 
ATOM      9  C   UNL     1       1.095  -5.301   3.553  0.00  0.00    +0.111 C 
ATOM     10  N   UNL     1       1.203  -3.946   4.105  0.00  0.00    -0.293 N 
ATOM     11  C   UNL     1       0.136  -2.965   3.809  0.00  0.00    +0.141 C 
ATOM     12  C   UNL     1      -0.163  -3.099   2.332  0.00  0.00    -0.021 C 
ATOM     13  C   UNL     1      -0.290  -2.168   1.377  0.00  0.00    +0.001 A 
ATOM     14  C   UNL     1      -0.343  -0.701   1.399  0.00  0.00    +0.013 A 
ATOM     15  C   UNL     1       2.257  -3.601   4.871  0.00  0.00    +0.253 C 
ATOM     16  O   UNL     1       3.082  -4.439   5.184  0.00  0.00    -0.270 OA
ATOM     17  H   UNL     1      -0.270  -4.804  -0.504  0.00  0.00    +0.160 HD
ENDROOT
BRANCH  15  18
ATOM     18  C   UNL     1       2.410  -2.214   5.327  0.00  0.00    +0.112 C 
ATOM     19  C   UNL     1       1.684  -1.773   6.410  0.00  0.00    +0.087 C 
ATOM     20  N   UNL     1       1.777  -0.500   6.846  0.00  0.00    -0.327 N 
ATOM     21  C   UNL     1       2.638   0.448   6.132  0.00  0.00    +0.190 C 
ATOM     22  C   UNL     1       3.549   1.102   7.136  0.00  0.00    +0.018 C 
ATOM     23  C   UNL     1       4.684   1.673   6.735  0.00  0.00    -0.050 C 
ATOM     24  C   UNL     1       5.047   1.668   5.310  0.00  0.00    +0.018 C 
ATOM     25  C   UNL     1       4.439   0.789   4.490  0.00  0.00    +0.080 C 
ATOM     26  N   UNL     1       3.477  -0.049   5.035  0.00  0.00    -0.251 N 
ATOM     27  C   UNL     1       3.339  -1.321   4.623  0.00  0.00    +0.258 C 
ATOM     28  O   UNL     1       3.970  -1.726   3.665  0.00  0.00    -0.269 OA
ATOM     29  C   UNL     1       5.597   2.323   7.742  0.00  0.00    +0.043 C 
ATOM     30  H   UNL     1       1.278  -0.213   7.627  0.00  0.00    +0.148 HD
ENDBRANCH  15  18
TORSDOF 1
