REMARK  Name = ZINC13138892
REMARK  8 active torsions:
REMARK  status: ('A' for Active; 'I' for Inactive)
REMARK    1  A    between atoms: C_6  and  S_7
REMARK    2  A    between atoms: S_7  and  N_10
REMARK    3  A    between atoms: C_12  and  O_34
REMARK    4  A    between atoms: C_15  and  C_17
REMARK    5  A    between atoms: C_17  and  O_19
REMARK    6  A    between atoms: O_19  and  C_20
REMARK    7  A    between atoms: C_20  and  C_21
REMARK    8  A    between atoms: C_21  and  C_23
REMARK                            x       y       z     vdW  Elec       q    Type
REMARK                         _______ _______ _______ _____ _____    ______ ____
ROOT
ATOM      1  C   UNL     1       0.642   3.163  -3.148  0.00  0.00    +0.327 C 
ATOM      2  O   UNL     1       1.552   3.956  -3.084  0.00  0.00    -0.249 OA
ENDROOT
BRANCH   1   7
ATOM      3  N   UNL     1       1.840   1.942  -1.413  0.00  0.00    -0.160 NA
ATOM      4  C   UNL     1       1.421   2.000  -0.001  0.00  0.00    +0.141 C 
ATOM      5  C   UNL     1      -0.017   1.425   0.010  0.00  0.00    +0.132 C 
ATOM      6  C   UNL     1      -0.585   1.981  -1.323  0.00  0.00    +0.064 C 
ATOM      7  C   UNL     1       0.640   1.945  -2.262  0.00  0.00    +0.191 C 
BRANCH   3   8
ATOM      8  S   UNL     1       3.404   1.882  -1.954  0.00  0.00    +0.062 S 
ATOM      9  O   UNL     1       3.394   2.389  -3.281  0.00  0.00    -0.153 OA
ATOM     10  O   UNL     1       4.210   2.446  -0.929  0.00  0.00    -0.153 OA
BRANCH   8  16
ATOM     11  C   UNL     1       4.425  -0.456  -0.983  0.00  0.00    +0.030 A 
ATOM     12  C   UNL     1       4.771  -1.791  -1.070  0.00  0.00    +0.022 A 
ATOM     13  C   UNL     1       4.554  -2.487  -2.246  0.00  0.00    +0.041 A 
ATOM     14  C   UNL     1       3.986  -1.846  -3.333  0.00  0.00    +0.022 A 
ATOM     15  C   UNL     1       3.635  -0.513  -3.243  0.00  0.00    +0.030 A 
ATOM     16  C   UNL     1       3.852   0.182  -2.068  0.00  0.00    +0.106 A 
ATOM     17 CL   UNL     1       4.994  -4.162  -2.358  0.00  0.00    -0.084 Cl
ENDBRANCH   8  16
ENDBRANCH   3   8
BRANCH   5  18
ATOM     18  O   UNL     1       0.002  -0.004   0.002  0.00  0.00    -0.390 OA
ATOM     19  H   UNL     1       0.437  -0.396   0.772  0.00  0.00    +0.210 HD
ENDBRANCH   5  18
ENDBRANCH   1   7
BRANCH   1  20
ATOM     20  O   UNL     1      -0.367   3.369  -4.009  0.00  0.00    -0.455 OA
BRANCH  20  21
ATOM     21  C   UNL     1      -0.299   4.563  -4.832  0.00  0.00    +0.311 C 
BRANCH  21  22
ATOM     22  C   UNL     1      -1.509   4.625  -5.729  0.00  0.00    +0.200 C 
ATOM     23  O   UNL     1      -2.345   3.748  -5.680  0.00  0.00    -0.288 OA
BRANCH  22  24
ATOM     24  C   UNL     1      -1.674   5.747  -6.663  0.00  0.00    +0.023 A 
ATOM     25  C   UNL     1      -0.712   6.763  -6.716  0.00  0.00    +0.015 A 
ATOM     26  C   UNL     1      -0.864   7.811  -7.596  0.00  0.00    +0.048 A 
ATOM     27  C   UNL     1      -1.976   7.870  -8.424  0.00  0.00    +0.142 A 
ATOM     28  C   UNL     1      -2.944   6.863  -8.372  0.00  0.00    +0.076 A 
ATOM     29  C   UNL     1      -2.797   5.805  -7.497  0.00  0.00    +0.038 A 
ATOM     30  N   UNL     1      -4.061   6.942  -9.216  0.00  0.00    -0.280 N 
ATOM     31  C   UNL     1      -4.030   7.793 -10.264  0.00  0.00    +0.255 C 
ATOM     32  O   UNL     1      -4.995   7.900 -10.991  0.00  0.00    -0.272 OA
ATOM     33  C   UNL     1      -2.790   8.610 -10.527  0.00  0.00    +0.325 C 
ATOM     34  O   UNL     1      -2.136   8.903  -9.290  0.00  0.00    -0.481 OA
ATOM     35  H   UNL     1      -4.844   6.393  -9.050  0.00  0.00    +0.155 HD
ENDBRANCH  22  24
ENDBRANCH  21  22
ENDBRANCH  20  21
ENDBRANCH   1  20
TORSDOF 8
