REMARK  Name = ZINC66353770
REMARK  7 active torsions:
REMARK  status: ('A' for Active; 'I' for Inactive)
REMARK    1  A    between atoms: C_1  and  C_2
REMARK    2  A    between atoms: C_2  and  C_4
REMARK    3  A    between atoms: C_2  and  N_19
REMARK    4  A    between atoms: C_4  and  C_5
REMARK    5  A    between atoms: C_5  and  N_7
REMARK    6  A    between atoms: N_16  and  C_17
REMARK    7  A    between atoms: C_20  and  C_22
REMARK                            x       y       z     vdW  Elec       q    Type
REMARK                         _______ _______ _______ _____ _____    ______ ____
ROOT
ATOM      1  C   UNL     1       0.858  -2.011   1.179  0.00  0.00    +0.241 C 
ATOM      2  O   UNL     1       0.394  -2.617   0.233  0.00  0.00    -0.274 OA
ENDROOT
BRANCH   1   3
ATOM      3  N   UNL     1       1.482  -2.672   2.149  0.00  0.00    -0.147 NA
ATOM      4  C   UNL     1       1.509  -4.002   2.138  0.00  0.00    +0.201 A 
ATOM      5  N   UNL     1       1.037  -4.790   1.137  0.00  0.00    -0.326 N 
ATOM      6  C   UNL     1       1.243  -6.119   1.493  0.00  0.00    +0.067 A 
ATOM      7  C   UNL     1       0.963  -7.323   0.863  0.00  0.00    +0.047 A 
ATOM      8  C   UNL     1       1.292  -8.515   1.478  0.00  0.00    +0.043 A 
ATOM      9  C   UNL     1       1.901  -8.513   2.723  0.00  0.00    +0.022 A 
ATOM     10  C   UNL     1       2.184  -7.320   3.358  0.00  0.00    +0.029 A 
ATOM     11  C   UNL     1       1.857  -6.117   2.747  0.00  0.00    +0.068 A 
ATOM     12  N   UNL     1       2.016  -4.787   3.124  0.00  0.00    -0.315 N 
ATOM     13  C   UNL     1       2.623  -4.315   4.371  0.00  0.00    +0.152 C 
ATOM     14 CL   UNL     1       0.941 -10.021   0.690  0.00  0.00    -0.083 Cl
ATOM     15  H   UNL     1       0.627  -4.479   0.314  0.00  0.00    +0.169 HD
ENDBRANCH   1   3
BRANCH   1  16
ATOM     16  C   UNL     1       0.726  -0.512   1.253  0.00  0.00    +0.120 C 
BRANCH  16  18
ATOM     17  C   UNL     1      -0.054   1.525   0.033  0.00  0.00    +0.028 C 
ATOM     18  C   UNL     1      -0.028  -0.005   0.022  0.00  0.00    +0.079 C 
BRANCH  18  19
ATOM     19  N   UNL     1      -1.401  -0.517   0.045  0.00  0.00    -0.312 N 
ATOM     20  C   UNL     1      -2.090  -0.649  -1.105  0.00  0.00    +0.216 C 
ATOM     21  O   UNL     1      -1.575  -0.344  -2.160  0.00  0.00    -0.276 OA
ATOM     22  H   UNL     1      -1.813  -0.761   0.888  0.00  0.00    +0.149 HD
BRANCH  20  23
ATOM     23  C   UNL     1      -3.502  -1.175  -1.081  0.00  0.00    +0.075 C 
ATOM     24  C   UNL     1      -3.512  -2.582  -0.482  0.00  0.00    +0.013 C 
ATOM     25  C   UNL     1      -4.945  -3.117  -0.457  0.00  0.00    +0.001 C 
ATOM     26  C   UNL     1      -5.495  -3.167  -1.884  0.00  0.00    +0.000 C 
ATOM     27  C   UNL     1      -5.486  -1.759  -2.484  0.00  0.00    +0.001 C 
ATOM     28  C   UNL     1      -4.052  -1.225  -2.508  0.00  0.00    +0.013 C 
ENDBRANCH  20  23
ENDBRANCH  18  19
ENDBRANCH  16  18
ENDBRANCH   1  16
TORSDOF 5
