REMARK  Name = ZINC54498037
REMARK  6 active torsions:
REMARK  status: ('A' for Active; 'I' for Inactive)
REMARK    1  A    between atoms: C_1  and  C_2
REMARK    2  A    between atoms: C_2  and  C_3
REMARK    3  A    between atoms: C_3  and  N_4
REMARK    4  A    between atoms: C_8  and  C_9
REMARK    5  A    between atoms: C_12  and  N_16
REMARK    6  A    between atoms: C_14  and  C_15
REMARK                            x       y       z     vdW  Elec       q    Type
REMARK                         _______ _______ _______ _____ _____    ______ ____
ROOT
ATOM      1  C   UNL     1      -1.004  -2.565   2.519  0.00  0.00    +0.022 A 
ATOM      2  C   UNL     1      -1.078  -1.240   2.952  0.00  0.00    +0.013 A 
ATOM      3  C   UNL     1      -0.870  -0.937   4.280  0.00  0.00    +0.023 A 
ATOM      4  C   UNL     1      -0.587  -1.951   5.189  0.00  0.00    +0.025 A 
ATOM      5  C   UNL     1      -0.512  -3.272   4.761  0.00  0.00    +0.026 A 
ATOM      6  C   UNL     1      -0.726  -3.581   3.435  0.00  0.00    -0.038 A 
ATOM      7  C   UNL     1      -0.652  -5.014   2.973  0.00  0.00    +0.044 C 
ENDROOT
BRANCH   1  12
ATOM      8  N   UNL     1      -0.635  -2.289   0.018  0.00  0.00    -0.313 N 
ATOM      9  C   UNL     1      -1.135  -2.919  -1.081  0.00  0.00    +0.225 A 
ATOM     10  N   UNL     1      -1.972  -3.830  -0.663  0.00  0.00    -0.138 NA
ATOM     11  N   UNL     1      -2.034  -3.817   0.621  0.00  0.00    -0.129 NA
ATOM     12  C   UNL     1      -1.227  -2.893   1.095  0.00  0.00    +0.164 A 
BRANCH   8  13
ATOM     13  C   UNL     1       0.341  -1.197   0.043  0.00  0.00    +0.124 C 
BRANCH  13  15
ATOM     14  C   UNL     1       2.750  -0.620   0.363  0.00  0.00    +0.005 C 
ATOM     15  C   UNL     1       1.732  -1.761   0.337  0.00  0.00    +0.018 C 
ENDBRANCH  13  15
ENDBRANCH   8  13
ENDBRANCH   1  12
BRANCH   4  16
ATOM     16  N   UNL     1      -0.376  -1.642   6.533  0.00  0.00    -0.358 N 
ATOM     17  H   UNL     1      -0.427  -0.721   6.832  0.00  0.00    +0.142 HD
ATOM     18  H   UNL     1      -0.178  -2.348   7.168  0.00  0.00    +0.142 HD
ENDBRANCH   4  16
TORSDOF 4
