REMARK  Name = ZINC46191883
REMARK  4 active torsions:
REMARK  status: ('A' for Active; 'I' for Inactive)
REMARK    1  A    between atoms: C_1  and  C_2
REMARK    2  A    between atoms: C_3  and  C_4
REMARK    3  A    between atoms: C_5  and  C_6
REMARK    4  A    between atoms: N_8  and  C_9
REMARK                            x       y       z     vdW  Elec       q    Type
REMARK                         _______ _______ _______ _____ _____    ______ ____
ROOT
ATOM      1  C   UNL     1       2.212  -4.203   4.227  0.00  0.00    +0.074 C 
ATOM      2  C   UNL     1       0.829  -4.734   4.611  0.00  0.00    +0.027 C 
ATOM      3  C   UNL     1       0.851  -6.264   4.603  0.00  0.00    +0.067 C 
ATOM      4  C   UNL     1       1.892  -6.763   5.607  0.00  0.00    +0.170 C 
ATOM      5  C   UNL     1       3.275  -6.229   5.229  0.00  0.00    +0.067 C 
ATOM      6  C   UNL     1       3.249  -4.699   5.236  0.00  0.00    +0.027 C 
ATOM      7  O   UNL     1       1.545  -6.301   6.923  0.00  0.00    -0.346 OA
ATOM      8  C   UNL     1       0.811  -7.399   7.519  0.00  0.00    +0.191 C 
ATOM      9  C   UNL     1       1.557  -8.627   6.939  0.00  0.00    +0.191 C 
ATOM     10  O   UNL     1       1.912  -8.196   5.609  0.00  0.00    -0.346 OA
ENDROOT
BRANCH   1  13
ATOM     11  C   UNL     1       1.770  -2.067   3.139  0.00  0.00    +0.237 C 
ATOM     12  O   UNL     1       1.409  -2.679   2.151  0.00  0.00    -0.271 OA
ATOM     13  N   UNL     1       2.189  -2.738   4.231  0.00  0.00    -0.309 N 
ATOM     14  H   UNL     1       2.477  -2.251   5.019  0.00  0.00    +0.149 HD
BRANCH  11  16
ATOM     15  C   UNL     1       1.431   0.069   2.015  0.00  0.00    +0.005 C 
ATOM     16  C   UNL     1       1.748  -0.605   3.143  0.00  0.00    +0.067 C 
BRANCH  15  19
ATOM     17  C   UNL     1       0.506   1.457  -0.258  0.00  0.00    +0.035 C 
ATOM     18  C   UNL     1       0.843  -0.010  -0.335  0.00  0.00    -0.030 C 
ATOM     19  C   UNL     1       1.279  -0.651   0.750  0.00  0.00    -0.004 C 
ENDBRANCH  15  19
ENDBRANCH  11  16
ENDBRANCH   1  13
TORSDOF 3
