REMARK  Name = ZINC22762123
REMARK  10 active torsions:
REMARK  status: ('A' for Active; 'I' for Inactive)
REMARK    1  A    between atoms: C_1  and  C_2
REMARK    2  A    between atoms: C_5  and  N_9
REMARK    3  A    between atoms: C_6  and  C_8
REMARK    4  A    between atoms: C_13  and  C_15
REMARK    5  A    between atoms: C_15  and  C_17
REMARK    6  A    between atoms: C_15  and  S_18
REMARK    7  A    between atoms: S_18  and  C_19
REMARK    8  A    between atoms: C_22  and  S_24
REMARK    9  A    between atoms: S_24  and  C_25
REMARK   10  A    between atoms: C_25  and  C_26
REMARK                            x       y       z     vdW  Elec       q    Type
REMARK                         _______ _______ _______ _____ _____    ______ ____
ROOT
ATOM      1  N   UNL     1      -1.237   2.069   0.019  0.00  0.00    -0.269 N 
ATOM      2  C   UNL     1      -2.394   1.385  -0.081  0.00  0.00    +0.310 C 
ATOM      3  O   UNL     1      -2.383   0.170  -0.088  0.00  0.00    -0.252 OA
ATOM      4  N   UNL     1      -3.563   2.049  -0.173  0.00  0.00    -0.239 N 
ATOM      5  C   UNL     1      -4.721   1.365  -0.273  0.00  0.00    +0.233 C 
ATOM      6  O   UNL     1      -4.710   0.153  -0.280  0.00  0.00    -0.274 OA
ATOM      7  H   UNL     1      -1.252   3.166   0.100  0.00  0.00    +0.156 HD
ATOM      8  H   UNL     1      -3.574   3.149  -0.167  0.00  0.00    +0.159 HD
ENDROOT
BRANCH   1  13
ATOM      9  C   UNL     1       3.704  -0.718   0.008  0.00  0.00    +0.044 C 
ATOM     10  C   UNL     1       2.392   0.023   0.013  0.00  0.00    -0.050 A 
ATOM     11  C   UNL     1       1.282  -0.542   0.613  0.00  0.00    +0.005 A 
ATOM     12  C   UNL     1       0.078   0.134   0.619  0.00  0.00    +0.024 A 
ATOM     13  C   UNL     1      -0.017   1.384   0.020  0.00  0.00    +0.038 A 
ATOM     14  C   UNL     1       1.099   1.949  -0.581  0.00  0.00    -0.029 A 
ATOM     15  C   UNL     1       2.300   1.267  -0.584  0.00  0.00    +0.008 A 
ATOM     16  C   UNL     1       1.000   3.305  -1.232  0.00  0.00    +0.045 C 
ENDBRANCH   1  13
BRANCH   5  17
ATOM     17  C   UNL     1      -6.028   2.108  -0.377  0.00  0.00    +0.136 C 
ATOM     18  C   UNL     1      -6.465   2.568   1.016  0.00  0.00    +0.029 C 
BRANCH  17  19
ATOM     19  S   UNL     1      -7.293   1.011  -1.075  0.00  0.00    -0.084 S 
BRANCH  19  20
ATOM     20  C   UNL     1      -8.701   2.052  -1.268  0.00  0.00    +0.160 A 
ATOM     21  N   UNL     1      -8.841   3.331  -0.978  0.00  0.00    -0.134 NA
ATOM     22  N   UNL     1     -10.041   3.960  -1.216  0.00  0.00    -0.134 NA
ATOM     23  C   UNL     1     -11.050   3.278  -1.723  0.00  0.00    +0.160 A 
ATOM     24  S   UNL     1     -10.323   1.656  -1.903  0.00  0.00    -0.033 S 
BRANCH  23  25
ATOM     25  S   UNL     1     -12.679   3.821  -2.118  0.00  0.00    -0.088 S 
BRANCH  25  26
ATOM     26  C   UNL     1     -12.678   5.578  -1.664  0.00  0.00    +0.171 C 
BRANCH  26  27
ATOM     27  C   UNL     1     -14.031   6.173  -1.955  0.00  0.00    +0.221 C 
ATOM     28  O   UNL     1     -14.910   5.480  -2.423  0.00  0.00    -0.275 OA
ATOM     29  N   UNL     1     -14.265   7.474  -1.696  0.00  0.00    -0.329 N 
ATOM     30  H   UNL     1     -15.253   7.909  -1.908  0.00  0.00    +0.145 HD
ATOM     31  H   UNL     1     -13.468   8.102  -1.271  0.00  0.00    +0.145 HD
ENDBRANCH  26  27
ENDBRANCH  25  26
ENDBRANCH  23  25
ENDBRANCH  19  20
ENDBRANCH  17  19
ENDBRANCH   5  17
TORSDOF 7
