REMARK  Name = ZINC61593876
REMARK  6 active torsions:
REMARK  status: ('A' for Active; 'I' for Inactive)
REMARK    1  A    between atoms: C_1  and  C_2
REMARK    2  A    between atoms: C_2  and  C_3
REMARK    3  A    between atoms: C_2  and  N_4
REMARK    4  A    between atoms: C_10  and  S_11
REMARK    5  A    between atoms: S_11  and  C_12
REMARK    6  A    between atoms: C_13  and  C_19
REMARK                            x       y       z     vdW  Elec       q    Type
REMARK                         _______ _______ _______ _____ _____    ______ ____
ROOT
ATOM      1  S   UNL     1      -1.145  -1.890  -2.412  0.00  0.00    -0.029 S 
ENDROOT
BRANCH   1   8
ATOM      2  N   UNL     1      -1.372  -0.511   0.012  0.00  0.00    -0.268 N 
ATOM      3  C   UNL     1      -2.295  -0.272   0.966  0.00  0.00    +0.345 A 
ATOM      4  O   UNL     1      -2.135   0.402   1.968  0.00  0.00    -0.245 OA
ATOM      5  N   UNL     1      -3.426  -0.914   0.608  0.00  0.00    -0.226 N 
ATOM      6  H   UNL     1      -4.261  -0.923   1.102  0.00  0.00    +0.194 HD
ATOM      7  N   UNL     1      -3.173  -1.563  -0.608  0.00  0.00    -0.144 NA
ATOM      8  C   UNL     1      -1.944  -1.308  -0.953  0.00  0.00    +0.198 A 
BRANCH   2  10
ATOM      9  C   UNL     1      -0.019   1.526   0.010  0.00  0.00    +0.031 C 
ATOM     10  C   UNL     1       0.002  -0.004   0.002  0.00  0.00    +0.088 C 
ATOM     11  C   UNL     1       0.742  -0.511   1.242  0.00  0.00    +0.031 C 
ENDBRANCH   2  10
ENDBRANCH   1   8
BRANCH   1  12
ATOM     12  C   UNL     1      -2.383  -2.845  -3.224  0.00  0.00    +0.118 A 
ATOM     13  C   UNL     1      -2.089  -3.479  -4.446  0.00  0.00    +0.096 A 
ATOM     14  C   UNL     1      -3.091  -4.233  -5.072  0.00  0.00    +0.034 A 
ATOM     15  C   UNL     1      -4.328  -4.319  -4.460  0.00  0.00    +0.037 A 
ATOM     16  C   UNL     1      -4.541  -3.666  -3.257  0.00  0.00    +0.127 A 
ATOM     17  N   UNL     1      -3.585  -2.966  -2.680  0.00  0.00    -0.246 NA
ATOM     18 BR   UNL     1      -5.718  -5.322  -5.258  0.00  0.00    -0.049 Br
BRANCH  13  19
ATOM     19  C   UNL     1      -0.756  -3.354  -5.053  0.00  0.00    +0.389 C 
ATOM     20  O   UNL     1      -0.512  -3.910  -6.115  0.00  0.00    -0.240 OA
ATOM     21  O   UNL     1       0.110  -2.692  -4.496  0.00  0.00    -0.240 OA
ENDBRANCH  13  19
ENDBRANCH   1  12
TORSDOF 4
