REMARK  Name = ZINC39673151
REMARK  8 active torsions:
REMARK  status: ('A' for Active; 'I' for Inactive)
REMARK    1  A    between atoms: C_1  and  C_2
REMARK    2  A    between atoms: C_5  and  C_9
REMARK    3  A    between atoms: C_7  and  C_8
REMARK    4  A    between atoms: C_9  and  N_10
REMARK    5  A    between atoms: C_11  and  C_13
REMARK    6  A    between atoms: C_24  and  C_26
REMARK    7  A    between atoms: C_30  and  O_31
REMARK    8  A    between atoms: O_31  and  C_32
REMARK                            x       y       z     vdW  Elec       q    Type
REMARK                         _______ _______ _______ _____ _____    ______ ____
ROOT
ATOM      1  C   UNL     1       3.155  -6.545  -0.053  0.00  0.00    +0.100 C 
ATOM      2  C   UNL     1       3.915  -6.002   1.178  0.00  0.00    +0.121 C 
ATOM      3  N   UNL     1       3.810  -7.080   2.189  0.00  0.00    -0.296 N 
ATOM      4  C   UNL     1       3.969  -8.332   1.411  0.00  0.00    +0.115 C 
ATOM      5  C   UNL     1       3.196  -8.075   0.102  0.00  0.00    -0.004 C 
ATOM      6  C   UNL     1       3.930  -8.706  -1.077  0.00  0.00    -0.010 C 
ATOM      7  C   UNL     1       3.907 -10.230  -0.931  0.00  0.00    -0.082 C 
ATOM      8  N   UNL     1       2.517 -10.698  -0.887  0.00  0.00    +0.379 N 
ATOM      9  C   UNL     1       1.845 -10.161   0.302  0.00  0.00    -0.082 C 
ATOM     10  C   UNL     1       1.780  -8.634   0.208  0.00  0.00    -0.010 C 
ATOM     11  C   UNL     1       3.615  -6.952   3.517  0.00  0.00    +0.251 C 
ATOM     12  O   UNL     1       3.405  -5.854   3.997  0.00  0.00    -0.270 OA
ATOM     13  H   UNL     1       2.032 -10.387  -1.715  0.00  0.00    -0.086 HD
ATOM     14  H   UNL     1       2.503 -11.707  -0.852  0.00  0.00    -0.086 HD
ENDROOT
BRANCH  11  15
ATOM     15  C   UNL     1       3.656  -8.139   4.384  0.00  0.00    +0.087 A 
ATOM     16  C   UNL     1       4.511  -9.189   4.129  0.00  0.00    +0.063 A 
ATOM     17  S   UNL     1       4.201 -10.283   5.363  0.00  0.00    -0.081 S 
ATOM     18  C   UNL     1       2.940  -9.400   6.256  0.00  0.00    +0.120 A 
ATOM     19  C   UNL     1       2.807  -8.255   5.547  0.00  0.00    +0.158 A 
ATOM     20 CL   UNL     1       2.092  -9.885   7.691  0.00  0.00    -0.072 Cl
BRANCH  19  21
ATOM     21  O   UNL     1       1.927  -7.280   5.904  0.00  0.00    -0.492 OA
ATOM     22  C   UNL     1       0.608  -7.366   5.362  0.00  0.00    +0.277 C 
ENDBRANCH  19  21
ENDBRANCH  11  15
BRANCH   1  24
ATOM     23  N   UNL     1       1.080  -5.861  -1.213  0.00  0.00    -0.311 N 
ATOM     24  C   UNL     1       1.730  -6.056  -0.048  0.00  0.00    +0.218 C 
ATOM     25  O   UNL     1       1.167  -5.837   1.004  0.00  0.00    -0.275 OA
ATOM     26  H   UNL     1       1.530  -6.036  -2.054  0.00  0.00    +0.149 HD
BRANCH  23  27
ATOM     27  C   UNL     1      -0.305  -5.385  -1.208  0.00  0.00    +0.139 C 
BRANCH  27  32
ATOM     28  C   UNL     1      -2.187  -4.872  -6.648  0.00  0.00    +0.044 C 
ATOM     29  C   UNL     1      -1.696  -5.006  -5.229  0.00  0.00    -0.048 A 
ATOM     30  C   UNL     1      -1.859  -6.199  -4.551  0.00  0.00    +0.004 A 
ATOM     31  C   UNL     1      -1.409  -6.322  -3.250  0.00  0.00    +0.005 A 
ATOM     32  C   UNL     1      -0.795  -5.251  -2.627  0.00  0.00    -0.030 A 
ATOM     33  C   UNL     1      -0.631  -4.058  -3.305  0.00  0.00    +0.008 A 
ATOM     34  C   UNL     1      -1.078  -3.937  -4.608  0.00  0.00    -0.047 A 
ATOM     35  C   UNL     1      -0.894  -2.638  -5.349  0.00  0.00    +0.044 C 
ENDBRANCH  27  32
ENDBRANCH  23  27
ENDBRANCH   1  24
TORSDOF 5
