REMARK  Name = ZINC48705681
REMARK  9 active torsions:
REMARK  status: ('A' for Active; 'I' for Inactive)
REMARK    1  A    between atoms: C_1  and  N_2
REMARK    2  A    between atoms: C_4  and  C_7
REMARK    3  A    between atoms: C_7  and  C_8
REMARK    4  A    between atoms: C_8  and  C_9
REMARK    5  A    between atoms: C_9  and  S_10
REMARK    6  A    between atoms: S_10  and  C_11
REMARK    7  A    between atoms: C_12  and  C_19
REMARK    8  A    between atoms: C_13  and  N_18
REMARK    9  A    between atoms: C_15  and  N_17
REMARK                            x       y       z     vdW  Elec       q    Type
REMARK                         _______ _______ _______ _____ _____    ______ ____
ROOT
ATOM      1  C   UNL     1       3.058  -6.817  -4.161  0.00  0.00    +0.118 A 
ATOM      2  C   UNL     1       4.213  -7.462  -4.639  0.00  0.00    +0.104 A 
ATOM      3  C   UNL     1       4.065  -8.598  -5.462  0.00  0.00    +0.048 A 
ATOM      4  C   UNL     1       2.780  -9.030  -5.764  0.00  0.00    +0.067 A 
ATOM      5  C   UNL     1       1.690  -8.338  -5.251  0.00  0.00    +0.119 A 
ATOM      6  N   UNL     1       1.855  -7.274  -4.475  0.00  0.00    -0.225 NA
ENDROOT
BRANCH   5   7
ATOM      7  N   UNL     1       0.407  -8.768  -5.553  0.00  0.00    -0.343 N 
ATOM      8  H   UNL     1       0.276  -9.546  -6.116  0.00  0.00    +0.144 HD
ATOM      9  H   UNL     1      -0.360  -8.290  -5.199  0.00  0.00    +0.144 HD
ENDBRANCH   5   7
BRANCH   3  10
ATOM     10  N   UNL     1       5.175  -9.266  -5.957  0.00  0.00    -0.357 N 
ATOM     11  H   UNL     1       6.067  -8.954  -5.739  0.00  0.00    +0.142 HD
ATOM     12  H   UNL     1       5.059 -10.046  -6.522  0.00  0.00    +0.142 HD
ENDBRANCH   3  10
BRANCH   2  13
ATOM     13  C   UNL     1       5.514  -6.973  -4.297  0.00  0.00    +0.104 C 
ATOM     14  N   UNL     1       6.547  -6.585  -4.025  0.00  0.00    -0.191 NA
ENDBRANCH   2  13
BRANCH   1  15
ATOM     15  S   UNL     1       3.212  -5.396  -3.131  0.00  0.00    -0.105 S 
BRANCH  15  16
ATOM     16  C   UNL     1       1.497  -4.930  -2.767  0.00  0.00    +0.076 C 
BRANCH  16  17
ATOM     17  C   UNL     1       1.485  -3.692  -1.868  0.00  0.00    +0.016 C 
BRANCH  17  18
ATOM     18  C   UNL     1       0.039  -3.298  -1.561  0.00  0.00    +0.039 C 
BRANCH  18  22
ATOM     19  C   UNL     1      -0.018   1.461   0.010  0.00  0.00    +0.172 C 
ATOM     20  N   UNL     1       0.002  -0.004   0.002  0.00  0.00    -0.274 N 
ATOM     21  C   UNL     1       0.008  -0.792  -1.094  0.00  0.00    +0.111 A 
ATOM     22  C   UNL     1       0.027  -2.079  -0.676  0.00  0.00    -0.010 A 
ATOM     23  C   UNL     1       0.034  -2.078   0.723  0.00  0.00    +0.138 A 
ATOM     24  N   UNL     1       0.025  -0.834   1.130  0.00  0.00    -0.180 NA
ENDBRANCH  18  22
ENDBRANCH  17  18
ENDBRANCH  16  17
ENDBRANCH  15  16
ENDBRANCH   1  15
TORSDOF 8
