REMARK  Name = ZINC08896229
REMARK  4 active torsions:
REMARK  status: ('A' for Active; 'I' for Inactive)
REMARK    1  A    between atoms: C_4  and  C_7
REMARK    2  A    between atoms: C_7  and  C_28
REMARK    3  A    between atoms: N_10  and  N_14
REMARK    4  A    between atoms: C_15  and  C_17
REMARK                            x       y       z     vdW  Elec       q    Type
REMARK                         _______ _______ _______ _____ _____    ______ ____
ROOT
ATOM      1  C   UNL     1       0.002  -0.004   0.002  0.00  0.00    +0.165 C 
ATOM      2  C   UNL     1       0.279  -0.895  -1.193  0.00  0.00    +0.272 C 
ATOM      3  O   UNL     1      -0.480  -1.157  -2.102  0.00  0.00    -0.270 OA
ATOM      4  N   UNL     1       1.543  -1.335  -1.035  0.00  0.00    -0.136 N 
ATOM      5  C   UNL     1       2.097  -0.851   0.082  0.00  0.00    +0.327 C 
ATOM      6  O   UNL     1       3.231  -1.106   0.439  0.00  0.00    -0.251 OA
ATOM      7  N   UNL     1       1.258  -0.049   0.770  0.00  0.00    -0.276 N 
ATOM      8  H   UNL     1       1.444   0.409   1.605  0.00  0.00    +0.152 HD
ENDROOT
BRANCH   1  12
ATOM      9  C   UNL     1      -0.844   3.987  -1.263  0.00  0.00    +0.000 A 
ATOM     10  C   UNL     1       0.095   3.760  -0.274  0.00  0.00    +0.000 A 
ATOM     11  C   UNL     1       0.369   2.468   0.135  0.00  0.00    +0.006 A 
ATOM     12  C   UNL     1      -0.296   1.404  -0.444  0.00  0.00    -0.011 A 
ATOM     13  C   UNL     1      -1.232   1.631  -1.436  0.00  0.00    +0.006 A 
ATOM     14  C   UNL     1      -1.509   2.923  -1.842  0.00  0.00    +0.000 A 
ENDBRANCH   1  12
BRANCH   1  15
ATOM     15  C   UNL     1      -1.139  -0.553   0.820  0.00  0.00    -0.011 A 
ATOM     16  C   UNL     1      -0.998  -0.708   2.186  0.00  0.00    +0.006 A 
ATOM     17  C   UNL     1      -2.046  -1.208   2.936  0.00  0.00    +0.000 A 
ATOM     18  C   UNL     1      -3.232  -1.560   2.319  0.00  0.00    +0.000 A 
ATOM     19  C   UNL     1      -3.371  -1.409   0.952  0.00  0.00    +0.000 A 
ATOM     20  C   UNL     1      -2.324  -0.906   0.202  0.00  0.00    +0.006 A 
ENDBRANCH   1  15
BRANCH   4  21
ATOM     21  N   UNL     1       2.195  -2.192  -1.930  0.00  0.00    -0.221 N 
ATOM     22  C   UNL     1       3.138  -1.707  -2.762  0.00  0.00    +0.274 C 
ATOM     23  O   UNL     1       3.422  -0.528  -2.735  0.00  0.00    -0.270 OA
ATOM     24  H   UNL     1       1.969  -3.135  -1.951  0.00  0.00    +0.174 HD
BRANCH  22  25
ATOM     25  C   UNL     1       3.841  -2.629  -3.725  0.00  0.00    +0.297 C 
ATOM     26  C   UNL     1       4.672  -3.657  -2.945  0.00  0.00    +0.283 C 
ATOM     27  O   UNL     1       5.334  -4.506  -3.887  0.00  0.00    -0.484 OA
ATOM     28  C   UNL     1       5.951  -3.894  -4.935  0.00  0.00    +0.162 A 
ATOM     29  C   UNL     1       6.893  -4.595  -5.674  0.00  0.00    +0.049 A 
ATOM     30  C   UNL     1       7.525  -3.988  -6.743  0.00  0.00    +0.004 A 
ATOM     31  C   UNL     1       7.220  -2.681  -7.078  0.00  0.00    +0.004 A 
ATOM     32  C   UNL     1       6.284  -1.978  -6.345  0.00  0.00    +0.049 A 
ATOM     33  C   UNL     1       5.646  -2.581  -5.271  0.00  0.00    +0.163 A 
ATOM     34  O   UNL     1       4.728  -1.874  -4.556  0.00  0.00    -0.472 OA
ENDBRANCH  22  25
ENDBRANCH   4  21
TORSDOF 4
