REMARK  Name = ZINC40034118
REMARK  9 active torsions:
REMARK  status: ('A' for Active; 'I' for Inactive)
REMARK    1  A    between atoms: C_1  and  C_2
REMARK    2  A    between atoms: C_2  and  C_3
REMARK    3  A    between atoms: C_2  and  C_4
REMARK    4  A    between atoms: C_2  and  C_5
REMARK    5  A    between atoms: C_5  and  C_7
REMARK    6  A    between atoms: C_7  and  S_8
REMARK    7  A    between atoms: S_8  and  C_9
REMARK    8  A    between atoms: C_13  and  C_21
REMARK    9  A    between atoms: N_14  and  C_15
REMARK                            x       y       z     vdW  Elec       q    Type
REMARK                         _______ _______ _______ _____ _____    ______ ____
ROOT
ATOM      1  C   UNL     1       1.705  -3.722  -2.808  0.00  0.00    +0.241 C 
ATOM      2  N   UNL     1       0.378  -4.359  -2.788  0.00  0.00    -0.237 N 
ATOM      3  N   UNL     1       0.549  -5.618  -2.200  0.00  0.00    -0.169 NA
ATOM      4  C   UNL     1       1.797  -5.820  -1.867  0.00  0.00    +0.151 C 
ATOM      5  N   UNL     1       2.598  -4.720  -2.196  0.00  0.00    -0.254 N 
ATOM      6  H   UNL     1      -0.452  -3.980  -3.117  0.00  0.00    +0.171 HD
ENDROOT
BRANCH   4   7
ATOM      7  C   UNL     1       2.273  -6.992  -1.258  0.00  0.00    +0.022 C 
ATOM      8  C   UNL     1       1.554  -8.159  -0.998  0.00  0.00    +0.006 A 
ATOM      9  C   UNL     1       0.213  -8.527  -1.240  0.00  0.00    +0.010 A 
ATOM     10  C   UNL     1      -0.224  -9.759  -0.872  0.00  0.00    +0.001 A 
ATOM     11  C   UNL     1       0.624 -10.682  -0.256  0.00  0.00    +0.002 A 
ATOM     12  C   UNL     1       1.923 -10.396   0.006  0.00  0.00    +0.026 A 
ATOM     13  C   UNL     1       2.452  -9.129  -0.349  0.00  0.00    +0.043 A 
ATOM     14  N   UNL     1       3.658  -8.615  -0.205  0.00  0.00    -0.380 N 
ATOM     15  C   UNL     1       3.674  -7.255  -0.753  0.00  0.00    +0.152 C 
ATOM     16  H   UNL     1       4.417  -9.068   0.196  0.00  0.00    +0.160 HD
ENDBRANCH   4   7
BRANCH   5  17
ATOM     17  C   UNL     1       3.973  -4.592  -1.985  0.00  0.00    +0.038 A 
ATOM     18  C   UNL     1       4.868  -4.953  -2.985  0.00  0.00    +0.023 A 
ATOM     19  C   UNL     1       6.226  -4.825  -2.773  0.00  0.00    +0.002 A 
ATOM     20  C   UNL     1       6.697  -4.338  -1.567  0.00  0.00    +0.000 A 
ATOM     21  C   UNL     1       5.809  -3.979  -0.570  0.00  0.00    +0.002 A 
ATOM     22  C   UNL     1       4.449  -4.099  -0.776  0.00  0.00    +0.023 A 
ENDBRANCH   5  17
BRANCH   1  23
ATOM     23  S   UNL     1       1.692  -2.196  -1.827  0.00  0.00    -0.110 S 
BRANCH  23  24
ATOM     24  C   UNL     1       1.144  -2.735  -0.184  0.00  0.00    +0.147 C 
BRANCH  24  25
ATOM     25  C   UNL     1       1.089  -1.548   0.742  0.00  0.00    +0.148 C 
ATOM     26  O   UNL     1       1.389  -0.451   0.335  0.00  0.00    -0.296 OA
BRANCH  25  28
ATOM     27  C   UNL     1       0.691  -0.377   2.891  0.00  0.00    +0.018 C 
ATOM     28  C   UNL     1       0.660  -1.729   2.175  0.00  0.00    +0.021 C 
ATOM     29  C   UNL     1       1.615  -2.698   2.875  0.00  0.00    +0.018 C 
ATOM     30  C   UNL     1      -0.761  -2.294   2.215  0.00  0.00    +0.018 C 
ENDBRANCH  25  28
ENDBRANCH  24  25
ENDBRANCH  23  24
ENDBRANCH   1  23
TORSDOF 6
