REMARK  Name = ZINC67561008
REMARK  9 active torsions:
REMARK  status: ('A' for Active; 'I' for Inactive)
REMARK    1  A    between atoms: C_1  and  C_2
REMARK    2  A    between atoms: C_4  and  C_7
REMARK    3  A    between atoms: C_7  and  N_8
REMARK    4  A    between atoms: N_11  and  C_12
REMARK    5  A    between atoms: C_15  and  S_18
REMARK    6  A    between atoms: S_18  and  N_21
REMARK    7  A    between atoms: N_21  and  C_22
REMARK    8  A    between atoms: C_22  and  C_23
REMARK    9  A    between atoms: C_22  and  C_24
REMARK                            x       y       z     vdW  Elec       q    Type
REMARK                         _______ _______ _______ _____ _____    ______ ____
ROOT
ATOM      1  C   UNL     1      -3.479  -6.430  -3.112  0.00  0.00    +0.035 A 
ATOM      2  C   UNL     1      -4.129  -7.021  -2.037  0.00  0.00    +0.025 A 
ATOM      3  C   UNL     1      -4.978  -8.090  -2.247  0.00  0.00    +0.030 A 
ATOM      4  C   UNL     1      -5.181  -8.572  -3.527  0.00  0.00    +0.105 A 
ATOM      5  C   UNL     1      -4.535  -7.986  -4.600  0.00  0.00    +0.030 A 
ATOM      6  C   UNL     1      -3.689  -6.913  -4.397  0.00  0.00    +0.025 A 
ENDROOT
BRANCH   1  10
ATOM      7  N   UNL     1      -1.789  -3.269  -3.570  0.00  0.00    -0.293 N 
ATOM      8  C   UNL     1      -2.546  -4.357  -3.814  0.00  0.00    +0.304 C 
ATOM      9  O   UNL     1      -3.164  -4.446  -4.858  0.00  0.00    -0.252 OA
ATOM     10  N   UNL     1      -2.619  -5.346  -2.902  0.00  0.00    -0.269 N 
ATOM     11  H   UNL     1      -1.296  -3.198  -2.737  0.00  0.00    +0.151 HD
ATOM     12  H   UNL     1      -2.074  -5.307  -2.100  0.00  0.00    +0.156 HD
BRANCH   7  13
ATOM     13  C   UNL     1      -1.710  -2.193  -4.561  0.00  0.00    +0.164 C 
BRANCH  13  17
ATOM     14  C   UNL     1       2.430   0.653  -3.721  0.00  0.00    +0.089 C 
ATOM     15  C   UNL     1       1.017   0.131  -3.693  0.00  0.00    +0.135 A 
ATOM     16  C   UNL     1       0.564  -0.964  -4.334  0.00  0.00    +0.072 A 
ATOM     17  C   UNL     1      -0.806  -1.103  -4.049  0.00  0.00    +0.101 A 
ATOM     18  N   UNL     1      -1.157  -0.123  -3.264  0.00  0.00    -0.081 NA
ATOM     19  O   UNL     1      -0.010   0.672  -3.020  0.00  0.00    -0.360 OA
ENDBRANCH  13  17
ENDBRANCH   7  13
ENDBRANCH   1  10
BRANCH   4  20
ATOM     20  S   UNL     1      -6.264  -9.936  -3.792  0.00  0.00    +0.059 S 
ATOM     21  O   UNL     1      -5.862 -10.544  -5.011  0.00  0.00    -0.153 OA
ATOM     22  O   UNL     1      -6.322 -10.652  -2.566  0.00  0.00    -0.153 OA
BRANCH  20  23
ATOM     23  N   UNL     1      -7.778  -9.316  -4.049  0.00  0.00    -0.187 NA
ATOM     24  H   UNL     1      -8.490  -9.496  -3.416  0.00  0.00    +0.148 HD
BRANCH  23  25
ATOM     25  C   UNL     1      -8.042  -8.495  -5.234  0.00  0.00    +0.070 C 
ATOM     26  C   UNL     1      -9.464  -8.760  -5.731  0.00  0.00    +0.025 C 
ATOM     27  C   UNL     1      -7.895  -7.015  -4.872  0.00  0.00    +0.025 C 
ENDBRANCH  23  25
ENDBRANCH  20  23
ENDBRANCH   4  20
TORSDOF 6
