REMARK  Name = ZINC20686306
REMARK  8 active torsions:
REMARK  status: ('A' for Active; 'I' for Inactive)
REMARK    1  A    between atoms: C_1  and  C_2
REMARK    2  A    between atoms: C_2  and  C_4
REMARK    3  A    between atoms: C_2  and  N_12
REMARK    4  A    between atoms: N_12  and  C_13
REMARK    5  A    between atoms: C_13  and  C_14
REMARK    6  A    between atoms: N_16  and  C_17
REMARK    7  A    between atoms: C_19  and  S_24
REMARK    8  A    between atoms: S_24  and  C_27
REMARK                            x       y       z     vdW  Elec       q    Type
REMARK                         _______ _______ _______ _____ _____    ______ ____
ROOT
ATOM      1  C   UNL     1       3.656   1.275   0.743  0.00  0.00    +0.200 C 
ATOM      2  O   UNL     1       3.892   2.295   0.132  0.00  0.00    -0.278 OA
ATOM      3  N   UNL     1       4.651   0.628   1.384  0.00  0.00    -0.286 N 
ATOM      4  H   UNL     1       4.425  -0.256   1.998  0.00  0.00    +0.155 HD
ENDROOT
BRANCH   3   5
ATOM      5  C   UNL     1       5.970   1.082   1.267  0.00  0.00    +0.054 A 
ATOM      6  C   UNL     1       6.231   2.442   1.164  0.00  0.00    +0.051 A 
ATOM      7  C   UNL     1       7.534   2.886   1.053  0.00  0.00    +0.090 A 
ATOM      8  C   UNL     1       8.578   1.979   1.035  0.00  0.00    +0.028 A 
ATOM      9  C   UNL     1       8.321   0.624   1.132  0.00  0.00    +0.024 A 
ATOM     10  C   UNL     1       7.020   0.172   1.248  0.00  0.00    +0.062 A 
ATOM     11 CL   UNL     1       6.698  -1.530   1.370  0.00  0.00    -0.082 Cl
BRANCH   7  12
ATOM     12  S   UNL     1       7.867   4.612   0.928  0.00  0.00    -0.006 S 
ATOM     13  O   UNL     1       6.768   5.241   1.572  0.00  0.00    -0.170 OA
ATOM     14  O   UNL     1       9.187   4.764   1.433  0.00  0.00    -0.170 OA
ATOM     15  C   UNL     1       7.835   4.966  -0.851  0.00  0.00    +0.200 C 
ENDBRANCH   7  12
ENDBRANCH   3   5
BRANCH   1  16
ATOM     16  C   UNL     1       2.252   0.729   0.786  0.00  0.00    +0.016 C 
BRANCH  16  17
ATOM     17  N   UNL     1       1.362   1.608   0.017  0.00  0.00    +0.389 N 
ATOM     18  H   UNL     1       1.721   1.653  -1.022  0.00  0.00    -0.084 HD
ATOM     19  H   UNL     1       1.392   2.615   0.459  0.00  0.00    -0.084 HD
BRANCH  17  21
ATOM     20  C   UNL     1      -0.725   1.605   1.299  0.00  0.00    -0.009 C 
ATOM     21  C   UNL     1      -0.019   1.106   0.036  0.00  0.00    -0.042 C 
BRANCH  21  22
ATOM     22  C   UNL     1      -0.753   1.607  -1.181  0.00  0.00    -0.043 A 
ATOM     23  C   UNL     1      -0.280   2.709  -1.868  0.00  0.00    +0.005 A 
ATOM     24  C   UNL     1      -0.952   3.170  -2.985  0.00  0.00    +0.020 A 
ATOM     25  C   UNL     1      -2.100   2.527  -3.414  0.00  0.00    +0.042 A 
ATOM     26  C   UNL     1      -2.574   1.425  -2.727  0.00  0.00    +0.040 A 
ATOM     27  C   UNL     1      -1.897   0.961  -1.613  0.00  0.00    +0.044 A 
ATOM     28 CL   UNL     1      -2.487  -0.428  -0.755  0.00  0.00    -0.083 Cl
ATOM     29 CL   UNL     1      -2.945   3.105  -4.817  0.00  0.00    -0.083 Cl
ENDBRANCH  21  22
ENDBRANCH  17  21
ENDBRANCH  16  17
ENDBRANCH   1  16
TORSDOF 6
