REMARK  Name = ZINC16060735
REMARK  11 active torsions:
REMARK  status: ('A' for Active; 'I' for Inactive)
REMARK    1  A    between atoms: C_1  and  C_2
REMARK    2  A    between atoms: C_7  and  C_8
REMARK    3  A    between atoms: N_10  and  C_11
REMARK    4  A    between atoms: C_11  and  C_12
REMARK    5  A    between atoms: C_12  and  C_13
REMARK    6  A    between atoms: N_15  and  N_16
REMARK    7  A    between atoms: N_16  and  C_17
REMARK    8  A    between atoms: C_17  and  N_19
REMARK    9  A    between atoms: N_19  and  C_20
REMARK   10  A    between atoms: C_25  and  C_30
REMARK   11  A    between atoms: C_27  and  C_29
REMARK                            x       y       z     vdW  Elec       q    Type
REMARK                         _______ _______ _______ _____ _____    ______ ____
ROOT
ATOM      1  C   UNL     1       5.055   3.865  -1.173  0.00  0.00    +0.231 C 
ATOM      2  O   UNL     1       5.926   3.297  -1.798  0.00  0.00    -0.274 OA
ATOM      3  N   UNL     1       3.766   3.510  -1.340  0.00  0.00    -0.235 N 
ATOM      4  H   UNL     1       3.069   3.963  -0.840  0.00  0.00    +0.173 HD
ENDROOT
BRANCH   3   5
ATOM      5  N   UNL     1       3.431   2.485  -2.235  0.00  0.00    -0.246 N 
ATOM      6  H   UNL     1       4.128   2.032  -2.735  0.00  0.00    +0.172 HD
BRANCH   5   7
ATOM      7  C   UNL     1       2.142   2.130  -2.402  0.00  0.00    +0.147 C 
ATOM      8  S   UNL     1       1.734   0.879  -3.497  0.00  0.00    -0.017 S 
BRANCH   7   9
ATOM      9  N   UNL     1       1.174   2.761  -1.708  0.00  0.00    -0.322 N 
ATOM     10  H   UNL     1       1.405   3.470  -1.088  0.00  0.00    +0.148 HD
BRANCH   9  11
ATOM     11  C   UNL     1      -0.227   2.375  -1.889  0.00  0.00    +0.075 C 
ATOM     12  C   UNL     1      -0.810   3.119  -3.093  0.00  0.00    +0.022 C 
ATOM     13  C   UNL     1      -2.273   2.716  -3.282  0.00  0.00    +0.002 C 
ATOM     14  C   UNL     1      -3.068   3.077  -2.026  0.00  0.00    +0.003 C 
ATOM     15  C   UNL     1      -2.486   2.332  -0.823  0.00  0.00    -0.009 C 
ATOM     16  C   UNL     1      -1.023   2.736  -0.633  0.00  0.00    +0.009 C 
ATOM     17  C   UNL     1      -0.440   1.991   0.570  0.00  0.00    +0.009 C 
ATOM     18  C   UNL     1      -3.281   2.693   0.434  0.00  0.00    +0.008 C 
ENDBRANCH   9  11
ENDBRANCH   7   9
ENDBRANCH   5   7
ENDBRANCH   3   5
BRANCH   1  19
ATOM     19  C   UNL     1       5.414   4.966  -0.209  0.00  0.00    +0.116 C 
BRANCH  19  20
ATOM     20  C   UNL     1       6.931   5.169  -0.209  0.00  0.00    +0.114 C 
BRANCH  20  23
ATOM     21  C   UNL     1       8.570   6.595   0.894  0.00  0.00    +0.244 C 
ATOM     22  O   UNL     1       9.443   6.027   0.268  0.00  0.00    -0.270 OA
ATOM     23  N   UNL     1       7.280   6.240   0.727  0.00  0.00    -0.311 N 
ATOM     24  H   UNL     1       6.584   6.694   1.227  0.00  0.00    +0.149 HD
BRANCH  21  31
ATOM     25  C   UNL     1      11.353   7.170   1.436  0.00  0.00    +0.044 C 
ATOM     26  C   UNL     1      10.261   7.963   2.108  0.00  0.00    -0.038 A 
ATOM     27  C   UNL     1      10.584   8.973   2.991  0.00  0.00    +0.004 A 
ATOM     28  C   UNL     1       9.583   9.702   3.608  0.00  0.00    +0.000 A 
ATOM     29  C   UNL     1       8.253   9.423   3.345  0.00  0.00    +0.001 A 
ATOM     30  C   UNL     1       7.917   8.419   2.462  0.00  0.00    +0.013 A 
ATOM     31  C   UNL     1       8.922   7.676   1.839  0.00  0.00    +0.040 A 
ENDBRANCH  21  31
ENDBRANCH  20  23
ENDBRANCH  19  20
ENDBRANCH   1  19
TORSDOF 8
