REMARK  Name = ZINC39676814
REMARK  8 active torsions:
REMARK  status: ('A' for Active; 'I' for Inactive)
REMARK    1  A    between atoms: C_1  and  C_2
REMARK    2  A    between atoms: C_2  and  C_4
REMARK    3  A    between atoms: C_2  and  N_12
REMARK    4  A    between atoms: C_8  and  O_10
REMARK    5  A    between atoms: O_10  and  C_11
REMARK    6  A    between atoms: C_13  and  C_15
REMARK    7  A    between atoms: C_26  and  C_28
REMARK    8  A    between atoms: C_31  and  C_33
REMARK                            x       y       z     vdW  Elec       q    Type
REMARK                         _______ _______ _______ _____ _____    ______ ____
ROOT
ATOM      1  C   UNL     1       0.712  -1.094  -3.598  0.00  0.00    +0.100 C 
ATOM      2  C   UNL     1       1.732  -0.041  -4.085  0.00  0.00    +0.121 C 
ATOM      3  N   UNL     1       1.653  -0.098  -5.564  0.00  0.00    -0.294 N 
ATOM      4  C   UNL     1       0.209  -0.272  -5.849  0.00  0.00    +0.115 C 
ATOM      5  C   UNL     1      -0.287  -1.243  -4.759  0.00  0.00    -0.004 C 
ATOM      6  C   UNL     1      -1.689  -0.852  -4.303  0.00  0.00    -0.010 C 
ATOM      7  C   UNL     1      -2.674  -1.064  -5.457  0.00  0.00    -0.082 C 
ATOM      8  N   UNL     1      -2.647  -2.471  -5.873  0.00  0.00    +0.379 N 
ATOM      9  C   UNL     1      -1.320  -2.813  -6.397  0.00  0.00    -0.082 C 
ATOM     10  C   UNL     1      -0.278  -2.676  -5.283  0.00  0.00    -0.010 C 
ATOM     11  C   UNL     1       2.666  -0.012  -6.449  0.00  0.00    +0.282 C 
ATOM     12  O   UNL     1       2.438  -0.077  -7.643  0.00  0.00    -0.267 OA
ATOM     13  H   UNL     1      -2.856  -3.059  -5.080  0.00  0.00    -0.086 HD
ATOM     14  H   UNL     1      -3.340  -2.621  -6.591  0.00  0.00    -0.086 HD
ENDROOT
BRANCH  11  15
ATOM     15  C   UNL     1       4.041   0.159  -5.974  0.00  0.00    +0.190 A 
ATOM     16  C   UNL     1       5.163   0.266  -6.766  0.00  0.00    +0.055 A 
ATOM     17  C   UNL     1       6.253   0.416  -5.904  0.00  0.00    +0.050 A 
ATOM     18  C   UNL     1       5.763   0.395  -4.629  0.00  0.00    +0.136 A 
ATOM     19  O   UNL     1       4.429   0.246  -4.684  0.00  0.00    -0.450 OA
BRANCH  18  20
ATOM     20  C   UNL     1       6.565   0.521  -3.396  0.00  0.00    +0.017 A 
ATOM     21  C   UNL     1       7.950   0.684  -3.474  0.00  0.00    +0.014 A 
ATOM     22  C   UNL     1       8.694   0.802  -2.320  0.00  0.00    +0.039 A 
ATOM     23  C   UNL     1       8.070   0.759  -1.083  0.00  0.00    +0.123 A 
ATOM     24  C   UNL     1       6.696   0.598  -0.999  0.00  0.00    +0.039 A 
ATOM     25  C   UNL     1       5.941   0.484  -2.147  0.00  0.00    +0.014 A 
ATOM     26  F   UNL     1       8.805   0.875   0.045  0.00  0.00    -0.205 F 
ENDBRANCH  18  20
ENDBRANCH  11  15
BRANCH   1  28
ATOM     27  N   UNL     1      -0.459  -1.495  -1.457  0.00  0.00    -0.308 N 
ATOM     28  C   UNL     1       0.006  -0.608  -2.358  0.00  0.00    +0.219 C 
ATOM     29  O   UNL     1      -0.143   0.581  -2.172  0.00  0.00    -0.275 OA
ATOM     30  H   UNL     1      -0.340  -2.446  -1.606  0.00  0.00    +0.149 HD
BRANCH  27  32
ATOM     31  C   UNL     1      -0.111  -0.691   0.827  0.00  0.00    +0.033 C 
ATOM     32  C   UNL     1      -1.145  -1.022  -0.251  0.00  0.00    +0.100 C 
BRANCH  32  33
ATOM     33  C   UNL     1      -2.071  -2.099   0.255  0.00  0.00    -0.024 A 
ATOM     34  C   UNL     1      -1.668  -3.422   0.235  0.00  0.00    +0.005 A 
ATOM     35  C   UNL     1      -2.515  -4.411   0.698  0.00  0.00    +0.004 A 
ATOM     36  C   UNL     1      -3.766  -4.081   1.182  0.00  0.00    +0.045 A 
ATOM     37  C   UNL     1      -4.172  -2.755   1.203  0.00  0.00    +0.120 A 
ATOM     38  C   UNL     1      -3.318  -1.763   0.743  0.00  0.00    +0.051 A 
BRANCH  37  39
ATOM     39  O   UNL     1      -5.402  -2.427   1.679  0.00  0.00    -0.495 OA
ATOM     40  C   UNL     1      -6.226  -3.499   2.141  0.00  0.00    +0.277 C 
ENDBRANCH  37  39
ENDBRANCH  32  33
ENDBRANCH  27  32
ENDBRANCH   1  28
TORSDOF 6
