REMARK  Name = ZINC10210225
REMARK  13 active torsions:
REMARK  status: ('A' for Active; 'I' for Inactive)
REMARK    1  A    between atoms: C_1  and  C_2
REMARK    2  A    between atoms: C_4  and  C_37
REMARK    3  A    between atoms: C_5  and  N_9
REMARK    4  A    between atoms: C_6  and  C_8
REMARK    5  A    between atoms: C_10  and  C_12
REMARK    6  A    between atoms: C_12  and  N_13
REMARK    7  A    between atoms: C_14  and  C_16
REMARK    8  A    between atoms: C_16  and  O_17
REMARK    9  A    between atoms: O_17  and  C_18
REMARK   10  A    between atoms: C_18  and  C_20
REMARK   11  A    between atoms: C_23  and  N_29
REMARK   12  A    between atoms: C_24  and  N_26
REMARK   13  A    between atoms: C_33  and  C_36
REMARK                            x       y       z     vdW  Elec       q    Type
REMARK                         _______ _______ _______ _____ _____    ______ ____
ROOT
ATOM      1  C   UNL     1       1.028   1.510   2.714  0.00  0.00    +0.328 C 
ENDROOT
BRANCH   1   3
ATOM      2  N   UNL     1       2.268   3.333   1.592  0.00  0.00    -0.304 N 
ATOM      3  C   UNL     1       2.068   2.009   1.744  0.00  0.00    +0.251 C 
ATOM      4  O   UNL     1       2.725   1.219   1.100  0.00  0.00    -0.272 OA
ATOM      5  H   UNL     1       1.742   3.965   2.107  0.00  0.00    +0.149 HD
BRANCH   2   6
ATOM      6  C   UNL     1       3.279   3.818   0.649  0.00  0.00    +0.200 C 
BRANCH   6   8
ATOM      7  N   UNL     1       4.161   5.996  -0.124  0.00  0.00    -0.284 N 
ATOM      8  C   UNL     1       3.302   5.325   0.669  0.00  0.00    +0.234 C 
ATOM      9  O   UNL     1       2.549   5.934   1.399  0.00  0.00    -0.274 OA
ATOM     10  H   UNL     1       4.799   5.509  -0.669  0.00  0.00    +0.155 HD
BRANCH   7  15
ATOM     11  C   UNL     1       4.040  11.666  -0.281  0.00  0.00    +0.044 C 
ATOM     12  C   UNL     1       4.072  10.159  -0.239  0.00  0.00    -0.050 A 
ATOM     13  C   UNL     1       5.265   9.501  -0.001  0.00  0.00    +0.008 A 
ATOM     14  C   UNL     1       5.297   8.121   0.037  0.00  0.00    -0.029 A 
ATOM     15  C   UNL     1       4.131   7.394  -0.163  0.00  0.00    +0.039 A 
ATOM     16  C   UNL     1       2.936   8.058  -0.406  0.00  0.00    -0.029 A 
ATOM     17  C   UNL     1       2.909   9.439  -0.439  0.00  0.00    +0.008 A 
ATOM     18  C   UNL     1       1.669   7.274  -0.629  0.00  0.00    +0.045 C 
ATOM     19  C   UNL     1       6.597   7.404   0.297  0.00  0.00    +0.045 C 
ENDBRANCH   7  15
ENDBRANCH   6   8
ENDBRANCH   2   6
ENDBRANCH   1   3
BRANCH   1  20
ATOM     20  O   UNL     1       1.005   0.058   2.694  0.00  0.00    -0.452 OA
BRANCH  20  21
ATOM     21  C   UNL     1       0.124  -0.550   3.512  0.00  0.00    +0.340 C 
ATOM     22  O   UNL     1      -0.606   0.114   4.221  0.00  0.00    -0.245 OA
BRANCH  21  23
ATOM     23  C   UNL     1       0.044  -2.022   3.545  0.00  0.00    +0.061 A 
ATOM     24  C   UNL     1       0.880  -2.788   2.725  0.00  0.00    +0.017 A 
ATOM     25  C   UNL     1       0.810  -4.151   2.761  0.00  0.00    +0.026 A 
ATOM     26  C   UNL     1      -0.100  -4.784   3.604  0.00  0.00    +0.060 A 
ATOM     27  C   UNL     1      -0.939  -4.030   4.420  0.00  0.00    +0.148 A 
ATOM     28  C   UNL     1      -0.870  -2.655   4.393  0.00  0.00    +0.049 A 
BRANCH  26  29
ATOM     29  N   UNL     1      -0.170  -6.172   3.632  0.00  0.00    -0.328 N 
ATOM     30  C   UNL     1      -0.607  -6.703   2.334  0.00  0.00    +0.105 C 
ATOM     31  C   UNL     1      -0.812  -8.215   2.443  0.00  0.00    +0.019 C 
ATOM     32  C   UNL     1       0.502  -8.875   2.869  0.00  0.00    +0.006 C 
ATOM     33  C   UNL     1       0.960  -8.270   4.199  0.00  0.00    +0.003 C 
ATOM     34  C   UNL     1       1.115  -6.756   4.039  0.00  0.00    +0.108 C 
ATOM     35  C   UNL     1       2.304  -8.881   4.602  0.00  0.00    +0.009 C 
ENDBRANCH  26  29
BRANCH  27  36
ATOM     36  N   UNL     1      -1.905  -4.705   5.315  0.00  0.00    +0.058 N 
ATOM     37  O   UNL     1      -2.639  -4.045   6.029  0.00  0.00    -0.126 OA
ATOM     38  O   UNL     1      -1.966  -5.922   5.338  0.00  0.00    -0.126 OA
ENDBRANCH  27  36
ENDBRANCH  21  23
ENDBRANCH  20  21
ENDBRANCH   1  20
TORSDOF 9
