REMARK  Name = ZINC54919882
REMARK  9 active torsions:
REMARK  status: ('A' for Active; 'I' for Inactive)
REMARK    1  A    between atoms: C_1  and  N_2
REMARK    2  A    between atoms: N_2  and  C_3
REMARK    3  A    between atoms: N_2  and  C_4
REMARK    4  A    between atoms: C_4  and  C_6
REMARK    5  A    between atoms: C_4  and  C_26
REMARK    6  A    between atoms: C_6  and  N_7
REMARK    7  A    between atoms: N_10  and  N_11
REMARK    8  A    between atoms: C_12  and  C_14
REMARK    9  A    between atoms: N_17  and  C_19
REMARK                            x       y       z     vdW  Elec       q    Type
REMARK                         _______ _______ _______ _____ _____    ______ ____
ROOT
ATOM      1  N   UNL     1      -0.923  -2.532   0.575  0.00  0.00    -0.299 N 
ATOM      2  C   UNL     1      -0.991  -3.878   0.545  0.00  0.00    +0.316 C 
ATOM      3  O   UNL     1      -1.651  -4.435  -0.310  0.00  0.00    -0.251 OA
ATOM      4  N   UNL     1      -0.327  -4.606   1.464  0.00  0.00    -0.218 N 
ATOM      5  H   UNL     1      -0.397  -2.088   1.257  0.00  0.00    +0.150 HD
ATOM      6  H   UNL     1      -0.375  -5.575   1.444  0.00  0.00    +0.174 HD
ENDROOT
BRANCH   4   7
ATOM      7  N   UNL     1       0.434  -3.964   2.450  0.00  0.00    -0.228 N 
ATOM      8  C   UNL     1       1.099  -4.692   3.369  0.00  0.00    +0.284 C 
ATOM      9  O   UNL     1       1.038  -5.906   3.343  0.00  0.00    -0.267 OA
ATOM     10  H   UNL     1       0.483  -2.995   2.471  0.00  0.00    +0.173 HD
BRANCH   8  11
ATOM     11  C   UNL     1       1.900  -4.016   4.407  0.00  0.00    +0.195 A 
ATOM     12  C   UNL     1       2.653  -4.644   5.431  0.00  0.00    +0.229 A 
ATOM     13  C   UNL     1       3.216  -3.631   6.140  0.00  0.00    +0.166 A 
ATOM     14  N   UNL     1       2.813  -2.467   5.561  0.00  0.00    -0.235 N 
ATOM     15  N   UNL     1       2.054  -2.714   4.554  0.00  0.00    -0.158 NA
ATOM     16  O   UNL     1       2.785  -5.979   5.657  0.00  0.00    -0.284 OA
BRANCH  14  17
ATOM     17  C   UNL     1       3.177  -1.187   5.997  0.00  0.00    +0.065 A 
ATOM     18  C   UNL     1       4.015  -1.037   7.094  0.00  0.00    +0.028 A 
ATOM     19  C   UNL     1       4.373   0.227   7.520  0.00  0.00    +0.002 A 
ATOM     20  C   UNL     1       3.897   1.343   6.856  0.00  0.00    +0.000 A 
ATOM     21  C   UNL     1       3.062   1.197   5.763  0.00  0.00    +0.002 A 
ATOM     22  C   UNL     1       2.705  -0.064   5.328  0.00  0.00    +0.028 A 
ENDBRANCH  14  17
ENDBRANCH   8  11
ENDBRANCH   4   7
BRANCH   1  23
ATOM     23  C   UNL     1      -1.646  -1.741  -0.424  0.00  0.00    +0.098 C 
BRANCH  23  24
ATOM     24  C   UNL     1      -1.509  -0.253  -0.093  0.00  0.00    +0.016 C 
BRANCH  24  25
ATOM     25  C   UNL     1      -0.068   0.163  -0.235  0.00  0.00    +0.093 A 
ATOM     26  C   UNL     1       0.465   0.807  -1.289  0.00  0.00    +0.043 A 
ATOM     27  C   UNL     1       1.836   0.997  -1.004  0.00  0.00    +0.041 A 
ATOM     28  C   UNL     1       2.060   0.456   0.208  0.00  0.00    +0.195 A 
ATOM     29  O   UNL     1       0.902  -0.042   0.671  0.00  0.00    -0.469 OA
ENDBRANCH  24  25
BRANCH  24  31
ATOM     30  C   UNL     1      -1.813   1.410   1.609  0.00  0.00    -0.096 C 
ATOM     31  N   UNL     1      -1.953  -0.017   1.287  0.00  0.00    +0.384 N 
ATOM     32  C   UNL     1      -3.361  -0.414   1.424  0.00  0.00    -0.096 C 
ATOM     33  H   UNL     1      -1.387  -0.561   1.921  0.00  0.00    -0.082 HD
ENDBRANCH  24  31
ENDBRANCH  23  24
ENDBRANCH   1  23
TORSDOF 7
