REMARK  Name = ZINC04685338
REMARK  5 active torsions:
REMARK  status: ('A' for Active; 'I' for Inactive)
REMARK    1  A    between atoms: C_1  and  C_2
REMARK    2  A    between atoms: C_2  and  O_3
REMARK    3  A    between atoms: O_3  and  C_4
REMARK    4  A    between atoms: C_7  and  C_10
REMARK    5  A    between atoms: C_13  and  C_22
REMARK                            x       y       z     vdW  Elec       q    Type
REMARK                         _______ _______ _______ _____ _____    ______ ____
ROOT
ATOM      1  C   UNL     1       0.890  -6.043  -1.684  0.00  0.00    +0.106 C 
ATOM      2  C   UNL     1      -0.158  -6.574  -2.669  0.00  0.00    +0.058 C 
ATOM      3  C   UNL     1       0.124  -8.049  -2.980  0.00  0.00    +0.143 C 
ATOM      4  N   UNL     1       1.538  -8.196  -3.326  0.00  0.00    -0.224 N 
ATOM      5  C   UNL     1       2.498  -7.292  -3.016  0.00  0.00    +0.216 A 
ATOM      6  N   UNL     1       3.638  -7.735  -3.475  0.00  0.00    -0.180 NA
ATOM      7  C   UNL     1       3.447  -8.916  -4.080  0.00  0.00    +0.233 A 
ATOM      8  N   UNL     1       2.173  -9.233  -4.010  0.00  0.00    -0.132 NA
ATOM      9  N   UNL     1       4.441  -9.685  -4.687  0.00  0.00    -0.326 N 
ATOM     10  N   UNL     1       2.220  -6.122  -2.318  0.00  0.00    -0.307 N 
ATOM     11  H   UNL     1       5.360  -9.373  -4.693  0.00  0.00    +0.145 HD
ATOM     12  H   UNL     1       4.213 -10.531  -5.104  0.00  0.00    +0.145 HD
ATOM     13  H   UNL     1       2.862  -5.398  -2.254  0.00  0.00    +0.149 HD
ENDROOT
BRANCH   3  14
ATOM     14  C   UNL     1      -0.731  -8.493  -4.138  0.00  0.00    -0.015 A 
ATOM     15  C   UNL     1      -0.540  -7.958  -5.375  0.00  0.00    +0.006 A 
ATOM     16  C   UNL     1      -1.321  -8.356  -6.458  0.00  0.00    +0.001 A 
ATOM     17  C   UNL     1      -2.298  -9.293  -6.311  0.00  0.00    +0.008 A 
ATOM     18  C   UNL     1      -2.524  -9.868  -5.049  0.00  0.00    -0.018 A 
ATOM     19  C   UNL     1      -1.726  -9.467  -3.949  0.00  0.00    -0.013 A 
ATOM     20  C   UNL     1      -1.949 -10.047  -2.688  0.00  0.00    +0.009 A 
ATOM     21  C   UNL     1      -2.922 -10.988  -2.542  0.00  0.00    +0.001 A 
ATOM     22  C   UNL     1      -3.703 -11.387  -3.626  0.00  0.00    +0.001 A 
ATOM     23  C   UNL     1      -3.524 -10.837  -4.858  0.00  0.00    +0.008 A 
ENDBRANCH   3  14
BRANCH   1  27
ATOM     24  C   UNL     1       0.009  -1.978  -0.705  0.00  0.00    +0.121 A 
ATOM     25  C   UNL     1      -0.342  -2.995   0.171  0.00  0.00    +0.046 A 
ATOM     26  C   UNL     1      -0.057  -4.308  -0.148  0.00  0.00    +0.009 A 
ATOM     27  C   UNL     1       0.579  -4.609  -1.339  0.00  0.00    -0.027 A 
ATOM     28  C   UNL     1       0.930  -3.597  -2.213  0.00  0.00    +0.009 A 
ATOM     29  C   UNL     1       0.641  -2.283  -1.901  0.00  0.00    +0.046 A 
BRANCH  24  30
ATOM     30  O   UNL     1      -0.272  -0.685  -0.393  0.00  0.00    -0.492 OA
BRANCH  30  32
ATOM     31  C   UNL     1      -1.156   1.057   1.030  0.00  0.00    +0.048 C 
ATOM     32  C   UNL     1      -0.924  -0.445   0.855  0.00  0.00    +0.225 C 
ENDBRANCH  30  32
ENDBRANCH  24  30
ENDBRANCH   1  27
TORSDOF 4
