REMARK  Name = ZINC64788621
REMARK  3 active torsions:
REMARK  status: ('A' for Active; 'I' for Inactive)
REMARK    1  A    between atoms: C_1  and  C_2
REMARK    2  A    between atoms: C_7  and  N_8
REMARK    3  A    between atoms: C_20  and  C_23
REMARK                            x       y       z     vdW  Elec       q    Type
REMARK                         _______ _______ _______ _____ _____    ______ ____
ROOT
ATOM      1  N   UNL     1       0.025  -0.013   2.419  0.00  0.00    -0.189 N 
ATOM      2  C   UNL     1      -1.151   0.291   3.005  0.00  0.00    +0.265 C 
ATOM      3  O   UNL     1      -2.207  -0.028   2.491  0.00  0.00    -0.269 OA
ATOM      4  C   UNL     1      -1.123   1.019   4.286  0.00  0.00    +0.118 C 
ATOM      5  C   UNL     1       0.202   1.362   4.834  0.00  0.00    +0.258 C 
ATOM      6  N   UNL     1       1.295   0.993   4.136  0.00  0.00    -0.235 N 
ATOM      7  C   UNL     1       1.195   0.326   2.977  0.00  0.00    +0.320 C 
ATOM      8  O   UNL     1       2.219   0.018   2.400  0.00  0.00    -0.251 OA
ATOM      9  O   UNL     1       0.306   1.963   5.886  0.00  0.00    -0.270 OA
ATOM     10  C   UNL     1      -2.288   1.365   4.945  0.00  0.00    +0.038 C 
ATOM     11  N   UNL     1      -3.541   1.094   4.534  0.00  0.00    -0.283 N 
ATOM     12  N   UNL     1      -4.493   1.529   5.408  0.00  0.00    -0.235 NA
ATOM     13  C   UNL     1      -3.869   2.541   6.293  0.00  0.00    +0.108 C 
ATOM     14  C   UNL     1      -2.380   2.111   6.264  0.00  0.00    +0.077 C 
ATOM     15  H   UNL     1      -5.284   1.917   4.917  0.00  0.00    +0.145 HD
ATOM     16  H   UNL     1       2.175   1.212   4.482  0.00  0.00    +0.159 HD
ATOM     17  H   UNL     1      -3.745   0.638   3.703  0.00  0.00    +0.166 HD
ENDROOT
BRANCH   1  24
ATOM     18  C   UNL     1      -0.018   1.503   0.010  0.00  0.00    +0.045 C 
ATOM     19  C   UNL     1       0.002  -0.004   0.002  0.00  0.00    -0.029 A 
ATOM     20  C   UNL     1       0.006  -0.689  -1.198  0.00  0.00    +0.005 A 
ATOM     21  C   UNL     1       0.025  -2.071  -1.206  0.00  0.00    +0.000 A 
ATOM     22  C   UNL     1       0.041  -2.773  -0.014  0.00  0.00    +0.002 A 
ATOM     23  C   UNL     1       0.036  -2.094   1.188  0.00  0.00    +0.024 A 
ATOM     24  C   UNL     1       0.023  -0.705   1.200  0.00  0.00    +0.049 A 
ENDBRANCH   1  24
BRANCH  13  25
ATOM     25  C   UNL     1      -4.426   2.451   7.690  0.00  0.00    -0.029 A 
ATOM     26  C   UNL     1      -4.696   1.216   8.248  0.00  0.00    +0.005 A 
ATOM     27  C   UNL     1      -5.207   1.134   9.530  0.00  0.00    +0.000 A 
ATOM     28  C   UNL     1      -5.447   2.287  10.254  0.00  0.00    +0.000 A 
ATOM     29  C   UNL     1      -5.175   3.522   9.696  0.00  0.00    +0.000 A 
ATOM     30  C   UNL     1      -4.661   3.604   8.416  0.00  0.00    +0.005 A 
ENDBRANCH  13  25
TORSDOF 2
