REMARK  Name = ZINC61677515
REMARK  7 active torsions:
REMARK  status: ('A' for Active; 'I' for Inactive)
REMARK    1  A    between atoms: C_1  and  C_2
REMARK    2  A    between atoms: C_2  and  C_3
REMARK    3  A    between atoms: C_3  and  C_5
REMARK    4  A    between atoms: C_3  and  O_8
REMARK    5  A    between atoms: O_8  and  C_9
REMARK    6  A    between atoms: C_16  and  C_20
REMARK    7  A    between atoms: C_16  and  C_21
REMARK                            x       y       z     vdW  Elec       q    Type
REMARK                         _______ _______ _______ _____ _____    ______ ____
ROOT
ATOM      1  C   UNL     1      -2.832   0.977  -1.172  0.00  0.00    +0.125 A 
ATOM      2  C   UNL     1      -2.837   1.771  -0.028  0.00  0.00    +0.046 A 
ATOM      3  C   UNL     1      -3.583   2.914   0.013  0.00  0.00    +0.018 A 
ATOM      4  C   UNL     1      -4.344   3.288  -1.099  0.00  0.00    +0.059 A 
ATOM      5  C   UNL     1      -4.340   2.494  -2.260  0.00  0.00    +0.135 A 
ATOM      6  C   UNL     1      -3.576   1.339  -2.286  0.00  0.00    +0.092 A 
ATOM      7  O   UNL     1      -5.062   2.853  -3.347  0.00  0.00    -0.485 OA
ATOM      8  C   UNL     1      -6.173   3.732  -3.174  0.00  0.00    +0.112 C 
ATOM      9  C   UNL     1      -5.718   4.982  -2.405  0.00  0.00    +0.127 C 
ATOM     10  C   UNL     1      -5.160   4.511  -1.074  0.00  0.00    +0.170 C 
ATOM     11  O   UNL     1      -5.376   5.113  -0.043  0.00  0.00    -0.292 OA
ATOM     12  C   UNL     1      -6.717   4.145  -4.543  0.00  0.00    +0.056 C 
ATOM     13  C   UNL     1      -7.270   3.018  -2.382  0.00  0.00    +0.056 C 
ENDROOT
BRANCH   1  14
ATOM     14  O   UNL     1      -2.089  -0.158  -1.200  0.00  0.00    -0.480 OA
BRANCH  14  15
ATOM     15  C   UNL     1      -1.445  -0.541   0.017  0.00  0.00    +0.258 C 
BRANCH  15  16
ATOM     16  C   UNL     1      -1.522  -2.038   0.176  0.00  0.00    +0.251 C 
ATOM     17  O   UNL     1      -1.993  -2.719  -0.711  0.00  0.00    -0.272 OA
ATOM     18  N   UNL     1      -1.067  -2.620   1.303  0.00  0.00    -0.326 N 
ATOM     19  H   UNL     1      -0.691  -2.075   2.012  0.00  0.00    +0.145 HD
ATOM     20  H   UNL     1      -1.117  -3.583   1.406  0.00  0.00    +0.145 HD
ENDBRANCH  15  16
BRANCH  15  22
ATOM     21  C   UNL     1       0.101   1.420  -0.060  0.00  0.00    +0.008 C 
ATOM     22  C   UNL     1       0.022  -0.107  -0.024  0.00  0.00    +0.051 C 
ENDBRANCH  15  22
ENDBRANCH  14  15
ENDBRANCH   1  14
TORSDOF 4
