REMARK  Name = ZINC00313575
REMARK  8 active torsions:
REMARK  status: ('A' for Active; 'I' for Inactive)
REMARK    1  A    between atoms: C_1  and  C_2
REMARK    2  A    between atoms: C_3  and  C_19
REMARK    3  A    between atoms: C_4  and  C_16
REMARK    4  A    between atoms: C_5  and  C_15
REMARK    5  A    between atoms: N_6  and  C_7
REMARK    6  A    between atoms: C_11  and  N_13
REMARK    7  A    between atoms: C_16  and  C_18
REMARK    8  A    between atoms: C_19  and  C_21
REMARK                            x       y       z     vdW  Elec       q    Type
REMARK                         _______ _______ _______ _____ _____    ______ ____
ROOT
ATOM      1  C   UNL     1      -0.350   6.608   0.398  0.00  0.00    +0.064 C 
ATOM      2  C   UNL     1      -0.650   5.259   0.999  0.00  0.00    +0.032 A 
ATOM      3  C   UNL     1      -0.343   4.051   0.437  0.00  0.00    +0.049 A 
ATOM      4  C   UNL     1      -0.832   3.025   1.385  0.00  0.00    +0.049 A 
ATOM      5  C   UNL     1      -1.379   3.714   2.432  0.00  0.00    +0.032 A 
ATOM      6  N   UNL     1      -1.263   5.042   2.188  0.00  0.00    -0.316 N 
ATOM      7  C   UNL     1      -2.008   3.098   3.656  0.00  0.00    +0.064 C 
ENDROOT
BRANCH   6   8
ATOM      8  C   UNL     1      -1.716   6.053   3.047  0.00  0.00    +0.048 A 
ATOM      9  C   UNL     1      -1.138   6.210   4.300  0.00  0.00    +0.028 A 
ATOM     10  C   UNL     1      -1.582   7.206   5.148  0.00  0.00    +0.024 A 
ATOM     11  C   UNL     1      -2.604   8.049   4.753  0.00  0.00    +0.062 A 
ATOM     12  C   UNL     1      -3.187   7.897   3.499  0.00  0.00    +0.045 A 
ATOM     13  C   UNL     1      -2.737   6.901   2.644  0.00  0.00    +0.050 A 
ATOM     14 CL   UNL     1      -3.160   9.299   5.821  0.00  0.00    -0.082 Cl
BRANCH  12  15
ATOM     15  N   UNL     1      -4.220   8.749   3.100  0.00  0.00    -0.357 N 
ATOM     16  H   UNL     1      -4.531   9.447   3.697  0.00  0.00    +0.142 HD
ATOM     17  H   UNL     1      -4.626   8.642   2.225  0.00  0.00    +0.142 HD
ENDBRANCH  12  15
ENDBRANCH   6   8
BRANCH   4  18
ATOM     18  C   UNL     1      -0.743   1.573   1.236  0.00  0.00    +0.162 C 
ATOM     19  O   UNL     1       0.184   0.968   1.734  0.00  0.00    -0.292 OA
ATOM     20  C   UNL     1      -1.802   0.828   0.465  0.00  0.00    +0.091 C 
ENDBRANCH   4  18
BRANCH   3  21
ATOM     21  C   UNL     1       0.329   3.819  -0.842  0.00  0.00    +0.162 C 
ATOM     22  O   UNL     1       0.757   4.757  -1.481  0.00  0.00    -0.292 OA
ATOM     23  C   UNL     1       0.489   2.415  -1.365  0.00  0.00    +0.091 C 
ENDBRANCH   3  21
TORSDOF 4
