REMARK  Name = ZINC48421039
REMARK  8 active torsions:
REMARK  status: ('A' for Active; 'I' for Inactive)
REMARK    1  A    between atoms: C_1  and  C_2
REMARK    2  A    between atoms: C_4  and  C_8
REMARK    3  A    between atoms: C_6  and  C_7
REMARK    4  A    between atoms: N_10  and  N_11
REMARK    5  A    between atoms: C_12  and  C_14
REMARK    6  A    between atoms: N_16  and  C_17
REMARK    7  A    between atoms: C_17  and  C_18
REMARK    8  A    between atoms: C_17  and  C_19
REMARK                            x       y       z     vdW  Elec       q    Type
REMARK                         _______ _______ _______ _____ _____    ______ ____
ROOT
ATOM      1  C   UNL     1       0.034  -3.085  -2.144  0.00  0.00    +0.267 C 
ATOM      2  O   UNL     1       0.024  -2.739  -3.311  0.00  0.00    -0.268 OA
ATOM      3  N   UNL     1       0.053  -4.396  -1.830  0.00  0.00    -0.230 N 
ATOM      4  H   UNL     1       0.061  -4.671  -0.900  0.00  0.00    +0.173 HD
ENDROOT
BRANCH   1   8
ATOM      5  C   UNL     1      -0.018   1.503   0.010  0.00  0.00    +0.044 C 
ATOM      6  C   UNL     1       0.002  -0.004   0.002  0.00  0.00    -0.040 A 
ATOM      7  C   UNL     1       0.006  -0.694  -1.186  0.00  0.00    +0.024 A 
ATOM      8  C   UNL     1       0.025  -2.076  -1.080  0.00  0.00    +0.076 A 
ATOM      9  S   UNL     1       0.036  -2.308   0.688  0.00  0.00    -0.089 S 
ATOM     10  C   UNL     1       0.023  -0.698   1.167  0.00  0.00    -0.010 A 
ATOM     11  C   UNL     1       0.028  -0.150   2.571  0.00  0.00    +0.052 C 
ENDBRANCH   1   8
BRANCH   3  12
ATOM     12  N   UNL     1       0.061  -5.359  -2.847  0.00  0.00    -0.226 N 
ATOM     13  C   UNL     1       0.081  -6.670  -2.533  0.00  0.00    +0.315 C 
ATOM     14  O   UNL     1       0.091  -7.015  -1.369  0.00  0.00    -0.264 OA
ATOM     15  H   UNL     1       0.053  -5.084  -3.776  0.00  0.00    +0.173 HD
BRANCH  13  16
ATOM     16  C   UNL     1       0.090  -7.698  -3.617  0.00  0.00    +0.301 C 
ATOM     17  O   UNL     1       0.080  -7.353  -4.780  0.00  0.00    -0.265 OA
ATOM     18  N   UNL     1       0.109  -9.009  -3.303  0.00  0.00    -0.305 N 
ATOM     19  H   UNL     1       0.117  -9.284  -2.373  0.00  0.00    +0.149 HD
BRANCH  18  20
ATOM     20  C   UNL     1       0.117 -10.017  -4.366  0.00  0.00    +0.067 C 
ATOM     21  C   UNL     1       1.556 -10.257  -4.830  0.00  0.00    +0.027 C 
ATOM     22  C   UNL     1      -0.472 -11.324  -3.834  0.00  0.00    +0.027 C 
ENDBRANCH  18  20
ENDBRANCH  13  16
ENDBRANCH   3  12
TORSDOF 4
