REMARK  Name = ZINC12686811
REMARK  11 active torsions:
REMARK  status: ('A' for Active; 'I' for Inactive)
REMARK    1  A    between atoms: C_1  and  N_2
REMARK    2  A    between atoms: N_2  and  C_3
REMARK    3  A    between atoms: C_4  and  C_6
REMARK    4  A    between atoms: C_6  and  O_7
REMARK    5  A    between atoms: O_7  and  C_8
REMARK    6  A    between atoms: C_9  and  O_29
REMARK    7  A    between atoms: C_11  and  C_15
REMARK    8  A    between atoms: N_16  and  N_17
REMARK    9  A    between atoms: C_18  and  C_20
REMARK   10  A    between atoms: C_20  and  C_21
REMARK   11  A    between atoms: O_29  and  C_30
REMARK                            x       y       z     vdW  Elec       q    Type
REMARK                         _______ _______ _______ _____ _____    ______ ____
ROOT
ATOM      1  C   UNL     1      -3.651  -2.174   0.024  0.00  0.00    +0.176 A 
ATOM      2  C   UNL     1      -2.438  -2.859   0.009  0.00  0.00    +0.163 A 
ATOM      3  C   UNL     1      -1.248  -2.156  -0.004  0.00  0.00    +0.059 A 
ATOM      4  C   UNL     1      -1.264  -0.758   0.010  0.00  0.00    -0.001 A 
ATOM      5  C   UNL     1      -2.484  -0.078   0.025  0.00  0.00    +0.028 A 
ATOM      6  C   UNL     1      -3.669  -0.787   0.032  0.00  0.00    +0.064 A 
ATOM      7 BR   UNL     1      -5.320   0.136   0.054  0.00  0.00    -0.046 Br
ENDROOT
BRANCH   4   8
ATOM      8  C   UNL     1       0.002  -0.004   0.002  0.00  0.00    +0.138 C 
ATOM      9  N   UNL     1      -0.015   1.294   0.009  0.00  0.00    -0.188 NA
BRANCH   9  10
ATOM     10  N   UNL     1       1.188   2.011   0.002  0.00  0.00    -0.207 N 
ATOM     11  C   UNL     1       1.170   3.358   0.009  0.00  0.00    +0.238 C 
ATOM     12  O   UNL     1       0.111   3.950   0.022  0.00  0.00    -0.274 OA
ATOM     13  H   UNL     1       2.035   1.537  -0.009  0.00  0.00    +0.177 HD
BRANCH  11  14
ATOM     14  C   UNL     1       2.465   4.129   0.001  0.00  0.00    +0.154 C 
BRANCH  14  15
ATOM     15  C   UNL     1       2.169   5.607   0.011  0.00  0.00    +0.069 A 
ATOM     16  C   UNL     1       2.632   6.494   0.907  0.00  0.00    +0.117 A 
ATOM     17  N   UNL     1       2.131   7.747   0.562  0.00  0.00    -0.300 N 
ATOM     18  C   UNL     1       2.199   9.044   1.020  0.00  0.00    +0.100 A 
ATOM     19  C   UNL     1       1.544  10.023   0.398  0.00  0.00    +0.067 A 
ATOM     20  S   UNL     1       0.751   9.144  -0.940  0.00  0.00    -0.058 S 
ATOM     21  C   UNL     1       1.366   7.522  -0.552  0.00  0.00    +0.178 A 
ATOM     22  N   UNL     1       1.394   6.259  -0.869  0.00  0.00    -0.226 NA
ENDBRANCH  14  15
ENDBRANCH  11  14
ENDBRANCH   9  10
ENDBRANCH   4   8
BRANCH   2  23
ATOM     23  O   UNL     1      -2.424  -4.218   0.002  0.00  0.00    -0.491 OA
ATOM     24  C   UNL     1      -1.145  -4.855  -0.013  0.00  0.00    +0.277 C 
ENDBRANCH   2  23
BRANCH   1  25
ATOM     25  O   UNL     1      -4.821  -2.867   0.031  0.00  0.00    -0.478 OA
BRANCH  25  26
ATOM     26  C   UNL     1      -5.391  -3.191  -1.239  0.00  0.00    +0.325 C 
BRANCH  26  30
ATOM     27  C   UNL     1      -8.638  -5.108  -1.899  0.00  0.00    +0.131 C 
ATOM     28  N   UNL     1      -7.390  -4.366  -2.098  0.00  0.00    -0.305 N 
ATOM     29  C   UNL     1      -6.921  -4.073  -3.455  0.00  0.00    +0.131 C 
ATOM     30  C   UNL     1      -6.674  -3.954  -1.034  0.00  0.00    +0.253 C 
ATOM     31  O   UNL     1      -7.062  -4.197   0.089  0.00  0.00    -0.272 OA
ENDBRANCH  26  30
ENDBRANCH  25  26
ENDBRANCH   1  25
TORSDOF 8
