REMARK  Name = ZINC41117038
REMARK  6 active torsions:
REMARK  status: ('A' for Active; 'I' for Inactive)
REMARK    1  A    between atoms: C_3  and  C_9
REMARK    2  A    between atoms: C_4  and  O_8
REMARK    3  A    between atoms: C_5  and  O_7
REMARK    4  A    between atoms: C_9  and  N_10
REMARK    5  A    between atoms: N_10  and  C_11
REMARK    6  A    between atoms: C_16  and  N_17
REMARK                            x       y       z     vdW  Elec       q    Type
REMARK                         _______ _______ _______ _____ _____    ______ ____
ROOT
ATOM      1  N   UNL     1       3.972   2.692  -1.553  0.00  0.00    -0.338 N 
ATOM      2  H   UNL     1       3.497   2.279  -2.291  0.00  0.00    +0.146 HD
ENDROOT
BRANCH   1   3
ATOM      3  C   UNL     1       5.282   3.143  -1.730  0.00  0.00    +0.059 A 
ATOM      4  C   UNL     1       5.921   3.843  -0.714  0.00  0.00    +0.045 A 
ATOM      5  C   UNL     1       7.217   4.288  -0.893  0.00  0.00    +0.043 A 
ATOM      6  C   UNL     1       7.878   4.037  -2.084  0.00  0.00    +0.022 A 
ATOM      7  C   UNL     1       7.244   3.340  -3.096  0.00  0.00    +0.036 A 
ATOM      8  C   UNL     1       5.950   2.888  -2.921  0.00  0.00    +0.147 A 
ATOM      9 CL   UNL     1       8.017   5.163   0.375  0.00  0.00    -0.083 Cl
BRANCH   8  10
ATOM     10  N   UNL     1       5.275   2.137  -4.003  0.00  0.00    +0.058 N 
ATOM     11  O   UNL     1       4.543   1.214  -3.732  0.00  0.00    -0.126 OA
ATOM     12  O   UNL     1       5.457   2.447  -5.157  0.00  0.00    -0.126 OA
ENDBRANCH   8  10
ENDBRANCH   1   3
BRANCH   1  13
ATOM     13  C   UNL     1       3.315   2.843  -0.252  0.00  0.00    +0.140 C 
BRANCH  13  16
ATOM     14  C   UNL     1      -0.442   2.615  -0.557  0.00  0.00    +0.004 A 
ATOM     15  C   UNL     1       0.840   3.128  -0.488  0.00  0.00    +0.009 A 
ATOM     16  C   UNL     1       1.919   2.280  -0.326  0.00  0.00    +0.015 A 
ATOM     17  C   UNL     1       1.717   0.912  -0.230  0.00  0.00    +0.163 A 
ATOM     18  C   UNL     1       0.427   0.396  -0.299  0.00  0.00    +0.159 A 
ATOM     19  C   UNL     1      -0.650   1.252  -0.463  0.00  0.00    +0.049 A 
BRANCH  18  20
ATOM     20  O   UNL     1       0.224  -0.945  -0.207  0.00  0.00    -0.503 OA
ATOM     21  H   UNL     1       0.089  -1.261   0.697  0.00  0.00    +0.292 HD
ENDBRANCH  18  20
BRANCH  17  22
ATOM     22  O   UNL     1       2.778   0.077  -0.070  0.00  0.00    -0.503 OA
ATOM     23  H   UNL     1       3.010  -0.093   0.853  0.00  0.00    +0.292 HD
ENDBRANCH  17  22
ENDBRANCH  13  16
ENDBRANCH   1  13
TORSDOF 6
