REMARK  Name = ZINC43861457
REMARK  6 active torsions:
REMARK  status: ('A' for Active; 'I' for Inactive)
REMARK    1  A    between atoms: C_1  and  C_2
REMARK    2  A    between atoms: C_2  and  C_4
REMARK    3  A    between atoms: C_2  and  N_14
REMARK    4  A    between atoms: N_17  and  N_18
REMARK    5  A    between atoms: C_19  and  O_21
REMARK    6  A    between atoms: O_21  and  C_22
REMARK                            x       y       z     vdW  Elec       q    Type
REMARK                         _______ _______ _______ _____ _____    ______ ____
ROOT
ATOM      1  C   UNL     1      -0.019   1.526   0.010  0.00  0.00    +0.033 C 
ATOM      2  C   UNL     1       0.002  -0.004   0.002  0.00  0.00    +0.102 C 
ENDROOT
BRANCH   2   3
ATOM      3  C   UNL     1       0.707  -0.490  -1.238  0.00  0.00    -0.027 A 
ATOM      4  C   UNL     1       2.089  -0.512  -1.286  0.00  0.00    +0.006 A 
ATOM      5  C   UNL     1       2.727  -0.955  -2.426  0.00  0.00    +0.004 A 
ATOM      6  C   UNL     1       1.994  -1.382  -3.526  0.00  0.00    -0.044 A 
ATOM      7  C   UNL     1       0.618  -1.365  -3.475  0.00  0.00    -0.044 A 
ATOM      8  C   UNL     1      -0.023  -0.920  -2.326  0.00  0.00    +0.009 A 
ATOM      9  C   UNL     1      -0.241  -1.828  -4.623  0.00  0.00    +0.035 C 
ATOM     10  C   UNL     1       0.570  -1.873  -5.917  0.00  0.00    +0.005 C 
ATOM     11  C   UNL     1       1.853  -2.670  -5.656  0.00  0.00    +0.005 C 
ATOM     12  C   UNL     1       2.755  -1.846  -4.740  0.00  0.00    +0.035 C 
ENDBRANCH   2   3
BRANCH   2  13
ATOM     13  N   UNL     1       0.711  -0.489   1.189  0.00  0.00    -0.292 N 
ATOM     14  C   UNL     1       0.051  -0.633   2.355  0.00  0.00    +0.316 C 
ATOM     15  O   UNL     1      -1.132  -0.361   2.423  0.00  0.00    -0.251 OA
ATOM     16  N   UNL     1       0.703  -1.080   3.447  0.00  0.00    -0.216 N 
ATOM     17  H   UNL     1       1.654  -0.707   1.135  0.00  0.00    +0.151 HD
ATOM     18  H   UNL     1       0.229  -1.184   4.287  0.00  0.00    +0.174 HD
BRANCH  16  19
ATOM     19  N   UNL     1       2.066  -1.394   3.370  0.00  0.00    -0.198 N 
ATOM     20  C   UNL     1       2.718  -1.841   4.462  0.00  0.00    +0.417 C 
ATOM     21  O   UNL     1       3.900  -2.113   4.394  0.00  0.00    -0.225 OA
ATOM     22  H   UNL     1       2.541  -1.290   2.530  0.00  0.00    +0.176 HD
BRANCH  20  23
ATOM     23  O   UNL     1       2.059  -1.985   5.627  0.00  0.00    -0.453 OA
ATOM     24  C   UNL     1       2.813  -2.462   6.743  0.00  0.00    +0.282 C 
ENDBRANCH  20  23
ENDBRANCH  16  19
ENDBRANCH   2  13
TORSDOF 4
