REMARK  Name = ZINC39561242
REMARK  9 active torsions:
REMARK  status: ('A' for Active; 'I' for Inactive)
REMARK    1  A    between atoms: C_1  and  C_2
REMARK    2  A    between atoms: C_2  and  C_4
REMARK    3  A    between atoms: C_2  and  O_20
REMARK    4  A    between atoms: N_6  and  C_7
REMARK    5  A    between atoms: C_7  and  C_8
REMARK    6  A    between atoms: N_10  and  C_11
REMARK    7  A    between atoms: O_20  and  C_21
REMARK    8  A    between atoms: C_21  and  C_23
REMARK    9  A    between atoms: C_25  and  N_31
REMARK                            x       y       z     vdW  Elec       q    Type
REMARK                         _______ _______ _______ _____ _____    ______ ____
ROOT
ATOM      1  C   UNL     1       0.710  -0.534   1.221  0.00  0.00    +0.254 C 
ATOM      2  O   UNL     1       1.751  -1.144   1.098  0.00  0.00    -0.272 OA
ATOM      3  N   UNL     1       0.209  -0.298   2.450  0.00  0.00    -0.304 N 
ATOM      4  H   UNL     1      -0.624   0.190   2.548  0.00  0.00    +0.149 HD
ENDROOT
BRANCH   1   6
ATOM      5  C   UNL     1      -0.038   1.490  -0.001  0.00  0.00    +0.062 C 
ATOM      6  C   UNL     1      -0.022  -0.040   0.000  0.00  0.00    +0.259 C 
BRANCH   6   7
ATOM      7  O   UNL     1       0.640  -0.510  -1.175  0.00  0.00    -0.448 OA
BRANCH   7   8
ATOM      8  C   UNL     1      -0.124  -0.723  -2.264  0.00  0.00    +0.360 C 
ATOM      9  O   UNL     1      -1.320  -0.514  -2.217  0.00  0.00    -0.243 OA
BRANCH   8  10
ATOM     10  C   UNL     1       0.492  -1.210  -3.517  0.00  0.00    +0.169 A 
ATOM     11  C   UNL     1      -0.303  -1.422  -4.640  0.00  0.00    +0.095 A 
ATOM     12  C   UNL     1       0.295  -1.881  -5.815  0.00  0.00    +0.067 A 
ATOM     13  C   UNL     1       1.670  -2.109  -5.812  0.00  0.00    +0.100 A 
ATOM     14  C   UNL     1       2.393  -1.874  -4.654  0.00  0.00    +0.150 A 
ATOM     15  N   UNL     1       1.802  -1.436  -3.562  0.00  0.00    -0.226 NA
ATOM     16 CL   UNL     1       4.106  -2.156  -4.643  0.00  0.00    -0.060 Cl
ATOM     17 CL   UNL     1       2.467  -2.681  -7.244  0.00  0.00    -0.078 Cl
ATOM     18 CL   UNL     1      -2.011  -1.120  -4.580  0.00  0.00    -0.079 Cl
BRANCH  12  19
ATOM     19  N   UNL     1      -0.464  -2.106  -6.961  0.00  0.00    -0.356 N 
ATOM     20  H   UNL     1      -1.421  -1.944  -6.949  0.00  0.00    +0.142 HD
ATOM     21  H   UNL     1      -0.036  -2.426  -7.771  0.00  0.00    +0.142 HD
ENDBRANCH  12  19
ENDBRANCH   8  10
ENDBRANCH   7   8
ENDBRANCH   6   7
ENDBRANCH   1   6
BRANCH   3  22
ATOM     22  C   UNL     1       0.921  -0.778   3.636  0.00  0.00    +0.200 C 
BRANCH  22  23
ATOM     23  C   UNL     1       0.156  -0.386   4.874  0.00  0.00    +0.234 C 
ATOM     24  O   UNL     1      -0.882   0.233   4.775  0.00  0.00    -0.274 OA
ATOM     25  N   UNL     1       0.625  -0.724   6.092  0.00  0.00    -0.282 N 
ATOM     26  H   UNL     1       1.420  -1.275   6.169  0.00  0.00    +0.155 HD
BRANCH  25  27
ATOM     27  C   UNL     1      -0.036  -0.281   7.245  0.00  0.00    +0.072 A 
ATOM     28  C   UNL     1      -1.418  -0.155   7.250  0.00  0.00    +0.029 A 
ATOM     29  C   UNL     1      -2.069   0.283   8.387  0.00  0.00    +0.043 A 
ATOM     30  C   UNL     1      -1.344   0.597   9.524  0.00  0.00    +0.161 A 
ATOM     31  C   UNL     1       0.036   0.473   9.524  0.00  0.00    +0.195 A 
ATOM     32  C   UNL     1       0.692   0.029   8.388  0.00  0.00    +0.182 A 
ATOM     33  F   UNL     1       2.037  -0.097   8.389  0.00  0.00    -0.200 F 
ATOM     34  F   UNL     1       0.742   0.781  10.634  0.00  0.00    -0.199 F 
ATOM     35  F   UNL     1      -1.984   1.025  10.634  0.00  0.00    -0.202 F 
ENDBRANCH  25  27
ENDBRANCH  22  23
ENDBRANCH   3  22
TORSDOF 8
