REMARK  Name = ZINC64982300
REMARK  8 active torsions:
REMARK  status: ('A' for Active; 'I' for Inactive)
REMARK    1  A    between atoms: C_1  and  C_2
REMARK    2  A    between atoms: C_5  and  N_11
REMARK    3  A    between atoms: C_6  and  N_8
REMARK    4  A    between atoms: C_12  and  C_14
REMARK    5  A    between atoms: C_14  and  C_16
REMARK    6  A    between atoms: C_14  and  O_17
REMARK    7  A    between atoms: O_17  and  C_18
REMARK    8  A    between atoms: C_22  and  C_24
REMARK                            x       y       z     vdW  Elec       q    Type
REMARK                         _______ _______ _______ _____ _____    ______ ____
ROOT
ATOM      1  N   UNL     1       0.091  -4.026  -0.066  0.00  0.00    -0.281 N 
ATOM      2  C   UNL     1       0.042  -4.642  -1.264  0.00  0.00    +0.258 C 
ATOM      3  O   UNL     1       0.096  -3.988  -2.284  0.00  0.00    -0.271 OA
ATOM      4  H   UNL     1       0.108  -4.552   0.749  0.00  0.00    +0.155 HD
ENDROOT
BRANCH   1   9
ATOM      5  C   UNL     1       0.203   1.639   0.209  0.00  0.00    +0.044 C 
ATOM      6  C   UNL     1       0.173   0.134   0.136  0.00  0.00    -0.048 A 
ATOM      7  C   UNL     1       0.827  -0.520  -0.892  0.00  0.00    +0.005 A 
ATOM      8  C   UNL     1       0.802  -1.899  -0.962  0.00  0.00    +0.026 A 
ATOM      9  C   UNL     1       0.119  -2.629   0.002  0.00  0.00    +0.064 A 
ATOM     10  C   UNL     1      -0.537  -1.969   1.033  0.00  0.00    +0.148 A 
ATOM     11  C   UNL     1      -0.503  -0.590   1.100  0.00  0.00    +0.038 A 
BRANCH  10  12
ATOM     12  N   UNL     1      -1.266  -2.744   2.062  0.00  0.00    +0.058 N 
ATOM     13  O   UNL     1      -1.908  -2.168   2.909  0.00  0.00    -0.126 OA
ATOM     14  O   UNL     1      -1.219  -3.952   2.055  0.00  0.00    -0.126 OA
ENDBRANCH  10  12
ENDBRANCH   1   9
BRANCH   2  15
ATOM     15  C   UNL     1      -0.081  -6.142  -1.336  0.00  0.00    +0.256 C 
ATOM     16  C   UNL     1       1.178  -6.785  -0.751  0.00  0.00    +0.062 C 
BRANCH  15  17
ATOM     17  O   UNL     1      -0.231  -6.543  -2.699  0.00  0.00    -0.480 OA
BRANCH  17  18
ATOM     18  C   UNL     1      -0.839  -7.737  -2.928  0.00  0.00    +0.122 A 
ATOM     19  C   UNL     1      -1.367  -8.461  -1.869  0.00  0.00    +0.047 A 
ATOM     20  C   UNL     1      -1.984  -9.675  -2.104  0.00  0.00    +0.024 A 
ATOM     21  C   UNL     1      -2.075 -10.168  -3.393  0.00  0.00    +0.044 A 
ATOM     22  C   UNL     1      -1.548  -9.448  -4.450  0.00  0.00    -0.029 A 
ATOM     23  C   UNL     1      -0.936  -8.230  -4.221  0.00  0.00    +0.050 A 
ATOM     24  C   UNL     1      -1.648  -9.988  -5.854  0.00  0.00    +0.045 C 
ATOM     25 CL   UNL     1      -2.850 -11.694  -3.685  0.00  0.00    -0.083 Cl
ENDBRANCH  17  18
ENDBRANCH  15  17
ENDBRANCH   2  15
TORSDOF 5
