REMARK  Name = ZINC51577305
REMARK  7 active torsions:
REMARK  status: ('A' for Active; 'I' for Inactive)
REMARK    1  A    between atoms: C_1  and  C_2
REMARK    2  A    between atoms: C_6  and  C_8
REMARK    3  A    between atoms: C_8  and  N_9
REMARK    4  A    between atoms: N_9  and  S_10
REMARK    5  A    between atoms: S_10  and  C_13
REMARK    6  A    between atoms: C_18  and  N_19
REMARK    7  A    between atoms: N_19  and  N_20
REMARK                            x       y       z     vdW  Elec       q    Type
REMARK                         _______ _______ _______ _____ _____    ______ ____
ROOT
ATOM      1  S   UNL     1       1.768  -3.047   4.663  0.00  0.00    +0.062 S 
ATOM      2  O   UNL     1       3.158  -2.996   4.953  0.00  0.00    -0.153 OA
ATOM      3  O   UNL     1       0.827  -2.187   5.291  0.00  0.00    -0.153 OA
ENDROOT
BRANCH   1   4
ATOM      4  C   UNL     1       1.244  -4.696   4.995  0.00  0.00    +0.147 A 
ATOM      5  C   UNL     1       0.128  -4.933   5.779  0.00  0.00    +0.048 A 
ATOM      6  C   UNL     1      -0.249  -6.248   6.015  0.00  0.00    +0.038 A 
ATOM      7  C   UNL     1       0.496  -7.274   5.465  0.00  0.00    +0.128 A 
ATOM      8  N   UNL     1       1.555  -7.018   4.722  0.00  0.00    -0.236 NA
ATOM      9  C   UNL     1       1.943  -5.777   4.469  0.00  0.00    +0.159 A 
ATOM     10 BR   UNL     1      -1.764  -6.632   7.078  0.00  0.00    -0.049 Br
BRANCH   9  11
ATOM     11  N   UNL     1       3.062  -5.553   3.675  0.00  0.00    -0.266 N 
ATOM     12  H   UNL     1       3.298  -4.649   3.413  0.00  0.00    +0.167 HD
BRANCH  11  13
ATOM     13  N   UNL     1       3.829  -6.606   3.263  0.00  0.00    -0.255 NA
ATOM     14  H   UNL     1       4.602  -6.290   2.697  0.00  0.00    +0.140 HD
ATOM     15  H   UNL     1       4.154  -7.146   4.050  0.00  0.00    +0.140 HD
ENDBRANCH  11  13
ENDBRANCH   9  11
ENDBRANCH   1   4
BRANCH   1  16
ATOM     16  N   UNL     1       1.616  -2.804   3.032  0.00  0.00    -0.184 NA
ATOM     17  H   UNL     1       2.404  -2.645   2.490  0.00  0.00    +0.148 HD
BRANCH  16  18
ATOM     18  C   UNL     1       0.290  -2.830   2.408  0.00  0.00    +0.161 C 
BRANCH  18  24
ATOM     19  C   UNL     1       0.231   1.157  -0.407  0.00  0.00    +0.065 C 
ATOM     20  C   UNL     1       0.344  -0.342  -0.298  0.00  0.00    +0.039 A 
ATOM     21  C   UNL     1       0.515  -1.099  -1.442  0.00  0.00    +0.023 A 
ATOM     22  C   UNL     1       0.618  -2.477  -1.331  0.00  0.00    +0.004 A 
ATOM     23  C   UNL     1       0.544  -3.045  -0.068  0.00  0.00    +0.025 A 
ATOM     24  C   UNL     1       0.372  -2.224   1.030  0.00  0.00    +0.057 A 
ATOM     25  N   UNL     1       0.283  -0.916   0.887  0.00  0.00    -0.255 NA
ENDBRANCH  18  24
ENDBRANCH  16  18
ENDBRANCH   1  16
TORSDOF 6
