REMARK  Name = ZINC42014863
REMARK  7 active torsions:
REMARK  status: ('A' for Active; 'I' for Inactive)
REMARK    1  A    between atoms: C_1  and  C_2
REMARK    2  A    between atoms: C_3  and  N_18
REMARK    3  A    between atoms: C_5  and  C_9
REMARK    4  A    between atoms: N_13  and  C_14
REMARK    5  A    between atoms: C_14  and  C_15
REMARK    6  A    between atoms: C_14  and  C_16
REMARK    7  A    between atoms: C_14  and  C_17
REMARK                            x       y       z     vdW  Elec       q    Type
REMARK                         _______ _______ _______ _____ _____    ______ ____
ROOT
ATOM      1  C   UNL     1       3.459   1.490   2.513  0.00  0.00    +0.048 C 
ATOM      2  C   UNL     1       2.854   0.246   1.913  0.00  0.00    +0.005 A 
ATOM      3  C   UNL     1       3.258  -0.183   0.654  0.00  0.00    +0.031 A 
ATOM      4  C   UNL     1       2.703  -1.327   0.100  0.00  0.00    +0.034 A 
ATOM      5  C   UNL     1       1.740  -2.043   0.809  0.00  0.00    +0.025 A 
ATOM      6  C   UNL     1       1.339  -1.606   2.071  0.00  0.00    +0.050 A 
ATOM      7  C   UNL     1       1.902  -0.468   2.619  0.00  0.00    +0.129 A 
ATOM      8  F   UNL     1       1.517  -0.049   3.845  0.00  0.00    -0.205 F 
ENDROOT
BRANCH   5   9
ATOM      9  C   UNL     1       1.143  -3.264   0.222  0.00  0.00    +0.183 A 
ATOM     10  N   UNL     1       0.855  -3.462  -1.046  0.00  0.00    -0.108 NA
ATOM     11  N   UNL     1       0.348  -4.630  -1.215  0.00  0.00    -0.023 NA
ATOM     12  N   UNL     1       0.275  -5.255  -0.090  0.00  0.00    -0.043 NA
ATOM     13  N   UNL     1       0.795  -4.392   0.890  0.00  0.00    -0.220 N 
BRANCH  13  14
ATOM     14  C   UNL     1       0.930  -4.654   2.325  0.00  0.00    +0.059 C 
ATOM     15  C   UNL     1      -0.194  -3.943   3.081  0.00  0.00    +0.036 C 
ATOM     16  C   UNL     1       0.844  -6.160   2.579  0.00  0.00    +0.036 C 
ATOM     17  C   UNL     1       2.283  -4.131   2.814  0.00  0.00    +0.036 C 
ENDBRANCH  13  14
ENDBRANCH   5   9
BRANCH   3  18
ATOM     18  N   UNL     1       4.224   0.538  -0.053  0.00  0.00    -0.358 N 
ATOM     19  H   UNL     1       4.612   1.338   0.335  0.00  0.00    +0.142 HD
ATOM     20  H   UNL     1       4.506   0.238  -0.931  0.00  0.00    +0.142 HD
ENDBRANCH   3  18
TORSDOF 3
