REMARK  Name = ZINC36749584
REMARK  6 active torsions:
REMARK  status: ('A' for Active; 'I' for Inactive)
REMARK    1  A    between atoms: C_1  and  C_2
REMARK    2  A    between atoms: C_3  and  N_18
REMARK    3  A    between atoms: C_4  and  O_8
REMARK    4  A    between atoms: N_5  and  C_7
REMARK    5  A    between atoms: O_8  and  C_9
REMARK    6  A    between atoms: C_14  and  C_17
REMARK                            x       y       z     vdW  Elec       q    Type
REMARK                         _______ _______ _______ _____ _____    ______ ____
ROOT
ATOM      1  C   UNL     1       1.202   0.841   1.093  0.00  0.00    +0.069 C 
ATOM      2  C   UNL     1       0.433  -0.293   0.464  0.00  0.00    +0.084 A 
ATOM      3  C   UNL     1       0.972  -1.294  -0.352  0.00  0.00    +0.110 A 
ATOM      4  C   UNL     1      -0.043  -2.127  -0.717  0.00  0.00    +0.235 A 
ATOM      5  N   UNL     1      -1.183  -1.656  -0.144  0.00  0.00    -0.234 N 
ATOM      6  N   UNL     1      -0.852  -0.511   0.592  0.00  0.00    -0.172 NA
ATOM      7  C   UNL     1      -2.518  -2.244  -0.270  0.00  0.00    +0.176 C 
ENDROOT
BRANCH   3   8
ATOM      8  N   UNL     1       2.328  -1.420  -0.731  0.00  0.00    -0.352 N 
ATOM      9  H   UNL     1       2.980  -0.773  -0.419  0.00  0.00    +0.143 HD
ATOM     10  H   UNL     1       2.606  -2.152  -1.303  0.00  0.00    +0.143 HD
ENDBRANCH   3   8
BRANCH   4  11
ATOM     11  O   UNL     1       0.064  -3.226  -1.509  0.00  0.00    -0.472 OA
BRANCH  11  12
ATOM     12  C   UNL     1       0.208  -4.487  -0.852  0.00  0.00    +0.175 C 
ATOM     13  C   UNL     1       1.693  -4.771  -0.613  0.00  0.00    +0.044 C 
ATOM     14  C   UNL     1       1.847  -6.121   0.090  0.00  0.00    +0.004 C 
ATOM     15  C   UNL     1       1.252  -7.224  -0.787  0.00  0.00    +0.003 C 
ATOM     16  C   UNL     1      -0.232  -6.940  -1.026  0.00  0.00    -0.011 C 
ATOM     17  C   UNL     1      -0.386  -5.590  -1.730  0.00  0.00    +0.048 C 
ATOM     18  C   UNL     1      -0.827  -8.043  -1.904  0.00  0.00    +0.007 C 
ENDBRANCH  11  12
ENDBRANCH   4  11
TORSDOF 3
