REMARK  Name = ZINC40291930
REMARK  11 active torsions:
REMARK  status: ('A' for Active; 'I' for Inactive)
REMARK    1  A    between atoms: C_1  and  C_2
REMARK    2  A    between atoms: C_3  and  C_20
REMARK    3  A    between atoms: C_6  and  O_12
REMARK    4  A    between atoms: C_7  and  C_8
REMARK    5  A    between atoms: N_9  and  O_10
REMARK    6  A    between atoms: O_12  and  C_13
REMARK    7  A    between atoms: C_13  and  C_15
REMARK    8  A    between atoms: C_13  and  C_16
REMARK    9  A    between atoms: C_16  and  C_17
REMARK   10  A    between atoms: C_17  and  C_18
REMARK   11  A    between atoms: C_17  and  C_19
REMARK                            x       y       z     vdW  Elec       q    Type
REMARK                         _______ _______ _______ _____ _____    ______ ____
ROOT
ATOM      1  C   UNL     1      -0.202   1.629   0.653  0.00  0.00    +0.046 C 
ATOM      2  C   UNL     1      -0.143   0.134   0.474  0.00  0.00    -0.012 A 
ATOM      3  C   UNL     1      -0.143  -0.435  -0.789  0.00  0.00    +0.064 A 
ATOM      4  N   UNL     1      -0.091  -1.746  -0.924  0.00  0.00    -0.151 NA
ATOM      5  N   UNL     1      -0.038  -2.543   0.081  0.00  0.00    -0.111 NA
ATOM      6  C   UNL     1      -0.032  -2.105   1.329  0.00  0.00    +0.246 A 
ATOM      7  C   UNL     1      -0.080  -0.724   1.578  0.00  0.00    +0.085 A 
ATOM      8  C   UNL     1      -0.203   0.445  -2.010  0.00  0.00    +0.068 C 
ENDROOT
BRANCH   7   9
ATOM      9  C   UNL     1      -0.069  -0.194   2.960  0.00  0.00    +0.168 C 
ATOM     10  N   UNL     1      -1.189  -0.009   3.594  0.00  0.00    -0.071 NA
ATOM     11  N   UNL     1       1.134   0.105   3.578  0.00  0.00    -0.340 N 
ATOM     12  H   UNL     1       1.970  -0.033   3.104  0.00  0.00    +0.144 HD
ATOM     13  H   UNL     1       1.141   0.453   4.483  0.00  0.00    +0.144 HD
BRANCH  10  14
ATOM     14  O   UNL     1      -1.179   0.498   4.916  0.00  0.00    -0.408 OA
ATOM     15  H   UNL     1      -2.058   0.602   5.305  0.00  0.00    +0.328 HD
ENDBRANCH  10  14
ENDBRANCH   7   9
BRANCH   6  16
ATOM     16  O   UNL     1       0.024  -2.983   2.360  0.00  0.00    -0.472 OA
BRANCH  16  17
ATOM     17  C   UNL     1       0.076  -4.372   2.027  0.00  0.00    +0.172 C 
ATOM     18  C   UNL     1      -1.347  -4.928   1.937  0.00  0.00    +0.052 C 
BRANCH  17  19
ATOM     19  C   UNL     1       0.850  -5.127   3.109  0.00  0.00    +0.047 C 
BRANCH  19  20
ATOM     20  C   UNL     1       2.297  -4.630   3.142  0.00  0.00    -0.014 C 
ATOM     21  C   UNL     1       3.032  -5.278   4.317  0.00  0.00    +0.007 C 
ATOM     22  C   UNL     1       2.995  -5.006   1.834  0.00  0.00    +0.007 C 
ENDBRANCH  19  20
ENDBRANCH  17  19
ENDBRANCH  16  17
ENDBRANCH   6  16
TORSDOF 6
