REMARK  Name = ZINC07177129
REMARK  10 active torsions:
REMARK  status: ('A' for Active; 'I' for Inactive)
REMARK    1  A    between atoms: C_1  and  C_2
REMARK    2  A    between atoms: C_5  and  C_23
REMARK    3  A    between atoms: C_6  and  N_8
REMARK    4  A    between atoms: C_9  and  C_11
REMARK    5  A    between atoms: C_11  and  C_13
REMARK    6  A    between atoms: C_11  and  S_14
REMARK    7  A    between atoms: S_14  and  C_15
REMARK    8  A    between atoms: N_19  and  C_20
REMARK    9  A    between atoms: C_20  and  C_21
REMARK   10  A    between atoms: C_20  and  C_22
REMARK                            x       y       z     vdW  Elec       q    Type
REMARK                         _______ _______ _______ _____ _____    ______ ____
ROOT
ATOM      1  N   UNL     1      -0.033   0.011  -2.413  0.00  0.00    -0.284 N 
ATOM      2  C   UNL     1       0.061  -0.653  -3.582  0.00  0.00    +0.230 C 
ATOM      3  O   UNL     1       0.078  -1.866  -3.590  0.00  0.00    -0.274 OA
ATOM      4  H   UNL     1      -0.127   0.977  -2.410  0.00  0.00    +0.155 HD
ENDROOT
BRANCH   1  10
ATOM      5  C   UNL     1       1.335  -3.970   0.128  0.00  0.00    +0.044 C 
ATOM      6  C   UNL     1       0.661  -2.624   0.056  0.00  0.00    -0.049 A 
ATOM      7  C   UNL     1       0.074  -2.084   1.187  0.00  0.00    +0.004 A 
ATOM      8  C   UNL     1      -0.545  -0.849   1.125  0.00  0.00    +0.005 A 
ATOM      9  C   UNL     1      -0.579  -0.151  -0.066  0.00  0.00    -0.029 A 
ATOM     10  C   UNL     1       0.005  -0.692  -1.203  0.00  0.00    +0.037 A 
ATOM     11  C   UNL     1       0.631  -1.930  -1.137  0.00  0.00    +0.027 A 
ATOM     12  C   UNL     1      -1.255   1.195  -0.132  0.00  0.00    +0.045 C 
ENDBRANCH   1  10
BRANCH   2  13
ATOM     13  C   UNL     1       0.146   0.110  -4.878  0.00  0.00    +0.137 C 
ATOM     14  C   UNL     1      -1.254   0.566  -5.294  0.00  0.00    +0.029 C 
BRANCH  13  15
ATOM     15  S   UNL     1       0.839  -0.958  -6.164  0.00  0.00    -0.074 S 
BRANCH  15  16
ATOM     16  C   UNL     1       0.965   0.198  -7.488  0.00  0.00    +0.192 A 
ATOM     17  N   UNL     1       0.618   1.463  -7.454  0.00  0.00    -0.123 NA
ATOM     18  N   UNL     1       0.848   2.009  -8.595  0.00  0.00    -0.137 NA
ATOM     19  C   UNL     1       1.343   1.130  -9.420  0.00  0.00    +0.226 A 
ATOM     20  N   UNL     1       1.435  -0.055  -8.744  0.00  0.00    -0.306 N 
BRANCH  20  21
ATOM     21  C   UNL     1       1.936  -1.331  -9.261  0.00  0.00    +0.084 C 
ATOM     22  C   UNL     1       1.082  -1.769 -10.453  0.00  0.00    +0.030 C 
ATOM     23  C   UNL     1       3.389  -1.165  -9.709  0.00  0.00    +0.030 C 
ENDBRANCH  20  21
ENDBRANCH  15  16
ENDBRANCH  13  15
ENDBRANCH   2  13
TORSDOF 5
