REMARK  Name = ZINC23076886
REMARK  8 active torsions:
REMARK  status: ('A' for Active; 'I' for Inactive)
REMARK    1  A    between atoms: C_1  and  C_2
REMARK    2  A    between atoms: C_4  and  N_31
REMARK    3  A    between atoms: C_5  and  C_12
REMARK    4  A    between atoms: C_9  and  C_11
REMARK    5  A    between atoms: C_12  and  O_14
REMARK    6  A    between atoms: O_14  and  C_15
REMARK    7  A    between atoms: C_15  and  C_17
REMARK    8  A    between atoms: C_15  and  C_18
REMARK                            x       y       z     vdW  Elec       q    Type
REMARK                         _______ _______ _______ _____ _____    ______ ____
ROOT
ATOM      1  O   UNL     1       4.017  -4.622  -0.608  0.00  0.00    -0.448 OA
ENDROOT
BRANCH   1   2
ATOM      2  C   UNL     1       4.394  -3.326  -0.629  0.00  0.00    +0.348 C 
ATOM      3  O   UNL     1       5.574  -3.037  -0.688  0.00  0.00    -0.244 OA
BRANCH   2   8
ATOM      4  C   UNL     1       3.609   2.166  -0.601  0.00  0.00    +0.066 C 
ATOM      5  C   UNL     1       2.355   1.332  -0.537  0.00  0.00    +0.052 A 
ATOM      6  C   UNL     1       2.436  -0.080  -0.538  0.00  0.00    +0.050 A 
ATOM      7  C   UNL     1       3.607  -0.939  -0.595  0.00  0.00    +0.057 A 
ATOM      8  C   UNL     1       3.416  -2.305  -0.583  0.00  0.00    +0.119 A 
ATOM      9  S   UNL     1       1.644  -2.475  -0.494  0.00  0.00    -0.060 S 
ATOM     10  C   UNL     1       1.194  -0.760  -0.475  0.00  0.00    +0.114 A 
ATOM     11  N   UNL     1       0.055  -0.100  -0.420  0.00  0.00    -0.225 NA
ATOM     12  C   UNL     1       0.051   1.218  -0.422  0.00  0.00    +0.128 A 
ATOM     13  N   UNL     1       1.175   1.911  -0.480  0.00  0.00    -0.237 NA
ATOM     14  C   UNL     1      -1.265   1.951  -0.365  0.00  0.00    +0.088 C 
BRANCH   7  15
ATOM     15  N   UNL     1       4.882  -0.399  -0.660  0.00  0.00    -0.356 N 
ATOM     16  H   UNL     1       5.758  -1.062  -0.702  0.00  0.00    +0.142 HD
ATOM     17  H   UNL     1       5.017   0.693  -0.669  0.00  0.00    +0.142 HD
ENDBRANCH   7  15
ENDBRANCH   2   8
ENDBRANCH   1   2
BRANCH   1  18
ATOM     18  C   UNL     1       5.057  -5.601  -0.657  0.00  0.00    +0.259 C 
ATOM     19  C   UNL     1       5.357  -5.954  -2.115  0.00  0.00    +0.062 C 
BRANCH  18  20
ATOM     20  C   UNL     1       4.616  -6.840   0.079  0.00  0.00    +0.259 C 
ATOM     21  O   UNL     1       3.487  -6.916   0.516  0.00  0.00    -0.271 OA
ATOM     22  N   UNL     1       5.476  -7.864   0.250  0.00  0.00    -0.266 N 
ATOM     23  C   UNL     1       5.069  -9.006   0.928  0.00  0.00    +0.154 A 
ATOM     24  C   UNL     1       5.952 -10.082   1.116  0.00  0.00    +0.126 A 
ATOM     25  C   UNL     1       5.486 -11.207   1.819  0.00  0.00    +0.183 A 
ATOM     26  N   UNL     1       6.537 -12.088   1.862  0.00  0.00    -0.216 NA
ATOM     27  H   UNL     1       7.811  -9.581   0.208  0.00  0.00    +0.167 HD
ATOM     28  C   UNL     1       7.578 -11.515   1.193  0.00  0.00    +0.199 A 
ATOM     29  N   UNL     1       7.236 -10.334   0.767  0.00  0.00    -0.340 N 
ATOM     30  N   UNL     1       4.237 -11.214   2.271  0.00  0.00    -0.214 NA
ATOM     31  C   UNL     1       3.443 -10.184   2.065  0.00  0.00    +0.225 A 
ATOM     32  N   UNL     1       3.839  -9.103   1.420  0.00  0.00    -0.218 NA
ATOM     33  H   UNL     1       6.499  -7.795  -0.146  0.00  0.00    +0.156 HD
ENDBRANCH  18  20
ENDBRANCH   1  18
TORSDOF 5
