REMARK  Name = ZINC36781399
REMARK  10 active torsions:
REMARK  status: ('A' for Active; 'I' for Inactive)
REMARK    1  A    between atoms: C_1  and  C_2
REMARK    2  A    between atoms: C_4  and  N_20
REMARK    3  A    between atoms: C_6  and  S_9
REMARK    4  A    between atoms: C_7  and  C_8
REMARK    5  A    between atoms: S_9  and  N_12
REMARK    6  A    between atoms: N_12  and  C_13
REMARK    7  A    between atoms: C_13  and  C_14
REMARK    8  A    between atoms: N_16  and  C_17
REMARK    9  A    between atoms: C_17  and  C_18
REMARK   10  A    between atoms: C_17  and  C_19
REMARK                            x       y       z     vdW  Elec       q    Type
REMARK                         _______ _______ _______ _____ _____    ______ ____
ROOT
ATOM      1  S   UNL     1       0.045  -2.877   2.459  0.00  0.00    +0.059 S 
ATOM      2  O   UNL     1      -0.952  -2.251   3.256  0.00  0.00    -0.153 OA
ATOM      3  O   UNL     1      -0.019  -4.250   2.099  0.00  0.00    -0.153 OA
ENDROOT
BRANCH   1   9
ATOM      4  C   UNL     1       2.164  -1.962  -2.230  0.00  0.00    +0.044 C 
ATOM      5  C   UNL     1       1.141  -1.590  -1.188  0.00  0.00    -0.044 A 
ATOM      6  C   UNL     1       0.275  -0.538  -1.415  0.00  0.00    +0.026 A 
ATOM      7  C   UNL     1      -0.668  -0.196  -0.455  0.00  0.00    +0.027 A 
ATOM      8  C   UNL     1      -0.737  -0.915   0.733  0.00  0.00    +0.051 A 
ATOM      9  C   UNL     1       0.131  -1.966   0.954  0.00  0.00    +0.110 A 
ATOM     10  C   UNL     1       1.065  -2.307  -0.008  0.00  0.00    -0.021 A 
ATOM     11  C   UNL     1       2.007  -3.458   0.234  0.00  0.00    +0.046 C 
BRANCH   7  12
ATOM     12  N   UNL     1      -1.544   0.867  -0.681  0.00  0.00    -0.358 N 
ATOM     13  H   UNL     1      -1.495   1.368  -1.510  0.00  0.00    +0.142 HD
ATOM     14  H   UNL     1      -2.202   1.105  -0.009  0.00  0.00    +0.142 HD
ENDBRANCH   7  12
ENDBRANCH   1   9
BRANCH   1  15
ATOM     15  N   UNL     1       1.486  -2.660   3.246  0.00  0.00    -0.181 NA
ATOM     16  H   UNL     1       2.081  -3.413   3.384  0.00  0.00    +0.149 HD
BRANCH  15  17
ATOM     17  C   UNL     1       1.860  -1.331   3.735  0.00  0.00    +0.201 C 
BRANCH  17  18
ATOM     18  C   UNL     1       2.986  -1.460   4.729  0.00  0.00    +0.229 C 
ATOM     19  O   UNL     1       3.431  -2.554   5.002  0.00  0.00    -0.274 OA
ATOM     20  N   UNL     1       3.497  -0.359   5.315  0.00  0.00    -0.312 N 
ATOM     21  H   UNL     1       3.141   0.517   5.096  0.00  0.00    +0.149 HD
BRANCH  20  22
ATOM     22  C   UNL     1       4.591  -0.484   6.281  0.00  0.00    +0.067 C 
ATOM     23  C   UNL     1       5.927  -0.530   5.536  0.00  0.00    +0.027 C 
ATOM     24  C   UNL     1       4.576   0.718   7.228  0.00  0.00    +0.027 C 
ENDBRANCH  20  22
ENDBRANCH  17  18
ENDBRANCH  15  17
ENDBRANCH   1  15
TORSDOF 6
