REMARK  Name = ZINC13783420
REMARK  8 active torsions:
REMARK  status: ('A' for Active; 'I' for Inactive)
REMARK    1  A    between atoms: C_1  and  C_2
REMARK    2  A    between atoms: C_4  and  O_32
REMARK    3  A    between atoms: C_12  and  O_20
REMARK    4  A    between atoms: C_14  and  C_15
REMARK    5  A    between atoms: C_14  and  O_19
REMARK    6  A    between atoms: C_15  and  C_17
REMARK    7  A    between atoms: C_17  and  O_18
REMARK    8  A    between atoms: C_29  and  C_30
REMARK                            x       y       z     vdW  Elec       q    Type
REMARK                         _______ _______ _______ _____ _____    ______ ____
ROOT
ATOM      1  C   UNL     1       1.901  -1.381  -0.965  0.00  0.00    +0.015 C 
ATOM      2  C   UNL     1       1.535  -0.203  -0.055  0.00  0.00    +0.012 C 
ATOM      3  C   UNL     1       2.041  -0.398   1.371  0.00  0.00    +0.044 C 
ATOM      4  C   UNL     1       3.569  -0.283   1.447  0.00  0.00    +0.154 C 
ATOM      5  C   UNL     1       4.003   1.106   1.002  0.00  0.00    +0.153 C 
ATOM      6  C   UNL     1       3.483   1.421  -0.393  0.00  0.00    +0.034 C 
ATOM      7  C   UNL     1       2.024   1.141  -0.613  0.00  0.00    +0.007 C 
ATOM      8  C   UNL     1       1.117   2.183   0.071  0.00  0.00    +0.039 C 
ATOM      9  C   UNL     1      -0.260   1.491   0.154  0.00  0.00    +0.154 C 
ATOM     10  C   UNL     1      -0.005  -0.021   0.027  0.00  0.00    +0.157 C 
ATOM     11  C   UNL     1       4.359   0.714  -1.432  0.00  0.00    +0.011 C 
ATOM     12  C   UNL     1       5.658   1.519  -1.526  0.00  0.00    +0.032 C 
ATOM     13  C   UNL     1       6.164   1.831  -0.137  0.00  0.00    -0.053 C 
ATOM     14  C   UNL     1       7.301   2.547  -0.078  0.00  0.00    +0.051 C 
ATOM     15  C   UNL     1       7.873   2.887   1.242  0.00  0.00    +0.179 C 
ATOM     16  O   UNL     1       9.052   3.208   1.359  0.00  0.00    -0.288 OA
ATOM     17  C   UNL     1       6.964   2.858   2.409  0.00  0.00    +0.047 C 
ATOM     18  C   UNL     1       5.809   2.191   2.314  0.00  0.00    -0.009 C 
ATOM     19  C   UNL     1       5.489   1.361   1.105  0.00  0.00    +0.044 C 
ATOM     20  C   UNL     1       6.173   0.022   1.382  0.00  0.00    +0.023 C 
ATOM     21  F   UNL     1       3.389   2.031   1.881  0.00  0.00    -0.238 F 
ENDROOT
BRANCH  10  22
ATOM     22  C   UNL     1      -0.651  -0.549  -1.229  0.00  0.00    +0.193 C 
ATOM     23  O   UNL     1      -0.689   0.137  -2.223  0.00  0.00    -0.292 OA
BRANCH  22  24
ATOM     24  C   UNL     1      -1.248  -1.933  -1.245  0.00  0.00    +0.233 C 
BRANCH  24  25
ATOM     25  O   UNL     1      -1.794  -2.201  -2.538  0.00  0.00    -0.387 OA
ATOM     26  H   UNL     1      -2.197  -3.076  -2.621  0.00  0.00    +0.210 HD
ENDBRANCH  24  25
ENDBRANCH  22  24
ENDBRANCH  10  22
BRANCH  10  27
ATOM     27  O   UNL     1      -0.525  -0.708   1.165  0.00  0.00    -0.378 OA
ATOM     28  H   UNL     1      -1.481  -0.615   1.278  0.00  0.00    +0.211 HD
ENDBRANCH  10  27
BRANCH   9  29
ATOM     29  O   UNL     1      -1.101   1.939  -0.910  0.00  0.00    -0.388 OA
ATOM     30  H   UNL     1      -1.298   2.886  -0.884  0.00  0.00    +0.210 HD
ENDBRANCH   9  29
BRANCH   4  31
ATOM     31  O   UNL     1       3.914  -0.496   2.827  0.00  0.00    -0.389 OA
ATOM     32  H   UNL     1       3.661  -1.366   3.165  0.00  0.00    +0.210 HD
ENDBRANCH   4  31
TORSDOF 6
