REMARK  Name = ZINC40760798
REMARK  9 active torsions:
REMARK  status: ('A' for Active; 'I' for Inactive)
REMARK    1  A    between atoms: C_1  and  C_2
REMARK    2  A    between atoms: C_2  and  C_30
REMARK    3  A    between atoms: C_4  and  N_10
REMARK    4  A    between atoms: C_6  and  C_8
REMARK    5  A    between atoms: C_6  and  C_9
REMARK    6  A    between atoms: C_12  and  N_29
REMARK    7  A    between atoms: C_13  and  N_17
REMARK    8  A    between atoms: C_23  and  O_27
REMARK    9  A    between atoms: O_27  and  C_28
REMARK                            x       y       z     vdW  Elec       q    Type
REMARK                         _______ _______ _______ _____ _____    ______ ____
ROOT
ATOM      1  N   UNL     1       1.633  -2.333  -2.511  0.00  0.00    -0.325 N 
ATOM      2  C   UNL     1       1.545  -3.642  -2.968  0.00  0.00    +0.145 A 
ATOM      3  C   UNL     1       2.184  -4.026  -4.150  0.00  0.00    +0.106 A 
ATOM      4  C   UNL     1       2.064  -5.353  -4.562  0.00  0.00    +0.150 A 
ATOM      5  N   UNL     1       1.351  -6.197  -3.820  0.00  0.00    -0.219 NA
ATOM      6  C   UNL     1       0.764  -5.795  -2.712  0.00  0.00    +0.225 A 
ATOM      7  N   UNL     1       0.856  -4.552  -2.284  0.00  0.00    -0.219 NA
ATOM      8  H   UNL     1       2.137  -1.676  -3.016  0.00  0.00    +0.148 HD
ENDROOT
BRANCH   1  12
ATOM      9  C   UNL     1      -0.019   1.542   0.011  0.00  0.00    -0.010 C 
ATOM     10  C   UNL     1       0.002  -0.004   0.002  0.00  0.00    -0.072 C 
ATOM     11  C   UNL     1       0.670  -0.443  -1.297  0.00  0.00    +0.009 C 
ATOM     12  C   UNL     1       0.963  -1.944  -1.265  0.00  0.00    +0.069 C 
ATOM     13  C   UNL     1       1.892  -2.223  -0.084  0.00  0.00    +0.009 C 
ATOM     14  C   UNL     1       1.233  -1.798   1.224  0.00  0.00    -0.072 C 
ATOM     15  N   UNL     1       0.711  -0.443   1.191  0.00  0.00    +0.386 N 
ATOM     16  C   UNL     1       2.314  -1.859   2.328  0.00  0.00    -0.010 C 
ATOM     17  C   UNL     1       0.143  -2.805   1.606  0.00  0.00    -0.010 C 
ATOM     18  C   UNL     1      -1.457  -0.473   0.018  0.00  0.00    -0.010 C 
ATOM     19  H   UNL     1       1.489   0.204   1.356  0.00  0.00    -0.084 HD
ATOM     20  H   UNL     1       0.093  -0.317   1.998  0.00  0.00    -0.084 HD
ENDBRANCH   1  12
BRANCH   4  21
ATOM     21  N   UNL     1       2.679  -5.788  -5.732  0.00  0.00    -0.277 N 
ATOM     22  C   UNL     1       2.554  -7.106  -6.131  0.00  0.00    +0.165 A 
ATOM     23  N   UNL     1       1.897  -8.083  -5.550  0.00  0.00    -0.225 NA
ATOM     24  C   UNL     1       1.859  -9.335  -6.058  0.00  0.00    +0.081 A 
ATOM     25  C   UNL     1       1.196 -10.469  -5.535  0.00  0.00    +0.032 A 
ATOM     26  C   UNL     1       1.257 -11.677  -6.178  0.00  0.00    +0.048 A 
ATOM     27  C   UNL     1       1.971 -11.834  -7.362  0.00  0.00    +0.121 A 
ATOM     28  C   UNL     1       2.634 -10.741  -7.902  0.00  0.00    +0.063 A 
ATOM     29  C   UNL     1       2.574  -9.529  -7.262  0.00  0.00    +0.044 A 
ATOM     30  S   UNL     1       3.236  -7.910  -7.574  0.00  0.00    -0.052 S 
ATOM     31  H   UNL     1       3.197  -5.166  -6.268  0.00  0.00    +0.156 HD
BRANCH  27  32
ATOM     32  O   UNL     1       2.019 -13.043  -7.982  0.00  0.00    -0.495 OA
ATOM     33  C   UNL     1       1.311 -14.118  -7.362  0.00  0.00    +0.277 C 
ENDBRANCH  27  32
ENDBRANCH   4  21
BRANCH   3  34
ATOM     34  N   UNL     1       2.926  -3.101  -4.901  0.00  0.00    -0.353 N 
ATOM     35  H   UNL     1       3.000  -2.181  -4.602  0.00  0.00    +0.143 HD
ATOM     36  H   UNL     1       3.364  -3.382  -5.720  0.00  0.00    +0.143 HD
ENDBRANCH   3  34
TORSDOF 4
