REMARK  Name = ZINC40743095
REMARK  9 active torsions:
REMARK  status: ('A' for Active; 'I' for Inactive)
REMARK    1  A    between atoms: C_1  and  C_2
REMARK    2  A    between atoms: N_17  and  C_18
REMARK    3  A    between atoms: C_26  and  C_41
REMARK    4  A    between atoms: C_29  and  O_40
REMARK    5  A    between atoms: C_32  and  C_39
REMARK    6  A    between atoms: C_33  and  C_34
REMARK    7  A    between atoms: C_33  and  O_38
REMARK    8  A    between atoms: C_34  and  C_36
REMARK    9  A    between atoms: C_36  and  O_37
REMARK                            x       y       z     vdW  Elec       q    Type
REMARK                         _______ _______ _______ _____ _____    ______ ____
ROOT
ATOM      1  C   UNL     1      -0.527   2.615   0.490  0.00  0.00    +0.011 C 
ATOM      2  C   UNL     1      -0.409   1.128   0.149  0.00  0.00    +0.026 C 
ATOM      3  C   UNL     1      -1.818   0.479   0.096  0.00  0.00    +0.011 C 
ATOM      4  C   UNL     1      -1.884  -0.337   1.395  0.00  0.00    +0.002 C 
ATOM      5  C   UNL     1      -2.935  -1.407   1.469  0.00  0.00    -0.001 C 
ATOM      6  C   UNL     1      -3.477  -1.844   0.120  0.00  0.00    +0.008 C 
ATOM      7  C   UNL     1      -4.171  -3.201   0.228  0.00  0.00    +0.031 C 
ATOM      8  C   UNL     1      -4.628  -3.450   1.645  0.00  0.00    -0.061 C 
ATOM      9  C   UNL     1      -5.919  -3.692   1.877  0.00  0.00    +0.028 C 
ATOM     10  C   UNL     1      -6.335  -3.916   3.270  0.00  0.00    +0.071 A 
ATOM     11  C   UNL     1      -5.502  -3.535   4.319  0.00  0.00    -0.001 A 
ATOM     12  C   UNL     1      -6.130  -3.869   5.500  0.00  0.00    +0.139 A 
ATOM     13  N   UNL     1      -7.294  -4.411   5.214  0.00  0.00    -0.174 NA
ATOM     14  N   UNL     1      -7.451  -4.439   3.817  0.00  0.00    -0.230 N 
ATOM     15  C   UNL     1      -4.175  -2.869   4.052  0.00  0.00    +0.050 C 
ATOM     16  C   UNL     1      -3.602  -3.434   2.754  0.00  0.00    -0.001 C 
ATOM     17  C   UNL     1      -2.414  -2.602   2.269  0.00  0.00    +0.031 C 
ATOM     18  C   UNL     1      -1.524  -2.120   3.406  0.00  0.00    +0.119 C 
ATOM     19  C   UNL     1      -0.212  -1.544   2.846  0.00  0.00    +0.041 C 
ATOM     20  C   UNL     1      -0.451  -0.893   1.506  0.00  0.00    +0.009 C 
ATOM     21  C   UNL     1       0.373   0.389   1.263  0.00  0.00    +0.134 C 
ATOM     22  C   UNL     1      -0.114  -1.864   0.370  0.00  0.00    +0.015 C 
ATOM     23  C   UNL     1      -3.133  -4.874   3.001  0.00  0.00    +0.016 C 
ENDROOT
BRANCH  14  24
ATOM     24  C   UNL     1      -8.567  -4.927   3.124  0.00  0.00    +0.102 A 
ATOM     25  C   UNL     1      -8.407  -5.800   2.056  0.00  0.00    +0.140 A 
ATOM     26  N   UNL     1      -9.454  -6.260   1.402  0.00  0.00    -0.261 NA
ATOM     27  C   UNL     1     -10.685  -5.917   1.728  0.00  0.00    +0.112 A 
ATOM     28  C   UNL     1     -10.926  -5.051   2.778  0.00  0.00    +0.042 A 
ATOM     29  C   UNL     1      -9.854  -4.546   3.499  0.00  0.00    +0.069 A 
ATOM     30 CL   UNL     1     -10.109  -3.462   4.831  0.00  0.00    -0.081 Cl
ENDBRANCH  14  24
BRANCH  21  31
ATOM     31  C   UNL     1       1.755   0.029   0.790  0.00  0.00    +0.190 C 
ATOM     32  O   UNL     1       1.963  -0.151  -0.385  0.00  0.00    -0.292 OA
BRANCH  31  33
ATOM     33  C   UNL     1       2.879  -0.107   1.784  0.00  0.00    +0.233 C 
BRANCH  33  34
ATOM     34  O   UNL     1       4.083  -0.453   1.097  0.00  0.00    -0.387 OA
ATOM     35  H   UNL     1       4.851  -0.557   1.676  0.00  0.00    +0.210 HD
ENDBRANCH  33  34
ENDBRANCH  31  33
ENDBRANCH  21  31
BRANCH  21  36
ATOM     36  O   UNL     1       0.426   1.178   2.447  0.00  0.00    -0.380 OA
ATOM     37  H   UNL     1       0.878   2.026   2.335  0.00  0.00    +0.211 HD
ENDBRANCH  21  36
BRANCH  18  38
ATOM     38  O   UNL     1      -2.182  -1.099   4.161  0.00  0.00    -0.391 OA
ATOM     39  H   UNL     1      -1.659  -0.756   4.898  0.00  0.00    +0.210 HD
ENDBRANCH  18  38
TORSDOF 6
