REMARK  Name = ZINC33947200
REMARK  9 active torsions:
REMARK  status: ('A' for Active; 'I' for Inactive)
REMARK    1  A    between atoms: C_1  and  C_2
REMARK    2  A    between atoms: C_7  and  N_29
REMARK    3  A    between atoms: C_8  and  C_16
REMARK    4  A    between atoms: C_14  and  C_15
REMARK    5  A    between atoms: N_18  and  C_19
REMARK    6  A    between atoms: C_22  and  O_27
REMARK    7  A    between atoms: C_24  and  O_25
REMARK    8  A    between atoms: O_25  and  C_26
REMARK    9  A    between atoms: O_27  and  C_28
REMARK                            x       y       z     vdW  Elec       q    Type
REMARK                         _______ _______ _______ _____ _____    ______ ____
ROOT
ATOM      1  C   UNL     1       0.068   1.505   0.005  0.00  0.00    +0.044 C 
ATOM      2  C   UNL     1       0.079  -0.002  -0.002  0.00  0.00    -0.047 A 
ATOM      3  C   UNL     1       0.072  -0.666  -1.189  0.00  0.00    +0.013 A 
ATOM      4  C   UNL     1       0.082  -2.074  -1.201  0.00  0.00    -0.001 A 
ATOM      5  C   UNL     1       0.076  -2.783  -2.407  0.00  0.00    +0.022 A 
ATOM      6  C   UNL     1       0.086  -4.188  -2.370  0.00  0.00    +0.028 A 
ATOM      7  C   UNL     1       0.083  -5.120  -3.492  0.00  0.00    +0.053 A 
ATOM      8  C   UNL     1       0.095  -6.468  -3.222  0.00  0.00    +0.097 A 
ATOM      9  S   UNL     1       0.111  -6.538  -1.442  0.00  0.00    -0.064 S 
ATOM     10  C   UNL     1       0.102  -4.798  -1.085  0.00  0.00    +0.088 A 
ATOM     11  N   UNL     1       0.106  -4.115   0.032  0.00  0.00    -0.349 N 
ATOM     12  C   UNL     1       0.097  -2.779   0.031  0.00  0.00    +0.047 A 
ATOM     13  C   UNL     1       0.103  -2.055   1.236  0.00  0.00    +0.029 A 
ATOM     14  C   UNL     1       0.100  -0.695   1.207  0.00  0.00    -0.046 A 
ATOM     15  C   UNL     1       0.113   0.075   2.503  0.00  0.00    +0.044 C 
ATOM     16  H   UNL     1       0.117  -4.589   0.878  0.00  0.00    +0.166 HD
ENDROOT
BRANCH   8  17
ATOM     17  C   UNL     1       0.095  -7.546  -4.141  0.00  0.00    +0.257 C 
ATOM     18  O   UNL     1       0.082  -7.325  -5.339  0.00  0.00    -0.269 OA
ATOM     19  N   UNL     1       0.108  -8.816  -3.691  0.00  0.00    -0.278 N 
ATOM     20  H   UNL     1       0.183  -8.993  -2.740  0.00  0.00    +0.155 HD
BRANCH  19  21
ATOM     21  C   UNL     1       0.013  -9.883  -4.596  0.00  0.00    +0.076 A 
ATOM     22  C   UNL     1       0.596  -9.782  -5.851  0.00  0.00    +0.030 A 
ATOM     23  C   UNL     1       0.502 -10.833  -6.744  0.00  0.00    +0.047 A 
ATOM     24  C   UNL     1      -0.176 -11.989  -6.388  0.00  0.00    +0.124 A 
ATOM     25  C   UNL     1      -0.761 -12.095  -5.135  0.00  0.00    +0.093 A 
ATOM     26  C   UNL     1      -0.663 -11.046  -4.236  0.00  0.00    +0.145 A 
BRANCH  26  27
ATOM     27  O   UNL     1      -1.231 -11.149  -3.004  0.00  0.00    -0.493 OA
ATOM     28  C   UNL     1      -1.908 -12.371  -2.703  0.00  0.00    +0.277 C 
ENDBRANCH  26  27
BRANCH  24  29
ATOM     29  O   UNL     1      -0.268 -13.021  -7.269  0.00  0.00    -0.495 OA
ATOM     30  C   UNL     1       0.358 -12.845  -8.542  0.00  0.00    +0.277 C 
ENDBRANCH  24  29
ENDBRANCH  19  21
ENDBRANCH   8  17
BRANCH   7  31
ATOM     31  N   UNL     1       0.068  -4.657  -4.799  0.00  0.00    -0.356 N 
ATOM     32  H   UNL     1       0.060  -3.704  -4.976  0.00  0.00    +0.142 HD
ATOM     33  H   UNL     1       0.067  -5.288  -5.537  0.00  0.00    +0.142 HD
ENDBRANCH   7  31
TORSDOF 5
