REMARK  Name = ZINC38692790
REMARK  6 active torsions:
REMARK  status: ('A' for Active; 'I' for Inactive)
REMARK    1  A    between atoms: C_1  and  S_2
REMARK    2  A    between atoms: S_2  and  N_5
REMARK    3  A    between atoms: C_12  and  N_15
REMARK    4  A    between atoms: C_16  and  C_18
REMARK    5  A    between atoms: C_21  and  S_24
REMARK    6  A    between atoms: S_24  and  N_27
REMARK                            x       y       z     vdW  Elec       q    Type
REMARK                         _______ _______ _______ _____ _____    ______ ____
ROOT
ATOM      1  N   UNL     1       4.924   0.549   0.139  0.00  0.00    -0.281 N 
ATOM      2  C   UNL     1       6.257   0.597  -0.053  0.00  0.00    +0.248 C 
ATOM      3  O   UNL     1       6.731   0.253  -1.118  0.00  0.00    -0.270 OA
ATOM      4  H   UNL     1       4.539   0.887   0.963  0.00  0.00    +0.155 HD
ENDROOT
BRANCH   1  12
ATOM      5  N   UNL     1       1.010  -1.971  -1.102  0.00  0.00    -0.207 N 
ATOM      6  C   UNL     1      -0.013  -2.272  -2.113  0.00  0.00    +0.131 C 
ATOM      7  C   UNL     1       0.708  -2.749  -3.381  0.00  0.00    +0.025 C 
ATOM      8  C   UNL     1       1.573  -1.608  -3.915  0.00  0.00    +0.038 C 
ATOM      9  C   UNL     1       2.450  -1.054  -2.823  0.00  0.00    -0.025 A 
ATOM     10  C   UNL     1       2.143  -1.242  -1.482  0.00  0.00    +0.056 A 
ATOM     11  C   UNL     1       2.965  -0.711  -0.496  0.00  0.00    +0.048 A 
ATOM     12  C   UNL     1       4.094   0.012  -0.851  0.00  0.00    +0.035 A 
ATOM     13  C   UNL     1       4.398   0.201  -2.193  0.00  0.00    +0.024 A 
ATOM     14  C   UNL     1       3.582  -0.338  -3.173  0.00  0.00    +0.007 A 
BRANCH   5  16
ATOM     15  C   UNL     1       0.150  -1.043   1.343  0.00  0.00    +0.218 C 
ATOM     16  S   UNL     1       0.822  -2.480   0.463  0.00  0.00    +0.043 S 
ATOM     17  O   UNL     1       2.141  -2.758   0.914  0.00  0.00    -0.155 OA
ATOM     18  O   UNL     1      -0.152  -3.512   0.394  0.00  0.00    -0.155 OA
ENDBRANCH   5  16
ENDBRANCH   1  12
BRANCH   2  19
ATOM     19  C   UNL     1       7.143   1.069   1.033  0.00  0.00    +0.037 A 
ATOM     20  C   UNL     1       6.602   1.459   2.259  0.00  0.00    +0.015 A 
ATOM     21  C   UNL     1       7.434   1.897   3.268  0.00  0.00    +0.029 A 
ATOM     22  C   UNL     1       8.802   1.951   3.067  0.00  0.00    +0.106 A 
ATOM     23  C   UNL     1       9.345   1.565   1.854  0.00  0.00    +0.029 A 
ATOM     24  C   UNL     1       8.524   1.120   0.838  0.00  0.00    +0.015 A 
BRANCH  22  25
ATOM     25  S   UNL     1       9.858   2.513   4.361  0.00  0.00    +0.061 S 
ATOM     26  O   UNL     1      11.045   2.986   3.740  0.00  0.00    -0.153 OA
ATOM     27  O   UNL     1       9.063   3.331   5.207  0.00  0.00    -0.153 OA
BRANCH  25  28
ATOM     28  N   UNL     1      10.288   1.185   5.253  0.00  0.00    -0.177 NA
ATOM     29  C   UNL     1       9.556   0.660   6.415  0.00  0.00    +0.109 C 
ATOM     30  C   UNL     1      10.338  -0.564   6.935  0.00  0.00    +0.018 C 
ATOM     31  C   UNL     1      11.769  -0.321   6.384  0.00  0.00    +0.018 C 
ATOM     32  C   UNL     1      11.464   0.331   5.010  0.00  0.00    +0.109 C 
ENDBRANCH  25  28
ENDBRANCH  22  25
ENDBRANCH   2  19
TORSDOF 5
