REMARK  Name = ZINC40464530
REMARK  11 active torsions:
REMARK  status: ('A' for Active; 'I' for Inactive)
REMARK    1  A    between atoms: C_1  and  C_2
REMARK    2  A    between atoms: C_2  and  C_3
REMARK    3  A    between atoms: C_2  and  N_4
REMARK    4  A    between atoms: C_5  and  C_7
REMARK    5  A    between atoms: C_7  and  N_8
REMARK    6  A    between atoms: N_8  and  C_9
REMARK    7  A    between atoms: C_10  and  C_12
REMARK    8  A    between atoms: C_12  and  C_14
REMARK    9  A    between atoms: C_12  and  N_22
REMARK   10  A    between atoms: C_14  and  C_15
REMARK   11  A    between atoms: C_18  and  O_21
REMARK                            x       y       z     vdW  Elec       q    Type
REMARK                         _______ _______ _______ _____ _____    ______ ____
ROOT
ATOM      1  C   UNL     1      -1.264  -0.204   6.677  0.00  0.00    +0.017 C 
ENDROOT
BRANCH   1   4
ATOM      2  N   UNL     1      -0.150  -1.201   4.706  0.00  0.00    -0.297 N 
ATOM      3  C   UNL     1      -0.908  -2.429   4.958  0.00  0.00    +0.132 C 
ATOM      4  C   UNL     1      -0.308  -0.134   5.514  0.00  0.00    +0.202 C 
ATOM      5  O   UNL     1       0.320   0.883   5.306  0.00  0.00    -0.277 OA
BRANCH   2   6
ATOM      6  C   UNL     1       0.780  -1.133   3.576  0.00  0.00    +0.203 C 
BRANCH   6   8
ATOM      7  N   UNL     1       0.711  -0.489   1.189  0.00  0.00    -0.312 N 
ATOM      8  C   UNL     1       0.051  -0.633   2.355  0.00  0.00    +0.231 C 
ATOM      9  O   UNL     1      -1.129  -0.361   2.423  0.00  0.00    -0.274 OA
ATOM     10  H   UNL     1       1.654  -0.707   1.135  0.00  0.00    +0.149 HD
BRANCH   7  12
ATOM     11  C   UNL     1      -0.019   1.526   0.010  0.00  0.00    +0.027 C 
ATOM     12  C   UNL     1       0.002  -0.004   0.002  0.00  0.00    +0.067 C 
ATOM     13  C   UNL     1       0.718  -0.497  -1.257  0.00  0.00    +0.027 C 
ENDBRANCH   7  12
ENDBRANCH   6   8
ENDBRANCH   2   6
ENDBRANCH   1   4
BRANCH   1  14
ATOM     14  N   UNL     1      -0.925   0.840   7.654  0.00  0.00    +0.386 N 
ATOM     15  H   UNL     1       0.017   0.697   7.984  0.00  0.00    -0.089 HD
ATOM     16  H   UNL     1      -0.994   1.746   7.215  0.00  0.00    -0.089 HD
ATOM     17  H   UNL     1      -1.565   0.793   8.432  0.00  0.00    -0.089 HD
ENDBRANCH   1  14
BRANCH   1  18
ATOM     18  C   UNL     1      -2.693   0.013   6.175  0.00  0.00    +0.028 C 
BRANCH  18  19
ATOM     19  C   UNL     1      -3.660  -0.179   7.315  0.00  0.00    -0.048 A 
ATOM     20  C   UNL     1      -4.182  -1.433   7.574  0.00  0.00    +0.007 A 
ATOM     21  C   UNL     1      -5.069  -1.611   8.618  0.00  0.00    +0.045 A 
ATOM     22  C   UNL     1      -5.436  -0.530   9.407  0.00  0.00    +0.117 A 
ATOM     23  C   UNL     1      -4.911   0.727   9.145  0.00  0.00    +0.045 A 
ATOM     24  C   UNL     1      -4.020   0.899   8.103  0.00  0.00    +0.007 A 
BRANCH  22  25
ATOM     25  O   UNL     1      -6.309  -0.703  10.434  0.00  0.00    -0.507 OA
ATOM     26  H   UNL     1      -5.886  -0.921  11.277  0.00  0.00    +0.292 HD
ENDBRANCH  22  25
ENDBRANCH  18  19
ENDBRANCH   1  18
TORSDOF 8
