REMARK  Name = ZINC40103057
REMARK  10 active torsions:
REMARK  status: ('A' for Active; 'I' for Inactive)
REMARK    1  A    between atoms: C_3  and  C_8
REMARK    2  A    between atoms: C_5  and  O_7
REMARK    3  A    between atoms: C_10  and  C_19
REMARK    4  A    between atoms: N_14  and  C_15
REMARK    5  A    between atoms: C_15  and  C_16
REMARK    6  A    between atoms: C_16  and  O_17
REMARK    7  A    between atoms: C_19  and  C_21
REMARK    8  A    between atoms: C_25  and  O_27
REMARK    9  A    between atoms: O_27  and  C_28
REMARK   10  A    between atoms: C_28  and  C_29
REMARK                            x       y       z     vdW  Elec       q    Type
REMARK                         _______ _______ _______ _____ _____    ______ ____
ROOT
ATOM      1  C   UNL     1       3.159   1.879  -0.157  0.00  0.00    +0.145 C 
ATOM      2  C   UNL     1       3.845   2.464  -1.369  0.00  0.00    +0.076 C 
ATOM      3  C   UNL     1       4.011   3.785  -1.125  0.00  0.00    +0.249 C 
ATOM      4  C   UNL     1       3.459   4.105   0.209  0.00  0.00    +0.288 C 
ATOM      5  O   UNL     1       3.457   5.209   0.715  0.00  0.00    -0.266 OA
ATOM      6  N   UNL     1       2.960   2.992   0.779  0.00  0.00    -0.281 N 
ATOM      7  O   UNL     1       4.590   4.671  -1.967  0.00  0.00    -0.282 OA
ENDROOT
BRANCH   1  10
ATOM      8  C   UNL     1      -0.459   1.580  -1.201  0.00  0.00    +0.004 A 
ATOM      9  C   UNL     1       0.763   2.119  -0.841  0.00  0.00    +0.006 A 
ATOM     10  C   UNL     1       1.829   1.288  -0.550  0.00  0.00    -0.019 A 
ATOM     11  C   UNL     1       1.676  -0.083  -0.619  0.00  0.00    +0.051 A 
ATOM     12  C   UNL     1       0.452  -0.626  -0.980  0.00  0.00    +0.117 A 
ATOM     13  C   UNL     1      -0.616   0.210  -1.272  0.00  0.00    +0.045 A 
BRANCH  12  14
ATOM     14  O   UNL     1       0.299  -1.975  -1.049  0.00  0.00    -0.507 OA
ATOM     15  H   UNL     1       0.011  -2.381  -0.220  0.00  0.00    +0.292 HD
ENDBRANCH  12  14
ENDBRANCH   1  10
BRANCH   2  16
ATOM     16  C   UNL     1       4.254   1.740  -2.577  0.00  0.00    +0.195 C 
ATOM     17  O   UNL     1       3.747   2.010  -3.649  0.00  0.00    -0.287 OA
BRANCH  16  18
ATOM     18  C   UNL     1       5.282   0.681  -2.492  0.00  0.00    +0.026 A 
ATOM     19  C   UNL     1       5.947   0.444  -1.286  0.00  0.00    +0.012 A 
ATOM     20  C   UNL     1       6.905  -0.545  -1.210  0.00  0.00    +0.004 A 
ATOM     21  C   UNL     1       7.212  -1.304  -2.325  0.00  0.00    +0.046 A 
ATOM     22  C   UNL     1       6.558  -1.075  -3.528  0.00  0.00    +0.122 A 
ATOM     23  C   UNL     1       5.590  -0.089  -3.614  0.00  0.00    +0.057 A 
BRANCH  22  24
ATOM     24  O   UNL     1       6.864  -1.824  -4.620  0.00  0.00    -0.487 OA
BRANCH  24  25
ATOM     25  C   UNL     1       7.868  -2.828  -4.458  0.00  0.00    +0.264 C 
BRANCH  25  26
ATOM     26  C   UNL     1       8.071  -3.550  -5.765  0.00  0.00    -0.010 A 
ATOM     27  C   UNL     1       7.318  -4.671  -6.059  0.00  0.00    +0.008 A 
ATOM     28  C   UNL     1       7.504  -5.335  -7.258  0.00  0.00    +0.020 A 
ATOM     29  C   UNL     1       8.444  -4.876  -8.163  0.00  0.00    +0.041 A 
ATOM     30  C   UNL     1       9.198  -3.754  -7.868  0.00  0.00    +0.020 A 
ATOM     31  C   UNL     1       9.007  -3.088  -6.672  0.00  0.00    +0.008 A 
ATOM     32 CL   UNL     1       8.679  -5.709  -9.668  0.00  0.00    -0.084 Cl
ENDBRANCH  25  26
ENDBRANCH  24  25
ENDBRANCH  22  24
ENDBRANCH  16  18
ENDBRANCH   2  16
BRANCH   6  33
ATOM     33  C   UNL     1       2.330   2.906   2.099  0.00  0.00    +0.137 C 
BRANCH  33  34
ATOM     34  C   UNL     1       3.395   2.604   3.154  0.00  0.00    +0.175 C 
BRANCH  34  35
ATOM     35  O   UNL     1       4.305   3.703   3.240  0.00  0.00    -0.393 OA
ATOM     36  H   UNL     1       5.009   3.580   3.892  0.00  0.00    +0.209 HD
ENDBRANCH  34  35
ENDBRANCH  33  34
ENDBRANCH   6  33
TORSDOF 10
