REMARK  Name = ZINC62519164
REMARK  12 active torsions:
REMARK  status: ('A' for Active; 'I' for Inactive)
REMARK    1  A    between atoms: C_1  and  C_2
REMARK    2  A    between atoms: C_2  and  C_4
REMARK    3  A    between atoms: C_2  and  N_19
REMARK    4  A    between atoms: C_4  and  N_5
REMARK    5  A    between atoms: N_5  and  C_6
REMARK    6  A    between atoms: C_7  and  C_9
REMARK    7  A    between atoms: C_9  and  C_12
REMARK    8  A    between atoms: C_20  and  O_22
REMARK    9  A    between atoms: O_22  and  C_23
REMARK   10  A    between atoms: C_23  and  C_24
REMARK   11  A    between atoms: C_23  and  C_25
REMARK   12  A    between atoms: C_23  and  C_26
REMARK                            x       y       z     vdW  Elec       q    Type
REMARK                         _______ _______ _______ _____ _____    ______ ____
ROOT
ATOM      1  N   UNL     1       1.650  -2.438   0.745  0.00  0.00    -0.302 N 
ATOM      2  C   UNL     1       2.659  -3.417   0.333  0.00  0.00    +0.132 C 
ATOM      3  C   UNL     1       0.564  -2.840   1.435  0.00  0.00    +0.226 C 
ATOM      4  O   UNL     1      -0.287  -2.035   1.749  0.00  0.00    -0.275 OA
ENDROOT
BRANCH   3   5
ATOM      5  C   UNL     1       0.408  -4.290   1.817  0.00  0.00    +0.075 C 
ATOM      6  C   UNL     1      -0.968  -4.928   1.617  0.00  0.00    +0.022 C 
ATOM      7  C   UNL     1       0.190  -5.298   0.688  0.00  0.00    +0.022 C 
BRANCH   5   8
ATOM      8  C   UNL     1       1.218  -4.740   3.005  0.00  0.00    +0.003 A 
ATOM      9  C   UNL     1       2.077  -5.816   2.888  0.00  0.00    +0.007 A 
ATOM     10  C   UNL     1       2.821  -6.229   3.978  0.00  0.00    +0.000 A 
ATOM     11  C   UNL     1       2.707  -5.566   5.186  0.00  0.00    +0.003 A 
ATOM     12  C   UNL     1       1.849  -4.490   5.305  0.00  0.00    +0.038 A 
ATOM     13  C   UNL     1       1.108  -4.072   4.213  0.00  0.00    +0.128 A 
ATOM     14  F   UNL     1       0.272  -3.016   4.327  0.00  0.00    -0.205 F 
ENDBRANCH   5   8
ENDBRANCH   3   5
BRANCH   1  15
ATOM     15  C   UNL     1       1.821  -1.023   0.407  0.00  0.00    +0.129 C 
BRANCH  15  17
ATOM     16  C   UNL     1       1.456   0.705  -1.361  0.00  0.00    +0.029 C 
ATOM     17  C   UNL     1       1.170  -0.741  -0.949  0.00  0.00    +0.090 C 
BRANCH  17  18
ATOM     18  N   UNL     1       1.722  -1.653  -1.955  0.00  0.00    -0.277 N 
ATOM     19  C   UNL     1       1.004  -1.960  -3.053  0.00  0.00    +0.401 C 
ATOM     20  O   UNL     1      -0.102  -1.480  -3.209  0.00  0.00    -0.226 OA
ATOM     21  H   UNL     1       2.605  -2.035  -1.830  0.00  0.00    +0.152 HD
BRANCH  19  22
ATOM     22  O   UNL     1       1.511  -2.797  -3.977  0.00  0.00    -0.445 OA
BRANCH  22  23
ATOM     23  C   UNL     1       0.694  -3.079  -5.115  0.00  0.00    +0.107 C 
ATOM     24  C   UNL     1       0.394  -1.777  -5.861  0.00  0.00    +0.055 C 
ATOM     25  C   UNL     1       1.433  -4.042  -6.047  0.00  0.00    +0.055 C 
ATOM     26  C   UNL     1      -0.618  -3.718  -4.657  0.00  0.00    +0.055 C 
ENDBRANCH  22  23
ENDBRANCH  19  22
ENDBRANCH  17  18
ENDBRANCH  15  17
ENDBRANCH   1  15
TORSDOF 7
