REMARK  Name = ZINC41006573
REMARK  9 active torsions:
REMARK  status: ('A' for Active; 'I' for Inactive)
REMARK    1  A    between atoms: C_1  and  C_2
REMARK    2  A    between atoms: C_7  and  N_8
REMARK    3  A    between atoms: C_9  and  C_11
REMARK    4  A    between atoms: C_13  and  C_33
REMARK    5  A    between atoms: C_15  and  C_23
REMARK    6  A    between atoms: C_17  and  C_21
REMARK    7  A    between atoms: C_17  and  O_22
REMARK    8  A    between atoms: N_25  and  C_26
REMARK    9  A    between atoms: C_31  and  C_32
REMARK                            x       y       z     vdW  Elec       q    Type
REMARK                         _______ _______ _______ _____ _____    ______ ____
ROOT
ATOM      1  C   UNL     1       0.381  -0.830   4.554  0.00  0.00    +0.149 C 
ATOM      2  C   UNL     1      -0.130  -1.318   5.913  0.00  0.00    +0.053 C 
ATOM      3  C   UNL     1       1.047  -1.450   6.881  0.00  0.00    +0.115 C 
ATOM      4  C   UNL     1       1.673  -0.076   7.125  0.00  0.00    +0.082 C 
ATOM      5  C   UNL     1       2.252   0.460   5.811  0.00  0.00    +0.110 C 
ATOM      6  C   UNL     1       1.159   0.451   4.760  0.00  0.00    +0.148 C 
ATOM      7  O   UNL     1       0.912   1.437   4.108  0.00  0.00    -0.296 OA
ATOM      8  C   UNL     1       0.604   0.889   7.642  0.00  0.00    +0.042 C 
ENDROOT
BRANCH   2   9
ATOM      9  C   UNL     1      -0.796  -2.660   5.747  0.00  0.00    -0.035 A 
ATOM     10  C   UNL     1      -0.112  -3.803   6.026  0.00  0.00    +0.004 A 
ATOM     11  C   UNL     1      -0.711  -5.052   5.878  0.00  0.00    +0.001 A 
ATOM     12  C   UNL     1      -1.998  -5.166   5.450  0.00  0.00    +0.008 A 
ATOM     13  C   UNL     1      -2.737  -4.008   5.152  0.00  0.00    -0.018 A 
ATOM     14  C   UNL     1      -2.129  -2.737   5.309  0.00  0.00    -0.014 A 
ATOM     15  C   UNL     1      -2.870  -1.579   5.017  0.00  0.00    +0.009 A 
ATOM     16  C   UNL     1      -4.159  -1.692   4.594  0.00  0.00    +0.001 A 
ATOM     17  C   UNL     1      -4.758  -2.942   4.447  0.00  0.00    +0.001 A 
ATOM     18  C   UNL     1      -4.068  -4.086   4.707  0.00  0.00    +0.008 A 
ENDBRANCH   2   9
BRANCH   1  20
ATOM     19  N   UNL     1       1.063  -2.299   2.684  0.00  0.00    -0.285 N 
ATOM     20  C   UNL     1       1.280  -1.875   3.945  0.00  0.00    +0.228 C 
ATOM     21  O   UNL     1       2.198  -2.335   4.590  0.00  0.00    -0.275 OA
ATOM     22  H   UNL     1       0.351  -1.905   2.156  0.00  0.00    +0.155 HD
BRANCH  19  29
ATOM     23  C   UNL     1       0.007  -3.839   0.537  0.00  0.00    +0.045 C 
ATOM     24  C   UNL     1       1.388  -4.082   1.088  0.00  0.00    -0.029 A 
ATOM     25  C   UNL     1       2.185  -5.072   0.547  0.00  0.00    +0.005 A 
ATOM     26  C   UNL     1       3.452  -5.296   1.052  0.00  0.00    +0.000 A 
ATOM     27  C   UNL     1       3.927  -4.529   2.100  0.00  0.00    +0.002 A 
ATOM     28  C   UNL     1       3.136  -3.537   2.646  0.00  0.00    +0.023 A 
ATOM     29  C   UNL     1       1.864  -3.307   2.137  0.00  0.00    +0.036 A 
ENDBRANCH  19  29
ENDBRANCH   1  20
BRANCH   3  30
ATOM     30  C   UNL     1       0.558  -2.015   8.190  0.00  0.00    +0.224 C 
ATOM     31  O   UNL     1      -0.622  -1.972   8.466  0.00  0.00    -0.275 OA
ATOM     32  N   UNL     1       1.433  -2.568   9.054  0.00  0.00    -0.285 N 
ATOM     33  H   UNL     1       2.383  -2.546   8.862  0.00  0.00    +0.155 HD
BRANCH  32  34
ATOM     34  C   UNL     1       0.969  -3.174  10.227  0.00  0.00    +0.036 A 
ATOM     35  C   UNL     1      -0.284  -2.848  10.730  0.00  0.00    +0.023 A 
ATOM     36  C   UNL     1      -0.738  -3.448  11.888  0.00  0.00    +0.002 A 
ATOM     37  C   UNL     1       0.053  -4.371  12.547  0.00  0.00    +0.000 A 
ATOM     38  C   UNL     1       1.301  -4.697  12.048  0.00  0.00    +0.005 A 
ATOM     39  C   UNL     1       1.758  -4.106  10.887  0.00  0.00    -0.029 A 
ATOM     40  C   UNL     1       3.116  -4.467  10.341  0.00  0.00    +0.045 C 
ENDBRANCH  32  34
ENDBRANCH   3  30
BRANCH   4  41
ATOM     41  O   UNL     1       2.718  -0.193   8.093  0.00  0.00    -0.388 OA
ATOM     42  H   UNL     1       3.160   0.642   8.297  0.00  0.00    +0.210 HD
ENDBRANCH   4  41
TORSDOF 6
