REMARK  Name = ZINC63910819
REMARK  7 active torsions:
REMARK  status: ('A' for Active; 'I' for Inactive)
REMARK    1  A    between atoms: C_1  and  N_2
REMARK    2  A    between atoms: C_3  and  S_7
REMARK    3  A    between atoms: S_7  and  C_8
REMARK    4  A    between atoms: C_8  and  C_9
REMARK    5  A    between atoms: C_9  and  C_10
REMARK    6  A    between atoms: N_12  and  C_13
REMARK    7  A    between atoms: C_14  and  C_24
REMARK                            x       y       z     vdW  Elec       q    Type
REMARK                         _______ _______ _______ _____ _____    ______ ____
ROOT
ATOM      1  C   UNL     1       0.015  -2.891  -5.954  0.00  0.00    +0.218 C 
ATOM      2  O   UNL     1       0.032  -3.946  -5.356  0.00  0.00    -0.275 OA
ATOM      3  N   UNL     1       0.008  -2.879  -7.302  0.00  0.00    -0.279 N 
ATOM      4  H   UNL     1      -0.006  -2.035  -7.780  0.00  0.00    +0.155 HD
ENDROOT
BRANCH   3   5
ATOM      5  C   UNL     1       0.022  -4.076  -8.006  0.00  0.00    +0.090 A 
ATOM      6  C   UNL     1       0.024  -4.257  -9.373  0.00  0.00    +0.084 A 
ATOM      7  C   UNL     1       0.034  -5.631  -9.887  0.00  0.00    -0.018 A 
ATOM      8  C   UNL     1       0.014  -6.554  -8.908  0.00  0.00    -0.004 A 
ATOM      9  S   UNL     1       0.047  -5.636  -7.392  0.00  0.00    -0.077 S 
ATOM     10  C   UNL     1      -0.078  -8.048  -9.038  0.00  0.00    +0.043 C 
ATOM     11  C   UNL     1      -1.551  -8.390  -9.329  0.00  0.00    +0.005 C 
ATOM     12  C   UNL     1      -2.000  -7.574 -10.546  0.00  0.00    +0.000 C 
ATOM     13  C   UNL     1      -1.122  -8.033 -11.692  0.00  0.00    +0.000 C 
ATOM     14  C   UNL     1       0.230  -7.343 -11.744  0.00  0.00    +0.005 C 
ATOM     15  C   UNL     1       0.131  -5.864 -11.391  0.00  0.00    +0.037 C 
BRANCH   6  16
ATOM     16  C   UNL     1       0.015  -3.137 -10.265  0.00  0.00    +0.102 C 
ATOM     17  N   UNL     1       0.008  -2.248 -10.972  0.00  0.00    -0.191 NA
ENDBRANCH   6  16
ENDBRANCH   3   5
BRANCH   1  18
ATOM     18  C   UNL     1       0.000  -1.592  -5.190  0.00  0.00    +0.107 C 
BRANCH  18  19
ATOM     19  C   UNL     1       0.011  -1.884  -3.688  0.00  0.00    +0.086 C 
BRANCH  19  20
ATOM     20  S   UNL     1      -0.006  -0.321  -2.768  0.00  0.00    -0.084 S 
BRANCH  20  23
ATOM     21  C   UNL     1      -0.018   1.461   0.010  0.00  0.00    +0.177 C 
ATOM     22  N   UNL     1       0.002  -0.004   0.002  0.00  0.00    -0.223 N 
ATOM     23  C   UNL     1       0.008  -0.820  -1.078  0.00  0.00    +0.209 A 
ATOM     24  N   UNL     1       0.027  -2.056  -0.629  0.00  0.00    -0.102 NA
ATOM     25  N   UNL     1       0.033  -2.068   0.655  0.00  0.00    -0.022 NA
ATOM     26  N   UNL     1       0.025  -0.864   1.114  0.00  0.00    -0.043 NA
ENDBRANCH  20  23
ENDBRANCH  19  20
ENDBRANCH  18  19
ENDBRANCH   1  18
TORSDOF 6
