REMARK  Name = ZINC04936314
REMARK  11 active torsions:
REMARK  status: ('A' for Active; 'I' for Inactive)
REMARK    1  A    between atoms: C_1  and  C_2
REMARK    2  A    between atoms: C_2  and  C_3
REMARK    3  A    between atoms: C_2  and  C_4
REMARK    4  A    between atoms: C_4  and  C_5
REMARK    5  A    between atoms: C_5  and  C_7
REMARK    6  A    between atoms: C_5  and  N_16
REMARK    7  A    between atoms: N_9  and  C_10
REMARK    8  A    between atoms: C_10  and  C_11
REMARK    9  A    between atoms: N_16  and  S_17
REMARK   10  A    between atoms: S_17  and  C_20
REMARK   11  A    between atoms: N_29  and  C_30
REMARK                            x       y       z     vdW  Elec       q    Type
REMARK                         _______ _______ _______ _____ _____    ______ ____
ROOT
ATOM      1  N   UNL     1      -0.302   1.292   0.073  0.00  0.00    -0.178 NA
ATOM      2  H   UNL     1      -0.752   2.022  -0.381  0.00  0.00    +0.149 HD
ENDROOT
BRANCH   1   3
ATOM      3  S   UNL     1       0.750   1.611   1.312  0.00  0.00    +0.059 S 
ATOM      4  O   UNL     1       0.795   3.025   1.453  0.00  0.00    -0.153 OA
ATOM      5  O   UNL     1       0.389   0.750   2.383  0.00  0.00    -0.153 OA
BRANCH   3   6
ATOM      6  C   UNL     1       2.352   1.107   0.779  0.00  0.00    +0.109 A 
ATOM      7  C   UNL     1       2.744  -0.211   0.929  0.00  0.00    +0.031 A 
ATOM      8  C   UNL     1       3.997  -0.615   0.509  0.00  0.00    +0.031 A 
ATOM      9  C   UNL     1       4.865   0.306  -0.054  0.00  0.00    +0.090 A 
ATOM     10  C   UNL     1       4.472   1.636  -0.202  0.00  0.00    +0.159 A 
ATOM     11  C   UNL     1       3.212   2.031   0.218  0.00  0.00    +0.077 A 
ATOM     12  O   UNL     1       5.507   2.301  -0.773  0.00  0.00    -0.407 OA
ATOM     13  C   UNL     1       6.518   1.444  -0.985  0.00  0.00    +0.421 A 
ATOM     14  O   UNL     1       7.588   1.731  -1.486  0.00  0.00    -0.223 OA
ATOM     15  N   UNL     1       6.162   0.216  -0.559  0.00  0.00    -0.277 N 
ATOM     16  C   UNL     1       6.987  -0.994  -0.615  0.00  0.00    +0.156 C 
ENDBRANCH   3   6
ENDBRANCH   1   3
BRANCH   1  17
ATOM     17  C   UNL     1      -0.548  -0.091  -0.341  0.00  0.00    +0.162 C 
BRANCH  17  18
ATOM     18  C   UNL     1      -1.764  -0.621   0.375  0.00  0.00    +0.232 C 
ATOM     19  O   UNL     1      -2.366   0.088   1.153  0.00  0.00    -0.274 OA
ATOM     20  N   UNL     1      -2.182  -1.882   0.149  0.00  0.00    -0.307 N 
ATOM     21  H   UNL     1      -1.701  -2.449  -0.474  0.00  0.00    +0.149 HD
BRANCH  20  22
ATOM     22  C   UNL     1      -3.365  -2.397   0.844  0.00  0.00    +0.178 C 
BRANCH  22  23
ATOM     23  C   UNL     1      -3.618  -3.820   0.418  0.00  0.00    +0.122 A 
ATOM     24  C   UNL     1      -3.116  -4.919   1.010  0.00  0.00    +0.046 A 
ATOM     25  C   UNL     1      -3.607  -6.032   0.290  0.00  0.00    +0.041 A 
ATOM     26  C   UNL     1      -4.380  -5.547  -0.699  0.00  0.00    +0.195 A 
ATOM     27  O   UNL     1      -4.387  -4.207  -0.612  0.00  0.00    -0.466 OA
ENDBRANCH  22  23
ENDBRANCH  20  22
ENDBRANCH  17  18
BRANCH  17  28
ATOM     28  C   UNL     1      -0.784  -0.137  -1.852  0.00  0.00    +0.032 C 
BRANCH  28  30
ATOM     29  C   UNL     1       0.325   0.025  -4.085  0.00  0.00    +0.007 C 
ATOM     30  C   UNL     1       0.504   0.247  -2.582  0.00  0.00    -0.015 C 
ATOM     31  C   UNL     1       0.820   1.721  -2.318  0.00  0.00    +0.007 C 
ENDBRANCH  28  30
ENDBRANCH  17  28
ENDBRANCH   1  17
TORSDOF 8
