REMARK  Name = ZINC29570968
REMARK  8 active torsions:
REMARK  status: ('A' for Active; 'I' for Inactive)
REMARK    1  A    between atoms: C_1  and  C_2
REMARK    2  A    between atoms: C_2  and  C_3
REMARK    3  A    between atoms: C_3  and  C_4
REMARK    4  A    between atoms: C_6  and  C_9
REMARK    5  A    between atoms: C_9  and  S_10
REMARK    6  A    between atoms: S_10  and  C_11
REMARK    7  A    between atoms: C_14  and  C_17
REMARK    8  A    between atoms: N_15  and  N_16
REMARK                            x       y       z     vdW  Elec       q    Type
REMARK                         _______ _______ _______ _____ _____    ______ ____
ROOT
ATOM      1  C   UNL     1       0.007  -0.016   0.164  0.00  0.00    +0.209 A 
ATOM      2  N   UNL     1       1.069  -0.790   0.131  0.00  0.00    -0.121 NA
ATOM      3  N   UNL     1       0.720  -2.010  -0.076  0.00  0.00    -0.127 NA
ATOM      4  C   UNL     1      -0.584  -2.088  -0.198  0.00  0.00    +0.183 A 
ATOM      5  N   UNL     1      -1.081  -0.814  -0.048  0.00  0.00    -0.224 N 
ENDROOT
BRANCH   4   6
ATOM      6  C   UNL     1      -1.372  -3.314  -0.449  0.00  0.00    +0.040 A 
ATOM      7  C   UNL     1      -2.364  -3.321  -1.430  0.00  0.00    +0.033 A 
ATOM      8  C   UNL     1      -3.096  -4.470  -1.659  0.00  0.00    +0.042 A 
ATOM      9  C   UNL     1      -2.846  -5.612  -0.917  0.00  0.00    +0.021 A 
ATOM     10  C   UNL     1      -1.864  -5.612   0.057  0.00  0.00    +0.022 A 
ATOM     11  C   UNL     1      -1.121  -4.471   0.292  0.00  0.00    +0.052 A 
ATOM     12 CL   UNL     1       0.116  -4.475   1.509  0.00  0.00    -0.083 Cl
ATOM     13 CL   UNL     1      -4.331  -4.481  -2.878  0.00  0.00    -0.084 Cl
ENDBRANCH   4   6
BRANCH   5  14
ATOM     14  N   UNL     1      -2.390  -0.426  -0.101  0.00  0.00    -0.295 N 
ATOM     15  H   UNL     1      -3.178  -1.173  -0.280  0.00  0.00    +0.163 HD
ATOM     16  H   UNL     1      -2.656   0.632   0.035  0.00  0.00    +0.163 HD
ENDBRANCH   5  14
BRANCH   1  17
ATOM     17  S   UNL     1      -0.008   1.726   0.425  0.00  0.00    -0.075 S 
BRANCH  17  18
ATOM     18  C   UNL     1       1.765   2.030   0.620  0.00  0.00    +0.176 C 
BRANCH  18  21
ATOM     19  C   UNL     1       2.267   5.401   1.751  0.00  0.00    +0.172 A 
ATOM     20  N   UNL     1       2.028   4.106   2.024  0.00  0.00    -0.195 NA
ATOM     21  C   UNL     1       1.999   3.500   0.861  0.00  0.00    +0.238 A 
ATOM     22  O   UNL     1       2.212   4.435  -0.070  0.00  0.00    -0.337 OA
ATOM     23  N   UNL     1       2.363   5.516   0.461  0.00  0.00    -0.061 NA
BRANCH  19  24
ATOM     24  C   UNL     1       2.395   6.515   2.758  0.00  0.00    +0.079 C 
BRANCH  24  26
ATOM     25  C   UNL     1       1.149   8.262   4.037  0.00  0.00    +0.004 C 
ATOM     26  C   UNL     1       1.018   7.131   3.015  0.00  0.00    +0.004 C 
ENDBRANCH  24  26
ENDBRANCH  19  24
ENDBRANCH  18  21
ENDBRANCH  17  18
ENDBRANCH   1  17
TORSDOF 7
