REMARK  Name = ZINC35564307
REMARK  5 active torsions:
REMARK  status: ('A' for Active; 'I' for Inactive)
REMARK    1  A    between atoms: C_4  and  C_7
REMARK    2  A    between atoms: C_7  and  N_8
REMARK    3  A    between atoms: C_21  and  C_23
REMARK    4  A    between atoms: C_23  and  N_24
REMARK    5  A    between atoms: N_27  and  C_30
REMARK                            x       y       z     vdW  Elec       q    Type
REMARK                         _______ _______ _______ _____ _____    ______ ____
ROOT
ATOM      1  N   UNL     1       4.822  -2.385   5.541  0.00  0.00    +0.383 N 
ATOM      2  C   UNL     1       4.311  -1.020   5.643  0.00  0.00    -0.077 C 
ATOM      3  C   UNL     1       3.684  -0.622   4.325  0.00  0.00    +0.000 C 
ATOM      4  C   UNL     1       4.730   0.104   3.458  0.00  0.00    +0.106 C 
ATOM      5  N   UNL     1       6.055  -0.536   3.578  0.00  0.00    -0.303 N 
ATOM      6  C   UNL     1       6.222  -1.975   3.598  0.00  0.00    +0.089 C 
ATOM      7  C   UNL     1       6.144  -2.491   5.055  0.00  0.00    -0.059 C 
ATOM      8  C   UNL     1       7.166   0.258   3.671  0.00  0.00    +0.198 A 
ATOM      9  N   UNL     1       8.381  -0.315   3.889  0.00  0.00    -0.295 N 
ATOM     10  H   UNL     1       8.456  -1.278   3.976  0.00  0.00    +0.172 HD
ATOM     11  C   UNL     1       9.481   0.462   3.982  0.00  0.00    +0.253 A 
ATOM     12  O   UNL     1      10.579  -0.035   4.177  0.00  0.00    -0.268 OA
ATOM     13  C   UNL     1       9.338   1.855   3.850  0.00  0.00    +0.091 A 
ATOM     14  C   UNL     1       8.095   2.373   3.633  0.00  0.00    +0.034 A 
ATOM     15  N   UNL     1       7.041   1.564   3.544  0.00  0.00    -0.223 NA
ATOM     16  H   UNL     1       4.214  -2.905   4.926  0.00  0.00    -0.081 HD
ENDROOT
BRANCH   1  17
ATOM     17  C   UNL     1       4.768  -3.001   6.873  0.00  0.00    -0.043 C 
BRANCH  17  21
ATOM     18  C   UNL     1       5.556  -7.186   6.543  0.00  0.00    +0.000 A 
ATOM     19  C   UNL     1       6.598  -6.300   6.740  0.00  0.00    +0.000 A 
ATOM     20  C   UNL     1       6.343  -4.945   6.847  0.00  0.00    +0.002 A 
ATOM     21  C   UNL     1       5.046  -4.477   6.756  0.00  0.00    -0.064 A 
ATOM     22  C   UNL     1       4.003  -5.363   6.559  0.00  0.00    +0.002 A 
ATOM     23  C   UNL     1       4.258  -6.718   6.453  0.00  0.00    +0.000 A 
ENDBRANCH  17  21
ENDBRANCH   1  17
BRANCH  14  24
ATOM     24  C   UNL     1       7.915   3.862   3.488  0.00  0.00    -0.022 C 
BRANCH  24  25
ATOM     25  N   UNL     1       7.456   4.169   2.127  0.00  0.00    +0.385 N 
ATOM     26  C   UNL     1       8.501   3.799   1.164  0.00  0.00    -0.059 C 
ATOM     27  C   UNL     1       7.981   4.012  -0.261  0.00  0.00    +0.086 C 
ATOM     28  N   UNL     1       7.508   5.400  -0.382  0.00  0.00    -0.331 N 
ATOM     29  C   UNL     1       6.579   5.908   0.640  0.00  0.00    +0.086 C 
ATOM     30  C   UNL     1       7.166   5.605   2.022  0.00  0.00    -0.059 C 
ATOM     31  H   UNL     1       6.618   3.643   1.929  0.00  0.00    -0.081 HD
BRANCH  28  32
ATOM     32  C   UNL     1       7.930   6.213  -1.439  0.00  0.00    +0.065 A 
ATOM     33  C   UNL     1       7.205   6.248  -2.622  0.00  0.00    +0.026 A 
ATOM     34  C   UNL     1       7.624   7.053  -3.664  0.00  0.00    +0.002 A 
ATOM     35  C   UNL     1       8.764   7.824  -3.530  0.00  0.00    +0.003 A 
ATOM     36  C   UNL     1       9.489   7.793  -2.353  0.00  0.00    +0.040 A 
ATOM     37  C   UNL     1       9.072   6.994  -1.304  0.00  0.00    +0.144 A 
ATOM     38  F   UNL     1       9.778   6.968  -0.152  0.00  0.00    -0.204 F 
ENDBRANCH  28  32
ENDBRANCH  24  25
ENDBRANCH  14  24
TORSDOF 5
