REMARK  Name = ZINC22577385
REMARK  8 active torsions:
REMARK  status: ('A' for Active; 'I' for Inactive)
REMARK    1  A    between atoms: C_1  and  C_2
REMARK    2  A    between atoms: C_2  and  N_3
REMARK    3  A    between atoms: N_6  and  C_9
REMARK    4  A    between atoms: C_9  and  C_11
REMARK    5  A    between atoms: C_9  and  C_18
REMARK    6  A    between atoms: C_14  and  C_17
REMARK    7  A    between atoms: C_19  and  O_31
REMARK    8  A    between atoms: C_24  and  C_26
REMARK                            x       y       z     vdW  Elec       q    Type
REMARK                         _______ _______ _______ _____ _____    ______ ____
ROOT
ATOM      1  C   UNL     1       1.530  -2.584   4.772  0.00  0.00    +0.129 C 
ENDROOT
BRANCH   1   2
ATOM      2  C   UNL     1       2.945  -2.065   4.767  0.00  0.00    +0.076 A 
ATOM      3  C   UNL     1       3.623  -1.453   5.745  0.00  0.00    +0.228 A 
ATOM      4  N   UNL     1       4.921  -1.048   5.551  0.00  0.00    -0.173 N 
ATOM      5  C   UNL     1       5.476  -1.299   4.325  0.00  0.00    +0.200 A 
ATOM      6  S   UNL     1       4.158  -2.113   3.456  0.00  0.00    -0.047 S 
ATOM      7  N   UNL     1       6.702  -0.858   4.299  0.00  0.00    -0.197 NA
ATOM      8  C   UNL     1       7.001  -0.309   5.484  0.00  0.00    +0.218 A 
ATOM      9  N   UNL     1       5.954  -0.400   6.276  0.00  0.00    -0.138 NA
BRANCH   8  10
ATOM     10  C   UNL     1       8.299   0.301   5.844  0.00  0.00    +0.173 A 
ATOM     11  C   UNL     1       9.384   0.406   5.032  0.00  0.00    +0.053 A 
ATOM     12  C   UNL     1      10.390   1.050   5.780  0.00  0.00    +0.042 A 
ATOM     13  C   UNL     1       9.874   1.304   6.998  0.00  0.00    +0.196 A 
ATOM     14  O   UNL     1       8.609   0.855   7.032  0.00  0.00    -0.460 OA
ENDBRANCH   8  10
BRANCH   3  15
ATOM     15  O   UNL     1       3.021  -1.230   6.944  0.00  0.00    -0.492 OA
ATOM     16  H   UNL     1       3.584  -0.783   7.590  0.00  0.00    +0.294 HD
ENDBRANCH   3  15
ENDBRANCH   1   2
BRANCH   1  20
ATOM     17  N   UNL     1      -1.267  -0.473   2.409  0.00  0.00    +0.381 N 
ATOM     18  C   UNL     1      -1.301  -1.941   2.372  0.00  0.00    -0.063 C 
ATOM     19  C   UNL     1      -0.592  -2.498   3.608  0.00  0.00    +0.067 C 
ATOM     20  N   UNL     1       0.799  -2.024   3.628  0.00  0.00    -0.295 NA
ATOM     21  C   UNL     1       0.849  -0.555   3.640  0.00  0.00    +0.067 C 
ATOM     22  C   UNL     1       0.128  -0.013   2.404  0.00  0.00    -0.063 C 
ATOM     23  H   UNL     1      -1.725  -0.147   3.247  0.00  0.00    -0.082 HD
BRANCH  17  25
ATOM     24  C   UNL     1      -3.445  -0.312   1.301  0.00  0.00    -0.017 C 
ATOM     25  C   UNL     1      -1.963   0.062   1.231  0.00  0.00    -0.082 C 
ENDBRANCH  17  25
ENDBRANCH   1  20
BRANCH   1  26
ATOM     26  C   UNL     1       1.547  -4.088   4.670  0.00  0.00    -0.025 A 
ATOM     27  C   UNL     1       1.847  -4.696   3.465  0.00  0.00    +0.006 A 
ATOM     28  C   UNL     1       1.862  -6.075   3.372  0.00  0.00    +0.004 A 
ATOM     29  C   UNL     1       1.576  -6.846   4.483  0.00  0.00    -0.050 A 
ATOM     30  C   UNL     1       1.277  -6.238   5.688  0.00  0.00    +0.004 A 
ATOM     31  C   UNL     1       1.266  -4.859   5.782  0.00  0.00    +0.006 A 
ATOM     32  C   UNL     1       1.591  -8.349   4.380  0.00  0.00    +0.044 C 
ENDBRANCH   1  26
TORSDOF 6
