REMARK  Name = ZINC51106659
REMARK  5 active torsions:
REMARK  status: ('A' for Active; 'I' for Inactive)
REMARK    1  A    between atoms: C_4  and  C_20
REMARK    2  A    between atoms: N_7  and  C_8
REMARK    3  A    between atoms: C_8  and  C_9
REMARK    4  A    between atoms: N_14  and  C_15
REMARK    5  A    between atoms: C_15  and  C_16
REMARK                            x       y       z     vdW  Elec       q    Type
REMARK                         _______ _______ _______ _____ _____    ______ ____
ROOT
ATOM      1  C   UNL     1      -1.973  -0.206   1.403  0.00  0.00    +0.234 C 
ATOM      2  O   UNL     1      -1.338   0.429   2.216  0.00  0.00    -0.274 OA
ATOM      3  N   UNL     1      -3.228  -0.607   1.690  0.00  0.00    -0.239 N 
ATOM      4  C   UNL     1      -3.776  -0.300   2.883  0.00  0.00    +0.306 C 
ATOM      5  O   UNL     1      -3.139   0.337   3.699  0.00  0.00    -0.252 OA
ATOM      6  N   UNL     1      -5.030  -0.700   3.171  0.00  0.00    -0.291 N 
ATOM      7  H   UNL     1      -3.736  -1.115   1.040  0.00  0.00    +0.159 HD
ATOM      8  H   UNL     1      -5.538  -1.209   2.520  0.00  0.00    +0.151 HD
ENDROOT
BRANCH   1   9
ATOM      9  C   UNL     1      -1.360  -0.549   0.069  0.00  0.00    +0.181 C 
BRANCH   9  15
ATOM     10  C   UNL     1      -0.018   1.466   0.010  0.00  0.00    +0.113 C 
ATOM     11  C   UNL     1       1.420   1.990  -0.001  0.00  0.00    +0.176 C 
ATOM     12  O   UNL     1       2.106   1.465  -1.141  0.00  0.00    -0.365 OA
ATOM     13  C   UNL     1       2.145   0.035  -1.180  0.00  0.00    +0.217 C 
ATOM     14  C   UNL     1       0.714  -0.509  -1.181  0.00  0.00    +0.126 C 
ATOM     15  N   UNL     1       0.002  -0.004   0.002  0.00  0.00    -0.289 NA
BRANCH  13  16
ATOM     16  C   UNL     1       2.856  -0.414  -2.430  0.00  0.00    +0.241 C 
ATOM     17  O   UNL     1       3.207   0.403  -3.255  0.00  0.00    -0.273 OA
ATOM     18  N   UNL     1       3.102  -1.724  -2.632  0.00  0.00    -0.327 N 
ATOM     19  H   UNL     1       2.821  -2.377  -1.972  0.00  0.00    +0.145 HD
ATOM     20  H   UNL     1       3.560  -2.013  -3.437  0.00  0.00    +0.145 HD
ENDBRANCH  13  16
ENDBRANCH   9  15
ENDBRANCH   1   9
BRANCH   6  21
ATOM     21  C   UNL     1      -5.626  -0.367   4.467  0.00  0.00    +0.219 C 
BRANCH  21  22
ATOM     22  C   UNL     1      -7.045  -0.935   4.537  0.00  0.00    +0.405 C 
ATOM     23  F   UNL     1      -6.999  -2.325   4.389  0.00  0.00    -0.169 F 
ATOM     24  F   UNL     1      -7.614  -0.616   5.775  0.00  0.00    -0.169 F 
ATOM     25  F   UNL     1      -7.820  -0.382   3.512  0.00  0.00    -0.169 F 
ENDBRANCH  21  22
ENDBRANCH   6  21
TORSDOF 5
