REMARK  Name = ZINC67255256
REMARK  5 active torsions:
REMARK  status: ('A' for Active; 'I' for Inactive)
REMARK    1  A    between atoms: C_1  and  N_2
REMARK    2  A    between atoms: N_2  and  C_3
REMARK    3  A    between atoms: C_3  and  C_4
REMARK    4  A    between atoms: N_6  and  C_7
REMARK    5  A    between atoms: N_17  and  C_18
REMARK                            x       y       z     vdW  Elec       q    Type
REMARK                         _______ _______ _______ _____ _____    ______ ____
ROOT
ATOM      1  C   UNL     1       0.010   1.526   0.055  0.00  0.00    +0.134 C 
ATOM      2  N   UNL     1       0.213   0.076   0.039  0.00  0.00    -0.280 N 
ATOM      3  C   UNL     1       0.250  -0.587  -1.134  0.00  0.00    +0.307 C 
ATOM      4  O   UNL     1       0.419  -1.791  -1.146  0.00  0.00    -0.252 OA
ATOM      5  N   UNL     1       0.100   0.085  -2.292  0.00  0.00    -0.269 N 
ATOM      6  H   UNL     1       0.040   1.053  -2.288  0.00  0.00    +0.156 HD
ENDROOT
BRANCH   5   7
ATOM      7  C   UNL     1       0.029  -0.616  -3.504  0.00  0.00    +0.037 A 
ATOM      8  C   UNL     1      -0.567  -1.869  -3.547  0.00  0.00    +0.027 A 
ATOM      9  C   UNL     1      -0.640  -2.564  -4.741  0.00  0.00    +0.049 A 
ATOM     10  C   UNL     1      -0.118  -2.009  -5.896  0.00  0.00    +0.142 A 
ATOM     11  C   UNL     1       0.481  -0.751  -5.856  0.00  0.00    +0.077 A 
ATOM     12  C   UNL     1       0.549  -0.053  -4.662  0.00  0.00    +0.050 A 
ATOM     13  N   UNL     1       1.007  -0.204  -7.035  0.00  0.00    -0.280 N 
ATOM     14  C   UNL     1       0.652  -0.742  -8.222  0.00  0.00    +0.255 C 
ATOM     15  O   UNL     1       1.117  -0.304  -9.253  0.00  0.00    -0.272 OA
ATOM     16  C   UNL     1      -0.326  -1.889  -8.260  0.00  0.00    +0.325 C 
ATOM     17  O   UNL     1      -0.184  -2.681  -7.078  0.00  0.00    -0.481 OA
ATOM     18  H   UNL     1       1.616   0.550  -6.999  0.00  0.00    +0.155 HD
ENDBRANCH   5   7
BRANCH   2  19
ATOM     19  C   UNL     1       0.377  -0.654   1.299  0.00  0.00    +0.205 C 
BRANCH  19  20
ATOM     20  C   UNL     1      -0.972  -1.102   1.799  0.00  0.00    +0.235 C 
ATOM     21  O   UNL     1      -1.972  -0.838   1.165  0.00  0.00    -0.274 OA
ATOM     22  N   UNL     1      -1.068  -1.797   2.950  0.00  0.00    -0.284 N 
ATOM     23  H   UNL     1      -0.264  -2.067   3.421  0.00  0.00    +0.155 HD
BRANCH  22  24
ATOM     24  C   UNL     1      -2.326  -2.129   3.464  0.00  0.00    +0.039 A 
ATOM     25  C   UNL     1      -2.536  -2.136   4.836  0.00  0.00    +0.061 A 
ATOM     26  C   UNL     1      -3.781  -2.465   5.343  0.00  0.00    +0.128 A 
ATOM     27  C   UNL     1      -4.816  -2.787   4.482  0.00  0.00    +0.076 A 
ATOM     28  C   UNL     1      -4.609  -2.780   3.113  0.00  0.00    +0.128 A 
ATOM     29  C   UNL     1      -3.367  -2.446   2.602  0.00  0.00    +0.061 A 
ATOM     30  F   UNL     1      -5.621  -3.095   2.276  0.00  0.00    -0.205 F 
ATOM     31  F   UNL     1      -3.986  -2.472   6.678  0.00  0.00    -0.205 F 
ENDBRANCH  22  24
ENDBRANCH  19  20
ENDBRANCH   2  19
TORSDOF 4
