REMARK  Name = ZINC03528191
REMARK  8 active torsions:
REMARK  status: ('A' for Active; 'I' for Inactive)
REMARK    1  A    between atoms: C_1  and  C_2
REMARK    2  A    between atoms: C_2  and  C_3
REMARK    3  A    between atoms: C_3  and  C_21
REMARK    4  A    between atoms: N_6  and  N_10
REMARK    5  A    between atoms: C_11  and  C_12
REMARK    6  A    between atoms: C_16  and  O_19
REMARK    7  A    between atoms: C_17  and  O_18
REMARK    8  A    between atoms: O_19  and  C_20
REMARK                            x       y       z     vdW  Elec       q    Type
REMARK                         _______ _______ _______ _____ _____    ______ ____
ROOT
ATOM      1  N   UNL     1      -1.892   2.383   6.027  0.00  0.00    -0.176 NA
ATOM      2  C   UNL     1      -2.404   2.743   4.890  0.00  0.00    +0.142 C 
ENDROOT
BRANCH   1   6
ATOM      3  C   UNL     1      -3.727   3.940   8.773  0.00  0.00    +0.111 C 
ATOM      4  C   UNL     1      -3.531   3.648   7.299  0.00  0.00    +0.266 C 
ATOM      5  O   UNL     1      -4.223   4.027   6.378  0.00  0.00    -0.271 OA
ATOM      6  N   UNL     1      -2.426   2.879   7.224  0.00  0.00    -0.109 N 
ATOM      7  C   UNL     1      -1.906   2.643   8.434  0.00  0.00    +0.330 C 
ATOM      8  O   UNL     1      -0.911   1.971   8.622  0.00  0.00    -0.250 OA
ATOM      9  N   UNL     1      -2.606   3.236   9.418  0.00  0.00    -0.284 N 
ATOM     10  C   UNL     1      -3.647   5.444   9.039  0.00  0.00    +0.041 C 
ATOM     11  H   UNL     1      -2.411   3.203  10.368  0.00  0.00    +0.151 HD
BRANCH   3  13
ATOM     12  C   UNL     1      -5.237   3.688  10.748  0.00  0.00    +0.006 C 
ATOM     13  C   UNL     1      -5.065   3.379   9.259  0.00  0.00    +0.032 C 
ENDBRANCH   3  13
ENDBRANCH   1   6
BRANCH   2  14
ATOM     14  C   UNL     1      -1.774   2.311   3.629  0.00  0.00    +0.040 A 
ATOM     15  C   UNL     1      -2.322   2.698   2.402  0.00  0.00    +0.013 A 
ATOM     16  C   UNL     1      -1.730   2.292   1.225  0.00  0.00    +0.004 A 
ATOM     17  C   UNL     1      -0.590   1.507   1.251  0.00  0.00    +0.049 A 
ATOM     18  C   UNL     1      -0.039   1.112   2.459  0.00  0.00    +0.162 A 
ATOM     19  C   UNL     1      -0.625   1.513   3.654  0.00  0.00    +0.167 A 
BRANCH  19  20
ATOM     20  O   UNL     1      -0.084   1.132   4.841  0.00  0.00    -0.503 OA
ATOM     21  H   UNL     1       0.577   1.747   5.188  0.00  0.00    +0.292 HD
ENDBRANCH  19  20
BRANCH  18  22
ATOM     22  O   UNL     1       1.078   0.336   2.476  0.00  0.00    -0.491 OA
ATOM     23  C   UNL     1       1.627  -0.039   1.211  0.00  0.00    +0.277 C 
ENDBRANCH  18  22
ENDBRANCH   2  14
TORSDOF 5
