REMARK  Name = ZINC03179779
REMARK  5 active torsions:
REMARK  status: ('A' for Active; 'I' for Inactive)
REMARK    1  A    between atoms: C_8  and  S_10
REMARK    2  A    between atoms: S_10  and  C_11
REMARK    3  A    between atoms: C_12  and  C_17
REMARK    4  A    between atoms: N_18  and  N_19
REMARK    5  A    between atoms: C_20  and  C_22
REMARK                            x       y       z     vdW  Elec       q    Type
REMARK                         _______ _______ _______ _____ _____    ______ ____
ROOT
ATOM      1  C   UNL     1       1.167  -0.769  -0.311  0.00  0.00    -0.003 C 
ATOM      2  C   UNL     1       0.133   0.024  -0.028  0.00  0.00    -0.018 C 
ATOM      3  C   UNL     1       0.225   1.521   0.022  0.00  0.00    +0.037 C 
ATOM      4  C   UNL     1       1.688   1.956   0.137  0.00  0.00    +0.005 C 
ATOM      5  C   UNL     1       2.498   1.232  -0.945  0.00  0.00    +0.005 C 
ATOM      6  C   UNL     1       2.549  -0.258  -0.600  0.00  0.00    +0.043 C 
ENDROOT
BRANCH   2   7
ATOM      7  C   UNL     1      -1.120  -0.580   0.241  0.00  0.00    +0.134 C 
ATOM      8  N   UNL     1      -2.128   0.153   0.624  0.00  0.00    -0.188 NA
BRANCH   8   9
ATOM      9  N   UNL     1      -3.336  -0.454   0.990  0.00  0.00    -0.202 N 
ATOM     10  C   UNL     1      -4.409   0.305   1.288  0.00  0.00    +0.280 C 
ATOM     11  O   UNL     1      -4.307   1.517   1.318  0.00  0.00    -0.267 OA
ATOM     12  H   UNL     1      -3.401  -1.421   1.030  0.00  0.00    +0.178 HD
BRANCH  10  13
ATOM     13  C   UNL     1      -5.712  -0.335   1.580  0.00  0.00    +0.112 A 
ATOM     14  C   UNL     1      -5.809  -1.690   1.654  0.00  0.00    +0.101 A 
ATOM     15  C   UNL     1      -7.118  -2.280   1.951  0.00  0.00    +0.255 A 
ATOM     16  O   UNL     1      -7.249  -3.487   2.031  0.00  0.00    -0.268 OA
ATOM     17  N   UNL     1      -8.176  -1.462   2.127  0.00  0.00    -0.275 N 
ATOM     18  H   UNL     1      -9.076  -1.849   2.326  0.00  0.00    +0.173 HD
ATOM     19  C   UNL     1      -8.028  -0.128   2.038  0.00  0.00    +0.327 A 
ATOM     20  O   UNL     1      -8.998   0.587   2.202  0.00  0.00    -0.247 OA
ATOM     21  N   UNL     1      -6.838   0.435   1.772  0.00  0.00    -0.303 N 
ATOM     22  H   UNL     1      -6.768   1.431   1.714  0.00  0.00    +0.171 HD
ENDBRANCH  10  13
ENDBRANCH   8   9
ENDBRANCH   2   7
BRANCH   1  23
ATOM     23  S   UNL     1       0.897  -2.510  -0.348  0.00  0.00    -0.067 S 
BRANCH  23  31
ATOM     24  C   UNL     1       1.542  -5.137  -6.193  0.00  0.00    +0.002 A 
ATOM     25  C   UNL     1       1.861  -3.931  -6.800  0.00  0.00    +0.001 A 
ATOM     26  C   UNL     1       1.913  -2.780  -6.035  0.00  0.00    +0.017 A 
ATOM     27  C   UNL     1       1.651  -2.849  -4.690  0.00  0.00    +0.040 A 
ATOM     28  C   UNL     1       1.324  -4.059  -4.037  0.00  0.00    +0.079 A 
ATOM     29  C   UNL     1       1.279  -5.215  -4.851  0.00  0.00    +0.029 A 
ATOM     30  N   UNL     1       1.092  -3.965  -2.710  0.00  0.00    -0.232 NA
ATOM     31  C   UNL     1       1.164  -2.825  -2.061  0.00  0.00    +0.140 A 
ATOM     32  S   UNL     1       1.594  -1.674  -3.358  0.00  0.00    -0.061 S 
ENDBRANCH  23  31
ENDBRANCH   1  23
TORSDOF 5
