REMARK  Name = ZINC44169527
REMARK  7 active torsions:
REMARK  status: ('A' for Active; 'I' for Inactive)
REMARK    1  A    between atoms: C_1  and  O_2
REMARK    2  A    between atoms: O_2  and  C_3
REMARK    3  A    between atoms: C_5  and  N_18
REMARK    4  A    between atoms: C_7  and  O_17
REMARK    5  A    between atoms: C_9  and  O_16
REMARK    6  A    between atoms: C_11  and  C_14
REMARK    7  A    between atoms: C_14  and  O_15
REMARK                            x       y       z     vdW  Elec       q    Type
REMARK                         _______ _______ _______ _____ _____    ______ ____
ROOT
ATOM      1  C   UNL     1      -1.295  -0.603   0.011  0.00  0.00    +0.274 C 
ATOM      2  C   UNL     1      -1.157  -2.122  -0.123  0.00  0.00    +0.172 C 
ATOM      3  C   UNL     1      -2.548  -2.761  -0.052  0.00  0.00    +0.171 C 
ATOM      4  C   UNL     1      -3.219  -2.353   1.263  0.00  0.00    +0.176 C 
ATOM      5  C   UNL     1      -3.277  -0.825   1.344  0.00  0.00    +0.178 C 
ATOM      6  O   UNL     1      -1.955  -0.293   1.240  0.00  0.00    -0.341 OA
ENDROOT
BRANCH   2   7
ATOM      7  N   UNL     1      -0.534  -2.445  -1.409  0.00  0.00    -0.224 N 
ATOM      8  C   UNL     1      -1.044  -2.109  -2.608  0.00  0.00    +0.254 C 
ATOM      9  O   UNL     1      -2.079  -1.501  -2.793  0.00  0.00    -0.270 OA
ATOM     10  C   UNL     1      -0.134  -2.605  -3.662  0.00  0.00    +0.049 A 
ATOM     11  C   UNL     1      -0.141  -2.557  -5.047  0.00  0.00    +0.014 A 
ATOM     12  C   UNL     1       0.897  -3.139  -5.760  0.00  0.00    +0.001 A 
ATOM     13  C   UNL     1       1.936  -3.765  -5.098  0.00  0.00    +0.001 A 
ATOM     14  C   UNL     1       1.956  -3.821  -3.713  0.00  0.00    +0.014 A 
ATOM     15  C   UNL     1       0.926  -3.244  -2.988  0.00  0.00    +0.049 A 
ATOM     16  C   UNL     1       0.627  -3.110  -1.546  0.00  0.00    +0.254 C 
ATOM     17  O   UNL     1       1.313  -3.533  -0.638  0.00  0.00    -0.270 OA
ENDBRANCH   2   7
BRANCH   1  19
ATOM     18  C   UNL     1      -0.017   1.425   0.010  0.00  0.00    +0.197 C 
ATOM     19  O   UNL     1       0.002  -0.004   0.002  0.00  0.00    -0.353 OA
ENDBRANCH   1  19
BRANCH   4  20
ATOM     20  O   UNL     1      -2.463  -2.862   2.363  0.00  0.00    -0.387 OA
ATOM     21  H   UNL     1      -2.831  -2.641   3.229  0.00  0.00    +0.210 HD
ENDBRANCH   4  20
BRANCH   3  22
ATOM     22  O   UNL     1      -2.423  -4.184  -0.106  0.00  0.00    -0.387 OA
ATOM     23  H   UNL     1      -3.267  -4.654  -0.065  0.00  0.00    +0.210 HD
ENDBRANCH   3  22
BRANCH   5  24
ATOM     24  C   UNL     1      -3.892  -0.408   2.681  0.00  0.00    +0.190 C 
BRANCH  24  25
ATOM     25  O   UNL     1      -4.054   1.011   2.709  0.00  0.00    -0.392 OA
ATOM     26  H   UNL     1      -4.439   1.347   3.530  0.00  0.00    +0.210 HD
ENDBRANCH  24  25
ENDBRANCH   5  24
TORSDOF 6
