REMARK  Name = ZINC35465385
REMARK  9 active torsions:
REMARK  status: ('A' for Active; 'I' for Inactive)
REMARK    1  A    between atoms: C_1  and  C_2
REMARK    2  A    between atoms: C_4  and  O_25
REMARK    3  A    between atoms: C_7  and  O_24
REMARK    4  A    between atoms: C_9  and  C_23
REMARK    5  A    between atoms: C_12  and  O_22
REMARK    6  A    between atoms: C_14  and  C_18
REMARK    7  A    between atoms: C_18  and  C_19
REMARK    8  A    between atoms: C_18  and  C_20
REMARK    9  A    between atoms: C_18  and  O_21
REMARK                            x       y       z     vdW  Elec       q    Type
REMARK                         _______ _______ _______ _____ _____    ______ ____
ROOT
ATOM      1  C   UNL     1       0.074  -0.211  -0.418  0.00  0.00    +0.010 C 
ATOM      2  C   UNL     1       0.396  -1.700  -0.432  0.00  0.00    +0.021 C 
ATOM      3  C   UNL     1      -0.881  -2.510  -0.638  0.00  0.00    +0.120 C 
ATOM      4  C   UNL     1      -1.717  -2.522   0.640  0.00  0.00    +0.063 C 
ATOM      5  C   UNL     1      -0.911  -3.148   1.774  0.00  0.00    +0.123 C 
ATOM      6  C   UNL     1       0.357  -2.334   2.050  0.00  0.00    -0.001 C 
ATOM      7  C   UNL     1       1.175  -2.164   0.782  0.00  0.00    +0.032 C 
ATOM      8  C   UNL     1       2.401  -1.288   1.026  0.00  0.00    +0.124 C 
ATOM      9  C   UNL     1       3.143  -1.765   2.275  0.00  0.00    +0.049 C 
ATOM     10  C   UNL     1       2.659  -3.153   2.678  0.00  0.00    +0.009 C 
ATOM     11  C   UNL     1       1.190  -3.127   3.075  0.00  0.00    +0.010 C 
ATOM     12  C   UNL     1      -0.018  -0.995   2.683  0.00  0.00    +0.014 C 
ENDROOT
BRANCH   9  13
ATOM     13  C   UNL     1       4.643  -1.817   1.974  0.00  0.00    +0.066 C 
ATOM     14  C   UNL     1       5.134  -0.422   1.582  0.00  0.00    +0.041 C 
ATOM     15  C   UNL     1       5.396  -2.292   3.218  0.00  0.00    +0.041 C 
BRANCH  13  16
ATOM     16  O   UNL     1       4.882  -2.726   0.897  0.00  0.00    -0.389 OA
ATOM     17  H   UNL     1       4.853  -2.316   0.022  0.00  0.00    +0.210 HD
ENDBRANCH  13  16
ENDBRANCH   9  13
BRANCH   8  18
ATOM     18  O   UNL     1       3.285  -1.391  -0.095  0.00  0.00    -0.391 OA
ATOM     19  H   UNL     1       3.943  -0.685  -0.143  0.00  0.00    +0.210 HD
ENDBRANCH   8  18
BRANCH   5  20
ATOM     20  O   UNL     1      -1.714  -3.182   2.958  0.00  0.00    -0.391 OA
ATOM     21  H   UNL     1      -2.528  -3.696   2.865  0.00  0.00    +0.210 HD
ENDBRANCH   5  20
BRANCH   3  22
ATOM     22  O   UNL     1      -0.543  -3.850  -1.007  0.00  0.00    -0.391 OA
ATOM     23  H   UNL     1      -1.308  -4.423  -1.153  0.00  0.00    +0.210 HD
ENDBRANCH   3  22
TORSDOF 5
