REMARK  Name = ZINC30431813
REMARK  6 active torsions:
REMARK  status: ('A' for Active; 'I' for Inactive)
REMARK    1  A    between atoms: C_4  and  S_10
REMARK    2  A    between atoms: C_5  and  N_7
REMARK    3  A    between atoms: S_10  and  N_13
REMARK    4  A    between atoms: N_13  and  C_14
REMARK    5  A    between atoms: C_14  and  C_15
REMARK    6  A    between atoms: C_15  and  N_20
REMARK                            x       y       z     vdW  Elec       q    Type
REMARK                         _______ _______ _______ _____ _____    ______ ____
ROOT
ATOM      1  N   UNL     1       0.005   6.251  -0.298  0.00  0.00    -0.191 NA
ATOM      2  H   UNL     1       0.786   6.713  -0.918  0.00  0.00    +0.148 HD
ENDROOT
BRANCH   1   3
ATOM      3  S   UNL     1      -1.034   7.221   0.551  0.00  0.00    +0.061 S 
ATOM      4  O   UNL     1      -0.769   8.556   0.143  0.00  0.00    -0.153 OA
ATOM      5  O   UNL     1      -2.323   6.632   0.440  0.00  0.00    -0.153 OA
BRANCH   3   9
ATOM      6  C   UNL     1       0.140   6.947   4.915  0.00  0.00    +0.002 A 
ATOM      7  C   UNL     1      -1.101   6.496   4.503  0.00  0.00    +0.002 A 
ATOM      8  C   UNL     1      -1.461   6.585   3.171  0.00  0.00    +0.031 A 
ATOM      9  C   UNL     1      -0.577   7.114   2.250  0.00  0.00    +0.135 A 
ATOM     10  C   UNL     1       0.663   7.564   2.661  0.00  0.00    +0.152 A 
ATOM     11  C   UNL     1       1.022   7.481   3.994  0.00  0.00    +0.035 A 
BRANCH  10  12
ATOM     12  N   UNL     1       1.607   8.137   1.675  0.00  0.00    +0.058 N 
ATOM     13  O   UNL     1       2.643   8.655   2.053  0.00  0.00    -0.126 OA
ATOM     14  O   UNL     1       1.349   8.089   0.486  0.00  0.00    -0.126 OA
ENDBRANCH  10  12
ENDBRANCH   3   9
ENDBRANCH   1   3
BRANCH   1  15
ATOM     15  C   UNL     1       0.023   4.806  -0.053  0.00  0.00    +0.094 C 
BRANCH  15  16
ATOM     16  C   UNL     1       0.710   4.099  -1.224  0.00  0.00    -0.051 C 
ATOM     17  C   UNL     1      -0.083   4.340  -2.525  0.00  0.00    -0.011 C 
ATOM     18  C   UNL     1       0.632   5.545  -3.187  0.00  0.00    -0.001 C 
ATOM     19  C   UNL     1       2.124   5.270  -2.877  0.00  0.00    -0.001 C 
ATOM     20  C   UNL     1       2.113   4.691  -1.447  0.00  0.00    -0.011 C 
BRANCH  16  21
ATOM     21  N   UNL     1       0.808   2.659  -0.954  0.00  0.00    +0.385 N 
ATOM     22  C   UNL     1      -0.520   2.041  -0.914  0.00  0.00    -0.067 C 
ATOM     23  C   UNL     1      -0.392   0.523  -1.094  0.00  0.00    +0.050 C 
ATOM     24  S   UNL     1       0.599  -0.135   0.284  0.00  0.00    -0.164 S 
ATOM     25  C   UNL     1       2.062   0.947   0.278  0.00  0.00    +0.050 C 
ATOM     26  C   UNL     1       1.585   2.404   0.262  0.00  0.00    -0.067 C 
ATOM     27  H   UNL     1       1.353   2.181  -1.781  0.00  0.00    -0.081 HD
ENDBRANCH  16  21
ENDBRANCH  15  16
ENDBRANCH   1  15
TORSDOF 6
