REMARK  Name = ZINC39782259
REMARK  10 active torsions:
REMARK  status: ('A' for Active; 'I' for Inactive)
REMARK    1  A    between atoms: C_1  and  N_2
REMARK    2  A    between atoms: N_7  and  C_10
REMARK    3  A    between atoms: C_10  and  C_11
REMARK    4  A    between atoms: C_11  and  C_12
REMARK    5  A    between atoms: C_12  and  S_13
REMARK    6  A    between atoms: S_13  and  C_14
REMARK    7  A    between atoms: C_18  and  C_20
REMARK    8  A    between atoms: C_20  and  C_21
REMARK    9  A    between atoms: C_21  and  C_22
REMARK   10  A    between atoms: N_27  and  C_30
REMARK                            x       y       z     vdW  Elec       q    Type
REMARK                         _______ _______ _______ _____ _____    ______ ____
ROOT
ATOM      1  C   UNL     1       2.971  -2.907  -1.470  0.00  0.00    +0.033 C 
ENDROOT
BRANCH   1   2
ATOM      2  C   UNL     1       2.526  -2.679  -0.024  0.00  0.00    +0.131 C 
BRANCH   2   9
ATOM      3  C   UNL     1      -0.018   1.461   0.010  0.00  0.00    +0.155 C 
ATOM      4  N   UNL     1       0.002  -0.004   0.002  0.00  0.00    -0.283 N 
ATOM      5  C   UNL     1      -1.188  -0.705   0.004  0.00  0.00    +0.131 A 
ATOM      6  C   UNL     1      -1.153  -2.069  -0.004  0.00  0.00    +0.135 A 
ATOM      7  C   UNL     1       0.093  -2.725  -0.013  0.00  0.00    +0.280 A 
ATOM      8  O   UNL     1       0.144  -3.943  -0.021  0.00  0.00    -0.265 OA
ATOM      9  N   UNL     1       1.228  -1.999  -0.014  0.00  0.00    -0.259 N 
ATOM     10  C   UNL     1       1.178  -0.655  -0.013  0.00  0.00    +0.333 A 
ATOM     11  O   UNL     1       2.214  -0.018  -0.019  0.00  0.00    -0.246 OA
ATOM     12  N   UNL     1      -2.471  -2.585  -0.001  0.00  0.00    -0.310 N 
ATOM     13  C   UNL     1      -3.372  -1.424   0.009  0.00  0.00    +0.211 C 
ATOM     14  N   UNL     1      -2.487  -0.252   0.012  0.00  0.00    -0.313 N 
ATOM     15  C   UNL     1      -2.861  -3.998  -0.009  0.00  0.00    +0.131 C 
ATOM     16  H   UNL     1      -2.769   0.676   0.019  0.00  0.00    +0.149 HD
ENDBRANCH   2   9
ENDBRANCH   1   2
BRANCH   1  17
ATOM     17  C   UNL     1       4.326  -3.617  -1.480  0.00  0.00    +0.079 C 
BRANCH  17  18
ATOM     18  S   UNL     1       4.854  -3.888  -3.194  0.00  0.00    -0.086 S 
BRANCH  18  19
ATOM     19  C   UNL     1       6.409  -4.703  -3.037  0.00  0.00    +0.184 A 
ATOM     20  N   UNL     1       7.201  -5.107  -4.054  0.00  0.00    -0.254 N 
ATOM     21  H   UNL     1       7.026  -5.007  -5.003  0.00  0.00    +0.191 HD
ATOM     22  N   UNL     1       8.328  -5.702  -3.464  0.00  0.00    -0.157 NA
ATOM     23  C   UNL     1       8.165  -5.630  -2.170  0.00  0.00    +0.152 A 
ATOM     24  N   UNL     1       7.008  -5.020  -1.909  0.00  0.00    -0.206 NA
BRANCH  23  25
ATOM     25  C   UNL     1       9.133  -6.146  -1.137  0.00  0.00    +0.078 C 
BRANCH  25  26
ATOM     26  C   UNL     1      10.129  -5.043  -0.775  0.00  0.00    +0.011 C 
BRANCH  26  27
ATOM     27  C   UNL     1      11.112  -5.567   0.274  0.00  0.00    -0.011 C 
ATOM     28  C   UNL     1      10.379  -5.814   1.609  0.00  0.00    +0.003 C 
ATOM     29  C   UNL     1      11.405  -5.391   2.689  0.00  0.00    +0.000 C 
ATOM     30  C   UNL     1      12.082  -4.153   2.052  0.00  0.00    +0.000 C 
ATOM     31  C   UNL     1      12.195  -4.511   0.556  0.00  0.00    +0.003 C 
ENDBRANCH  26  27
ENDBRANCH  25  26
ENDBRANCH  23  25
ENDBRANCH  18  19
ENDBRANCH  17  18
ENDBRANCH   1  17
TORSDOF 8
