REMARK  Name = ZINC08719241
REMARK  10 active torsions:
REMARK  status: ('A' for Active; 'I' for Inactive)
REMARK    1  A    between atoms: C_1  and  C_2
REMARK    2  A    between atoms: C_5  and  C_32
REMARK    3  A    between atoms: C_6  and  N_8
REMARK    4  A    between atoms: C_9  and  C_25
REMARK    5  A    between atoms: C_12  and  S_13
REMARK    6  A    between atoms: S_13  and  C_14
REMARK    7  A    between atoms: C_14  and  C_16
REMARK    8  A    between atoms: C_14  and  C_19
REMARK    9  A    between atoms: C_16  and  C_17
REMARK   10  A    between atoms: C_16  and  C_18
REMARK                            x       y       z     vdW  Elec       q    Type
REMARK                         _______ _______ _______ _____ _____    ______ ____
ROOT
ATOM      1  N   UNL     1      -6.373   0.631   0.468  0.00  0.00    -0.270 N 
ATOM      2  C   UNL     1      -6.701  -0.689   0.252  0.00  0.00    +0.171 A 
ATOM      3  N   UNL     1      -5.666  -1.253  -0.327  0.00  0.00    -0.128 NA
ATOM      4  N   UNL     1      -4.730  -0.389  -0.491  0.00  0.00    -0.122 NA
ATOM      5  C   UNL     1      -5.103   0.779  -0.019  0.00  0.00    +0.197 A 
ENDROOT
BRANCH   1  11
ATOM      6  C   UNL     1      -9.551   4.356   0.001  0.00  0.00    +0.044 C 
ATOM      7  C   UNL     1      -8.723   3.435   0.860  0.00  0.00    -0.048 A 
ATOM      8  C   UNL     1      -8.752   3.563   2.237  0.00  0.00    +0.004 A 
ATOM      9  C   UNL     1      -7.993   2.720   3.028  0.00  0.00    +0.005 A 
ATOM     10  C   UNL     1      -7.204   1.748   2.445  0.00  0.00    -0.026 A 
ATOM     11  C   UNL     1      -7.173   1.617   1.063  0.00  0.00    +0.054 A 
ATOM     12  C   UNL     1      -7.932   2.469   0.271  0.00  0.00    +0.030 A 
ATOM     13  C   UNL     1      -6.377   0.830   3.308  0.00  0.00    +0.046 C 
ENDBRANCH   1  11
BRANCH   2  14
ATOM     14  C   UNL     1      -7.976  -1.347   0.606  0.00  0.00    +0.038 A 
ATOM     15  C   UNL     1      -9.191  -0.748   0.271  0.00  0.00    +0.013 A 
ATOM     16  C   UNL     1     -10.378  -1.367   0.604  0.00  0.00    +0.001 A 
ATOM     17  C   UNL     1     -10.366  -2.581   1.270  0.00  0.00    +0.001 A 
ATOM     18  C   UNL     1      -9.166  -3.181   1.606  0.00  0.00    +0.021 A 
ATOM     19  C   UNL     1      -7.971  -2.575   1.273  0.00  0.00    +0.052 A 
ATOM     20 CL   UNL     1      -6.465  -3.333   1.689  0.00  0.00    -0.083 Cl
ENDBRANCH   2  14
BRANCH   5  21
ATOM     21  S   UNL     1      -4.150   2.261  -0.019  0.00  0.00    -0.073 S 
BRANCH  21  22
ATOM     22  C   UNL     1      -2.641   1.664  -0.822  0.00  0.00    +0.143 C 
BRANCH  22  23
ATOM     23  C   UNL     1      -1.570   2.719  -0.726  0.00  0.00    +0.234 C 
ATOM     24  O   UNL     1      -1.873   3.874  -0.514  0.00  0.00    -0.274 OA
ATOM     25  N   UNL     1      -0.274   2.380  -0.877  0.00  0.00    -0.239 N 
ATOM     26  C   UNL     1       0.683   3.325  -0.798  0.00  0.00    +0.303 C 
ATOM     27  O   UNL     1       0.379   4.482  -0.585  0.00  0.00    -0.253 OA
ATOM     28  N   UNL     1       1.979   2.987  -0.955  0.00  0.00    -0.313 N 
ATOM     29  H   UNL     1      -0.031   1.456  -1.048  0.00  0.00    +0.159 HD
ATOM     30  H   UNL     1       2.221   2.063  -1.125  0.00  0.00    +0.146 HD
ATOM     31  H   UNL     1       2.668   3.667  -0.897  0.00  0.00    +0.146 HD
ENDBRANCH  22  23
BRANCH  22  32
ATOM     32  C   UNL     1      -2.931   1.363  -2.293  0.00  0.00    +0.005 C 
ATOM     33  C   UNL     1      -3.298   2.660  -3.017  0.00  0.00    +0.009 C 
ATOM     34  C   UNL     1      -1.689   0.750  -2.943  0.00  0.00    +0.009 C 
ENDBRANCH  22  32
ENDBRANCH  21  22
ENDBRANCH   5  21
TORSDOF 6
