REMARK  Name = ZINC66859853
REMARK  7 active torsions:
REMARK  status: ('A' for Active; 'I' for Inactive)
REMARK    1  A    between atoms: C_10  and  C_11
REMARK    2  A    between atoms: C_10  and  O_28
REMARK    3  A    between atoms: C_11  and  N_12
REMARK    4  A    between atoms: N_12  and  C_13
REMARK    5  A    between atoms: C_16  and  C_22
REMARK    6  A    between atoms: C_18  and  N_19
REMARK    7  A    between atoms: N_24  and  C_25
REMARK                            x       y       z     vdW  Elec       q    Type
REMARK                         _______ _______ _______ _____ _____    ______ ____
ROOT
ATOM      1  C   UNL     1       5.718   2.283   1.152  0.00  0.00    +0.058 A 
ATOM      2  C   UNL     1       6.552   1.765   2.139  0.00  0.00    +0.026 A 
ATOM      3  C   UNL     1       7.465   2.581   2.768  0.00  0.00    +0.015 A 
ATOM      4  C   UNL     1       7.553   3.931   2.415  0.00  0.00    +0.039 A 
ATOM      5  C   UNL     1       6.714   4.448   1.424  0.00  0.00    +0.047 A 
ATOM      6  C   UNL     1       5.807   3.626   0.795  0.00  0.00    +0.148 A 
ENDROOT
BRANCH   4   7
ATOM      7  C   UNL     1       8.530   4.808   3.088  0.00  0.00    +0.244 C 
ATOM      8  O   UNL     1       8.606   5.982   2.780  0.00  0.00    -0.270 OA
ATOM      9  N   UNL     1       9.339   4.308   4.043  0.00  0.00    -0.308 N 
ATOM     10  H   UNL     1       9.278   3.371   4.289  0.00  0.00    +0.149 HD
BRANCH   9  11
ATOM     11  C   UNL     1      10.309   5.179   4.711  0.00  0.00    +0.073 C 
ATOM     12  C   UNL     1      11.720   4.629   4.928  0.00  0.00    +0.024 C 
ATOM     13  C   UNL     1      10.767   4.780   6.116  0.00  0.00    +0.024 C 
ENDBRANCH   9  11
ENDBRANCH   4   7
BRANCH   6  14
ATOM     14  N   UNL     1       4.921   4.171  -0.258  0.00  0.00    +0.058 N 
ATOM     15  O   UNL     1       4.916   5.358  -0.489  0.00  0.00    -0.126 OA
ATOM     16  O   UNL     1       4.204   3.430  -0.888  0.00  0.00    -0.126 OA
ENDBRANCH   6  14
BRANCH   1  17
ATOM     17  N   UNL     1       4.797   1.456   0.518  0.00  0.00    -0.339 N 
ATOM     18  H   UNL     1       4.274   1.794  -0.226  0.00  0.00    +0.146 HD
BRANCH  17  19
ATOM     19  C   UNL     1       4.616   0.076   0.975  0.00  0.00    +0.141 C 
BRANCH  19  29
ATOM     20  C   UNL     1       3.358  -4.719   1.314  0.00  0.00    +0.000 A 
ATOM     21  C   UNL     1       3.385  -3.689   2.236  0.00  0.00    +0.000 A 
ATOM     22  C   UNL     1       3.481  -2.384   1.800  0.00  0.00    +0.007 A 
ATOM     23  C   UNL     1       3.551  -2.095   0.443  0.00  0.00    -0.011 A 
ATOM     24  C   UNL     1       3.529  -3.122  -0.474  0.00  0.00    -0.041 A 
ATOM     25  C   UNL     1       3.429  -4.435  -0.034  0.00  0.00    +0.004 A 
ATOM     26  C   UNL     1       3.618  -2.884  -1.959  0.00  0.00    +0.035 C 
ATOM     27  C   UNL     1       3.290  -1.430  -2.291  0.00  0.00    +0.008 C 
ATOM     28  C   UNL     1       4.148  -0.524  -1.399  0.00  0.00    +0.041 C 
ATOM     29  C   UNL     1       3.646  -0.648   0.038  0.00  0.00    +0.106 C 
BRANCH  29  30
ATOM     30  O   UNL     1       2.355  -0.044   0.140  0.00  0.00    -0.382 OA
ATOM     31  H   UNL     1       1.978  -0.069   1.030  0.00  0.00    +0.211 HD
ENDBRANCH  29  30
ENDBRANCH  19  29
ENDBRANCH  17  19
ENDBRANCH   1  17
TORSDOF 7
