REMARK  Name = ZINC63709753
REMARK  6 active torsions:
REMARK  status: ('A' for Active; 'I' for Inactive)
REMARK    1  A    between atoms: C_1  and  C_2
REMARK    2  A    between atoms: C_4  and  N_8
REMARK    3  A    between atoms: C_9  and  C_11
REMARK    4  A    between atoms: C_11  and  S_12
REMARK    5  A    between atoms: S_12  and  C_13
REMARK    6  A    between atoms: N_23  and  C_24
REMARK                            x       y       z     vdW  Elec       q    Type
REMARK                         _______ _______ _______ _____ _____    ______ ____
ROOT
ATOM      1  C   UNL     1      -2.860  -7.353   3.444  0.00  0.00    +0.223 C 
ATOM      2  N   UNL     1      -3.950  -6.571   4.044  0.00  0.00    -0.316 N 
ATOM      3  C   UNL     1      -3.581  -5.402   4.740  0.00  0.00    +0.048 A 
ATOM      4  C   UNL     1      -4.332  -4.274   4.992  0.00  0.00    +0.031 A 
ATOM      5  C   UNL     1      -3.782  -3.251   5.694  0.00  0.00    +0.048 A 
ATOM      6  S   UNL     1      -2.220  -3.773   6.044  0.00  0.00    -0.090 S 
ATOM      7  C   UNL     1      -2.277  -5.350   5.261  0.00  0.00    +0.095 A 
ATOM      8  C   UNL     1      -1.340  -6.378   5.116  0.00  0.00    +0.257 C 
ATOM      9  O   UNL     1      -0.264  -6.345   5.686  0.00  0.00    -0.269 OA
ATOM     10  N   UNL     1      -1.687  -7.412   4.311  0.00  0.00    -0.267 N 
ATOM     11  H   UNL     1      -4.877  -6.845   3.965  0.00  0.00    +0.149 HD
ENDROOT
BRANCH  10  12
ATOM     12  C   UNL     1      -0.860  -8.622   4.313  0.00  0.00    +0.079 C 
ATOM     13  C   UNL     1      -0.838  -9.222   5.720  0.00  0.00    +0.022 C 
ATOM     14  C   UNL     1       0.025 -10.486   5.721  0.00  0.00    +0.002 C 
ATOM     15  C   UNL     1       1.451 -10.130   5.296  0.00  0.00    +0.000 C 
ATOM     16  C   UNL     1       1.429  -9.529   3.889  0.00  0.00    +0.002 C 
ATOM     17  C   UNL     1       0.566  -8.266   3.887  0.00  0.00    +0.022 C 
ENDBRANCH  10  12
BRANCH   1  18
ATOM     18  S   UNL     1      -2.389  -6.593   1.865  0.00  0.00    -0.110 S 
BRANCH  18  19
ATOM     19  C   UNL     1      -1.828  -4.931   2.329  0.00  0.00    +0.168 C 
BRANCH  19  21
ATOM     20  N   UNL     1      -0.946  -2.918   1.194  0.00  0.00    -0.288 N 
ATOM     21  C   UNL     1      -1.402  -4.182   1.093  0.00  0.00    +0.225 C 
ATOM     22  O   UNL     1      -1.470  -4.717   0.006  0.00  0.00    -0.275 OA
ATOM     23  H   UNL     1      -0.891  -2.491   2.063  0.00  0.00    +0.151 HD
BRANCH  20  27
ATOM     24  C   UNL     1      -0.018   1.503   0.010  0.00  0.00    +0.067 C 
ATOM     25  C   UNL     1       0.002  -0.004   0.002  0.00  0.00    +0.060 C 
ATOM     26  C   UNL     1      -1.086  -0.777   0.003  0.00  0.00    +0.045 C 
ATOM     27  C   UNL     1      -0.531  -2.190  -0.007  0.00  0.00    +0.239 C 
ATOM     28  N   UNL     1       0.926  -1.973  -0.013  0.00  0.00    -0.160 NA
ATOM     29  N   UNL     1       1.125  -0.756  -0.013  0.00  0.00    -0.157 NA
ENDBRANCH  20  27
ENDBRANCH  19  21
ENDBRANCH  18  19
ENDBRANCH   1  18
TORSDOF 5
