REMARK  Name = ZINC15899398
REMARK  12 active torsions:
REMARK  status: ('A' for Active; 'I' for Inactive)
REMARK    1  A    between atoms: C_1  and  O_2
REMARK    2  A    between atoms: O_2  and  C_3
REMARK    3  A    between atoms: C_8  and  N_9
REMARK    4  A    between atoms: N_9  and  S_10
REMARK    5  A    between atoms: S_10  and  C_13
REMARK    6  A    between atoms: C_16  and  C_19
REMARK    7  A    between atoms: C_20  and  C_21
REMARK    8  A    between atoms: N_23  and  N_24
REMARK    9  A    between atoms: N_24  and  C_25
REMARK   10  A    between atoms: C_25  and  N_27
REMARK   11  A    between atoms: N_27  and  C_28
REMARK   12  A    between atoms: C_28  and  C_29
REMARK                            x       y       z     vdW  Elec       q    Type
REMARK                         _______ _______ _______ _____ _____    ______ ____
ROOT
ATOM      1  C   UNL     1      -3.526  10.889  -0.050  0.00  0.00    +0.109 A 
ATOM      2  C   UNL     1      -4.689  10.142  -0.117  0.00  0.00    +0.029 A 
ATOM      3  C   UNL     1      -4.625   8.768  -0.205  0.00  0.00    +0.010 A 
ATOM      4  C   UNL     1      -3.381   8.129  -0.226  0.00  0.00    -0.025 A 
ATOM      5  C   UNL     1      -2.211   8.890  -0.151  0.00  0.00    +0.010 A 
ATOM      6  C   UNL     1      -2.291  10.265  -0.070  0.00  0.00    +0.029 A 
ENDROOT
BRANCH   1   7
ATOM      7  S   UNL     1      -3.618  12.645   0.063  0.00  0.00    +0.072 S 
ATOM      8  O   UNL     1      -2.387  13.149  -0.436  0.00  0.00    -0.150 OA
ATOM      9  O   UNL     1      -4.874  13.022  -0.485  0.00  0.00    -0.150 OA
BRANCH   7  10
ATOM     10  N   UNL     1      -3.669  13.031   1.673  0.00  0.00    -0.213 N 
ATOM     11  H   UNL     1      -4.433  13.508   2.033  0.00  0.00    +0.174 HD
BRANCH  10  17
ATOM     12  C   UNL     1      -2.863  12.282   3.828  0.00  0.00    +0.142 A 
ATOM     13  C   UNL     1      -1.811  11.924   4.655  0.00  0.00    +0.047 A 
ATOM     14  C   UNL     1      -0.514  11.950   4.176  0.00  0.00    +0.004 A 
ATOM     15  C   UNL     1      -0.263  12.333   2.871  0.00  0.00    +0.002 A 
ATOM     16  C   UNL     1      -1.307  12.687   2.038  0.00  0.00    +0.028 A 
ATOM     17  C   UNL     1      -2.610  12.668   2.513  0.00  0.00    +0.090 A 
BRANCH  12  19
ATOM     18  C   UNL     1      -4.322  11.849   5.655  0.00  0.00    +0.277 C 
ATOM     19  O   UNL     1      -4.139  12.256   4.298  0.00  0.00    -0.493 OA
ENDBRANCH  12  19
ENDBRANCH  10  17
ENDBRANCH   7  10
ENDBRANCH   1   7
BRANCH   4  20
ATOM     20  C   UNL     1      -3.304   6.662  -0.320  0.00  0.00    +0.013 C 
ATOM     21  C   UNL     1      -2.104   6.050  -0.340  0.00  0.00    +0.069 C 
BRANCH  21  22
ATOM     22  C   UNL     1      -2.027   4.590  -0.433  0.00  0.00    +0.253 C 
ATOM     23  O   UNL     1      -3.048   3.930  -0.492  0.00  0.00    -0.269 OA
ATOM     24  N   UNL     1      -0.827   3.978  -0.453  0.00  0.00    -0.232 N 
ATOM     25  H   UNL     1      -0.013   4.504  -0.405  0.00  0.00    +0.173 HD
BRANCH  24  26
ATOM     26  N   UNL     1      -0.753   2.582  -0.542  0.00  0.00    -0.246 N 
ATOM     27  H   UNL     1      -1.567   2.056  -0.589  0.00  0.00    +0.172 HD
BRANCH  26  28
ATOM     28  C   UNL     1       0.447   1.970  -0.562  0.00  0.00    +0.147 C 
ATOM     29  S   UNL     1       0.536   0.264  -0.671  0.00  0.00    -0.017 S 
BRANCH  28  30
ATOM     30  N   UNL     1       1.577   2.701  -0.501  0.00  0.00    -0.323 N 
ATOM     31  H   UNL     1       1.527   3.668  -0.439  0.00  0.00    +0.148 HD
BRANCH  30  32
ATOM     32  C   UNL     1       2.883   2.037  -0.529  0.00  0.00    +0.134 C 
BRANCH  32  33
ATOM     33  C   UNL     1       3.992   3.087  -0.448  0.00  0.00    +0.135 C 
ATOM     34  C   UNL     1       5.377   2.420  -0.602  0.00  0.00    +0.035 C 
ATOM     35  C   UNL     1       6.283   3.208   0.370  0.00  0.00    +0.031 C 
ATOM     36  C   UNL     1       5.339   4.259   0.995  0.00  0.00    +0.160 C 
ATOM     37  O   UNL     1       4.017   3.692   0.863  0.00  0.00    -0.375 OA
ENDBRANCH  32  33
ENDBRANCH  30  32
ENDBRANCH  28  30
ENDBRANCH  26  28
ENDBRANCH  24  26
ENDBRANCH  21  22
ENDBRANCH   4  20
TORSDOF 11
