REMARK  Name = ZINC45723367
REMARK  9 active torsions:
REMARK  status: ('A' for Active; 'I' for Inactive)
REMARK    1  A    between atoms: C_1  and  C_2
REMARK    2  A    between atoms: C_2  and  C_28
REMARK    3  A    between atoms: C_8  and  O_11
REMARK    4  A    between atoms: O_11  and  C_12
REMARK    5  A    between atoms: C_12  and  C_13
REMARK    6  A    between atoms: C_13  and  N_14
REMARK    7  A    between atoms: N_17  and  C_18
REMARK    8  A    between atoms: C_23  and  C_24
REMARK    9  A    between atoms: C_24  and  C_25
REMARK                            x       y       z     vdW  Elec       q    Type
REMARK                         _______ _______ _______ _____ _____    ______ ____
ROOT
ATOM      1  N   UNL     1       3.033  -1.961   5.614  0.00  0.00    -0.296 N 
ATOM      2  C   UNL     1       2.587  -2.100   6.878  0.00  0.00    +0.304 C 
ATOM      3  O   UNL     1       2.877  -1.272   7.720  0.00  0.00    -0.253 OA
ATOM      4  N   UNL     1       1.819  -3.157   7.210  0.00  0.00    -0.269 N 
ATOM      5  H   UNL     1       2.801  -2.622   4.943  0.00  0.00    +0.150 HD
ATOM      6  H   UNL     1       1.520  -3.773   6.523  0.00  0.00    +0.156 HD
ENDROOT
BRANCH   4   7
ATOM      7  C   UNL     1       1.454  -3.365   8.545  0.00  0.00    +0.038 A 
ATOM      8  C   UNL     1       2.240  -2.854   9.569  0.00  0.00    +0.023 A 
ATOM      9  C   UNL     1       1.876  -3.061  10.885  0.00  0.00    +0.002 A 
ATOM     10  C   UNL     1       0.732  -3.777  11.184  0.00  0.00    +0.000 A 
ATOM     11  C   UNL     1      -0.053  -4.288  10.166  0.00  0.00    +0.006 A 
ATOM     12  C   UNL     1       0.302  -4.079   8.848  0.00  0.00    -0.017 A 
BRANCH  12  13
ATOM     13  C   UNL     1      -0.557  -4.631   7.739  0.00  0.00    +0.132 C 
BRANCH  13  14
ATOM     14  C   UNL     1      -0.016  -5.969   7.303  0.00  0.00    +0.215 C 
ATOM     15  O   UNL     1       0.969  -6.429   7.840  0.00  0.00    -0.276 OA
ATOM     16  N   UNL     1      -0.628  -6.654   6.317  0.00  0.00    -0.329 N 
ATOM     17  H   UNL     1      -1.416  -6.286   5.888  0.00  0.00    +0.145 HD
ATOM     18  H   UNL     1      -0.280  -7.515   6.037  0.00  0.00    +0.145 HD
ENDBRANCH  13  14
ENDBRANCH  12  13
ENDBRANCH   4   7
BRANCH   1  19
ATOM     19  C   UNL     1       3.867  -0.812   5.254  0.00  0.00    +0.146 C 
BRANCH  19  20
ATOM     20  C   UNL     1       4.234  -0.894   3.771  0.00  0.00    +0.248 C 
BRANCH  20  21
ATOM     21  O   UNL     1       3.051  -0.765   2.980  0.00  0.00    -0.487 OA
BRANCH  21  29
ATOM     22  C   UNL     1       0.042   1.488  -0.029  0.00  0.00    +0.056 C 
ATOM     23  C   UNL     1       0.062  -0.042  -0.029  0.00  0.00    +0.109 C 
ATOM     24  C   UNL     1       0.901  -0.579  -1.212  0.00  0.00    +0.086 C 
ATOM     25  C   UNL     1       2.268  -0.746  -0.577  0.00  0.00    +0.002 A 
ATOM     26  C   UNL     1       3.524  -0.920  -1.118  0.00  0.00    +0.007 A 
ATOM     27  C   UNL     1       4.625  -1.041  -0.290  0.00  0.00    +0.004 A 
ATOM     28  C   UNL     1       4.462  -0.987   1.082  0.00  0.00    +0.049 A 
ATOM     29  C   UNL     1       3.203  -0.816   1.629  0.00  0.00    +0.162 A 
ATOM     30  C   UNL     1       2.087  -0.696   0.797  0.00  0.00    +0.166 A 
ATOM     31  O   UNL     1       0.772  -0.542   1.117  0.00  0.00    -0.482 OA
ATOM     32  C   UNL     1      -1.362  -0.600  -0.071  0.00  0.00    +0.056 C 
ENDBRANCH  21  29
ENDBRANCH  20  21
ENDBRANCH  19  20
ENDBRANCH   1  19
TORSDOF 7
