REMARK  Name = ZINC05458306
REMARK  4 active torsions:
REMARK  status: ('A' for Active; 'I' for Inactive)
REMARK    1  A    between atoms: C_1  and  O_2
REMARK    2  A    between atoms: O_2  and  C_3
REMARK    3  A    between atoms: C_8  and  C_9
REMARK    4  A    between atoms: C_12  and  C_24
REMARK                            x       y       z     vdW  Elec       q    Type
REMARK                         _______ _______ _______ _____ _____    ______ ____
ROOT
ATOM      1  C   UNL     1       0.018  -2.829  -0.013  0.00  0.00    +0.126 C 
ATOM      2  C   UNL     1       0.075  -3.724   1.230  0.00  0.00    +0.057 C 
ATOM      3  C   UNL     1       1.224  -4.728   1.092  0.00  0.00    +0.106 C 
ATOM      4  N   UNL     1       0.949  -5.602  -0.064  0.00  0.00    -0.309 N 
ATOM      5  C   UNL     1       0.488  -4.978  -1.213  0.00  0.00    +0.175 A 
ATOM      6  N   UNL     1       0.051  -3.672  -1.211  0.00  0.00    -0.306 N 
ATOM      7  C   UNL     1      -0.322  -3.368  -2.491  0.00  0.00    +0.069 A 
ATOM      8  C   UNL     1      -0.830  -2.215  -3.077  0.00  0.00    +0.028 A 
ATOM      9  C   UNL     1      -1.101  -2.264  -4.435  0.00  0.00    +0.002 A 
ATOM     10  C   UNL     1      -0.880  -3.406  -5.186  0.00  0.00    +0.002 A 
ATOM     11  C   UNL     1      -0.375  -4.565  -4.627  0.00  0.00    +0.028 A 
ATOM     12  C   UNL     1      -0.093  -4.538  -3.256  0.00  0.00    +0.065 A 
ATOM     13  N   UNL     1       0.396  -5.479  -2.417  0.00  0.00    -0.327 N 
ATOM     14  H   UNL     1       1.083  -6.562  -0.022  0.00  0.00    +0.149 HD
ATOM     15  H   UNL     1       0.644  -6.382  -2.669  0.00  0.00    +0.169 HD
ENDROOT
BRANCH   3  16
ATOM     16  C   UNL     1       1.325  -5.558   2.346  0.00  0.00    -0.027 A 
ATOM     17  C   UNL     1       0.469  -6.627   2.538  0.00  0.00    +0.007 A 
ATOM     18  C   UNL     1       0.561  -7.388   3.688  0.00  0.00    +0.020 A 
ATOM     19  C   UNL     1       1.509  -7.080   4.647  0.00  0.00    +0.041 A 
ATOM     20  C   UNL     1       2.365  -6.011   4.455  0.00  0.00    +0.020 A 
ATOM     21  C   UNL     1       2.276  -5.253   3.302  0.00  0.00    +0.007 A 
ATOM     22 CL   UNL     1       1.625  -8.036   6.092  0.00  0.00    -0.084 Cl
ENDBRANCH   3  16
BRANCH   1  28
ATOM     23  C   UNL     1      -1.200  -0.637   0.010  0.00  0.00    +0.125 A 
ATOM     24  C   UNL     1      -2.375   0.101   0.019  0.00  0.00    +0.046 A 
ATOM     25  C   UNL     1      -3.596  -0.545   0.027  0.00  0.00    +0.004 A 
ATOM     26  C   UNL     1      -3.648  -1.927   0.026  0.00  0.00    +0.001 A 
ATOM     27  C   UNL     1      -2.479  -2.665   0.017  0.00  0.00    +0.009 A 
ATOM     28  C   UNL     1      -1.255  -2.023   0.003  0.00  0.00    +0.017 A 
BRANCH  23  30
ATOM     29  C   UNL     1      -0.017   1.425   0.010  0.00  0.00    +0.277 C 
ATOM     30  O   UNL     1       0.002  -0.004   0.002  0.00  0.00    -0.495 OA
ENDBRANCH  23  30
ENDBRANCH   1  28
TORSDOF 3
