REMARK  Name = ZINC64603445
REMARK  4 active torsions:
REMARK  status: ('A' for Active; 'I' for Inactive)
REMARK    1  A    between atoms: C_1  and  N_2
REMARK    2  A    between atoms: C_10  and  N_12
REMARK    3  A    between atoms: C_13  and  C_15
REMARK    4  A    between atoms: C_20  and  C_22
REMARK                            x       y       z     vdW  Elec       q    Type
REMARK                         _______ _______ _______ _____ _____    ______ ____
ROOT
ATOM      1  N   UNL     1       4.966  -2.508   0.296  0.00  0.00    -0.278 N 
ATOM      2  C   UNL     1       6.092  -1.790   0.112  0.00  0.00    +0.303 C 
ATOM      3  O   UNL     1       6.027  -0.586  -0.028  0.00  0.00    -0.265 OA
ATOM      4  H   UNL     1       5.023  -3.458   0.485  0.00  0.00    +0.155 HD
ENDROOT
BRANCH   1  14
ATOM      5  C   UNL     1      -1.177  -0.660   0.618  0.00  0.00    +0.129 C 
ATOM      6  N   UNL     1      -0.015  -0.039  -0.022  0.00  0.00    -0.333 N 
ATOM      7  C   UNL     1      -0.151   1.234  -0.742  0.00  0.00    +0.105 C 
ATOM      8  C   UNL     1       0.616   1.109  -2.065  0.00  0.00    +0.024 C 
ATOM      9  C   UNL     1       2.099   0.899  -1.758  0.00  0.00    +0.038 C 
ATOM     10  C   UNL     1       2.280  -0.229  -0.777  0.00  0.00    -0.025 A 
ATOM     11  C   UNL     1       1.245  -0.647   0.047  0.00  0.00    +0.033 A 
ATOM     12  C   UNL     1       1.446  -1.685   0.951  0.00  0.00    +0.025 A 
ATOM     13  C   UNL     1       2.677  -2.302   1.035  0.00  0.00    +0.025 A 
ATOM     14  C   UNL     1       3.717  -1.885   0.214  0.00  0.00    +0.034 A 
ATOM     15  C   UNL     1       3.513  -0.853  -0.697  0.00  0.00    +0.028 A 
ENDBRANCH   1  14
BRANCH   2  16
ATOM     16  C   UNL     1       7.418  -2.475   0.080  0.00  0.00    +0.302 C 
ATOM     17  O   UNL     1       7.483  -3.678   0.220  0.00  0.00    -0.265 OA
ATOM     18  N   UNL     1       8.543  -1.756  -0.104  0.00  0.00    -0.293 N 
ATOM     19  C   UNL     1       8.610  -0.294  -0.280  0.00  0.00    +0.109 C 
ATOM     20  C   UNL     1      10.041   0.095   0.167  0.00  0.00    +0.033 C 
ATOM     21  C   UNL     1      10.869  -1.109  -0.357  0.00  0.00    +0.093 C 
ATOM     22  C   UNL     1       9.908  -2.300  -0.156  0.00  0.00    +0.121 C 
BRANCH  21  23
ATOM     23  C   UNL     1      12.120  -1.293   0.462  0.00  0.00    +0.215 C 
ATOM     24  O   UNL     1      12.355  -0.544   1.387  0.00  0.00    -0.276 OA
ATOM     25  N   UNL     1      12.979  -2.289   0.166  0.00  0.00    -0.329 N 
ATOM     26  H   UNL     1      12.791  -2.887  -0.574  0.00  0.00    +0.145 HD
ATOM     27  H   UNL     1      13.784  -2.407   0.693  0.00  0.00    +0.145 HD
ENDBRANCH  21  23
ENDBRANCH   2  16
TORSDOF 3
