REMARK  Name = ZINC67027998
REMARK  7 active torsions:
REMARK  status: ('A' for Active; 'I' for Inactive)
REMARK    1  A    between atoms: C_1  and  C_2
REMARK    2  A    between atoms: C_3  and  C_18
REMARK    3  A    between atoms: C_4  and  C_13
REMARK    4  A    between atoms: N_9  and  C_10
REMARK    5  A    between atoms: C_10  and  C_11
REMARK    6  A    between atoms: C_18  and  O_20
REMARK    7  A    between atoms: O_20  and  C_21
REMARK                            x       y       z     vdW  Elec       q    Type
REMARK                         _______ _______ _______ _____ _____    ______ ____
ROOT
ATOM      1  C   UNL     1       0.050   1.465   0.466  0.00  0.00    +0.061 C 
ATOM      2  C   UNL     1       0.035  -0.023   0.224  0.00  0.00    +0.024 C 
ATOM      3  C   UNL     1      -1.125  -0.703   0.341  0.00  0.00    +0.080 C 
ATOM      4  C   UNL     1      -1.095  -2.197   0.088  0.00  0.00    +0.162 C 
ATOM      5  N   UNL     1       0.206  -2.788  -0.267  0.00  0.00    -0.286 N 
ATOM      6  C   UNL     1       1.279  -1.976  -0.345  0.00  0.00    +0.307 C 
ATOM      7  O   UNL     1       2.358  -2.453  -0.637  0.00  0.00    -0.252 OA
ATOM      8  N   UNL     1       1.194  -0.659  -0.117  0.00  0.00    -0.255 N 
ATOM      9  H   UNL     1       0.290  -3.739  -0.440  0.00  0.00    +0.151 HD
ENDROOT
BRANCH   4  10
ATOM     10  C   UNL     1      -1.595  -2.889   1.331  0.00  0.00    +0.073 A 
ATOM     11  C   UNL     1      -2.627  -3.769   1.287  0.00  0.00    +0.072 A 
ATOM     12  S   UNL     1      -2.741  -4.229   3.008  0.00  0.00    -0.084 S 
ATOM     13  C   UNL     1      -1.486  -3.270   3.587  0.00  0.00    +0.156 A 
ATOM     14  N   UNL     1      -1.046  -2.671   2.509  0.00  0.00    -0.250 NA
ENDBRANCH   4  10
BRANCH   3  15
ATOM     15  C   UNL     1      -2.328  -0.045   0.688  0.00  0.00    +0.339 C 
ATOM     16  O   UNL     1      -2.329   1.156   0.886  0.00  0.00    -0.245 OA
BRANCH  15  17
ATOM     17  O   UNL     1      -3.474  -0.747   0.799  0.00  0.00    -0.465 OA
ATOM     18  C   UNL     1      -4.651  -0.018   1.152  0.00  0.00    +0.280 C 
ENDBRANCH  15  17
ENDBRANCH   3  15
BRANCH   8  19
ATOM     19  C   UNL     1       2.415   0.143  -0.232  0.00  0.00    +0.141 C 
BRANCH  19  20
ATOM     20  C   UNL     1       3.038   0.308   1.131  0.00  0.00    -0.015 C 
ATOM     21  C   UNL     1       4.285  -0.042   1.328  0.00  0.00    +0.005 C 
ENDBRANCH  19  20
ENDBRANCH   8  19
TORSDOF 5
