REMARK  Name = ZINC12893751
REMARK  8 active torsions:
REMARK  status: ('A' for Active; 'I' for Inactive)
REMARK    1  A    between atoms: C_1  and  C_2
REMARK    2  A    between atoms: C_3  and  C_8
REMARK    3  A    between atoms: C_4  and  N_7
REMARK    4  A    between atoms: C_8  and  O_10
REMARK    5  A    between atoms: O_10  and  C_11
REMARK    6  A    between atoms: C_11  and  C_13
REMARK    7  A    between atoms: C_11  and  C_14
REMARK    8  A    between atoms: N_16  and  C_17
REMARK                            x       y       z     vdW  Elec       q    Type
REMARK                         _______ _______ _______ _____ _____    ______ ____
ROOT
ATOM      1  C   UNL     1      -2.132   7.259  -0.950  0.00  0.00    +0.259 C 
ATOM      2  C   UNL     1      -2.848   7.752   0.309  0.00  0.00    +0.062 C 
ENDROOT
BRANCH   1   3
ATOM      3  C   UNL     1      -2.112   5.752  -0.958  0.00  0.00    +0.254 C 
ATOM      4  O   UNL     1      -2.637   5.143  -1.866  0.00  0.00    -0.272 OA
ATOM      5  N   UNL     1      -1.510   5.081   0.044  0.00  0.00    -0.307 N 
ATOM      6  H   UNL     1      -1.089   5.567   0.770  0.00  0.00    +0.149 HD
BRANCH   5   7
ATOM      7  C   UNL     1      -1.490   3.616   0.036  0.00  0.00    +0.035 C 
ATOM      8  C   UNL     1      -0.773   3.123  -1.223  0.00  0.00    +0.029 C 
ATOM      9  C   UNL     1      -0.753   1.593  -1.232  0.00  0.00    -0.008 C 
ATOM     10  C   UNL     1      -0.013   1.086   0.008  0.00  0.00    +0.007 C 
ATOM     11  C   UNL     1      -0.729   1.579   1.267  0.00  0.00    -0.008 C 
ATOM     12  C   UNL     1      -0.750   3.109   1.275  0.00  0.00    +0.029 C 
ATOM     13  C   UNL     1      -2.164   1.050   1.278  0.00  0.00    +0.007 C 
ATOM     14  C   UNL     1      -2.904   1.556   0.038  0.00  0.00    -0.008 C 
ATOM     15  C   UNL     1      -2.188   1.063  -1.221  0.00  0.00    +0.007 C 
ATOM     16  C   UNL     1      -2.925   3.086   0.047  0.00  0.00    +0.029 C 
ENDBRANCH   5   7
ENDBRANCH   1   3
BRANCH   1  17
ATOM     17  O   UNL     1      -2.834   7.740  -2.126  0.00  0.00    -0.449 OA
BRANCH  17  18
ATOM     18  C   UNL     1      -2.450   8.933  -2.623  0.00  0.00    +0.344 C 
ATOM     19  O   UNL     1      -1.552   9.554  -2.087  0.00  0.00    -0.245 OA
BRANCH  18  22
ATOM     20  C   UNL     1      -1.461   8.348  -5.334  0.00  0.00    +0.067 C 
ATOM     21  C   UNL     1      -2.668   9.220  -5.103  0.00  0.00    +0.063 A 
ATOM     22  C   UNL     1      -3.115   9.481  -3.809  0.00  0.00    +0.109 A 
ATOM     23  C   UNL     1      -4.247  10.300  -3.723  0.00  0.00    +0.097 A 
ATOM     24  S   UNL     1      -4.577  10.633  -5.391  0.00  0.00    +0.027 S 
ATOM     25  N   UNL     1      -3.310   9.742  -6.110  0.00  0.00    -0.213 NA
BRANCH  23  26
ATOM     26  N   UNL     1      -4.925  10.731  -2.601  0.00  0.00    -0.351 N 
ATOM     27  H   UNL     1      -4.623  10.463  -1.719  0.00  0.00    +0.143 HD
ATOM     28  H   UNL     1      -5.704  11.302  -2.694  0.00  0.00    +0.143 HD
ENDBRANCH  23  26
ENDBRANCH  18  22
ENDBRANCH  17  18
ENDBRANCH   1  17
TORSDOF 6
