REMARK  Name = ZINC16133516
REMARK  11 active torsions:
REMARK  status: ('A' for Active; 'I' for Inactive)
REMARK    1  A    between atoms: C_1  and  O_2
REMARK    2  A    between atoms: O_2  and  C_3
REMARK    3  A    between atoms: N_5  and  C_26
REMARK    4  A    between atoms: C_7  and  C_8
REMARK    5  A    between atoms: C_8  and  O_10
REMARK    6  A    between atoms: O_10  and  C_11
REMARK    7  A    between atoms: C_11  and  C_12
REMARK    8  A    between atoms: N_14  and  C_15
REMARK    9  A    between atoms: N_14  and  C_20
REMARK   10  A    between atoms: C_15  and  C_16
REMARK   11  A    between atoms: C_16  and  C_17
REMARK                            x       y       z     vdW  Elec       q    Type
REMARK                         _______ _______ _______ _____ _____    ______ ____
ROOT
ATOM      1  C   UNL     1      -0.648   2.819   3.264  0.00  0.00    +0.328 C 
ENDROOT
BRANCH   1   2
ATOM      2  C   UNL     1      -0.188   2.555   1.853  0.00  0.00    +0.258 C 
ATOM      3  O   UNL     1       0.491   3.376   1.273  0.00  0.00    -0.272 OA
ATOM      4  N   UNL     1      -0.532   1.408   1.236  0.00  0.00    -0.268 N 
BRANCH   4   5
ATOM      5  C   UNL     1      -1.391   0.503   1.869  0.00  0.00    +0.036 A 
ATOM      6  C   UNL     1      -0.922  -0.744   2.260  0.00  0.00    +0.023 A 
ATOM      7  C   UNL     1      -1.772  -1.633   2.890  0.00  0.00    +0.002 A 
ATOM      8  C   UNL     1      -3.090  -1.286   3.121  0.00  0.00    +0.000 A 
ATOM      9  C   UNL     1      -3.562  -0.047   2.727  0.00  0.00    +0.002 A 
ATOM     10  C   UNL     1      -2.716   0.848   2.102  0.00  0.00    +0.023 A 
ENDBRANCH   4   5
BRANCH   4  11
ATOM     11  C   UNL     1      -0.005   1.107  -0.098  0.00  0.00    +0.123 C 
BRANCH  11  12
ATOM     12  C   UNL     1      -0.957   1.664  -1.159  0.00  0.00    +0.115 C 
BRANCH  12  13
ATOM     13  C   UNL     1      -0.416   1.355  -2.531  0.00  0.00    +0.212 C 
ATOM     14  O   UNL     1       0.628   0.750  -2.649  0.00  0.00    -0.276 OA
ATOM     15  N   UNL     1      -1.092   1.751  -3.627  0.00  0.00    -0.329 N 
ATOM     16  H   UNL     1      -1.928   2.236  -3.533  0.00  0.00    +0.145 HD
ATOM     17  H   UNL     1      -0.744   1.553  -4.511  0.00  0.00    +0.145 HD
ENDBRANCH  12  13
ENDBRANCH  11  12
ENDBRANCH   4  11
ENDBRANCH   1   2
BRANCH   1  18
ATOM     18  O   UNL     1      -0.050   4.051   3.745  0.00  0.00    -0.451 OA
BRANCH  18  19
ATOM     19  C   UNL     1      -0.361   4.433   5.000  0.00  0.00    +0.364 C 
ATOM     20  O   UNL     1      -1.112   3.754   5.673  0.00  0.00    -0.243 OA
BRANCH  19  25
ATOM     21  C   UNL     1      -0.029   6.204   6.849  0.00  0.00    +0.172 A 
ATOM     22  C   UNL     1       0.703   7.346   6.912  0.00  0.00    +0.161 A 
ATOM     23  N   UNL     1       1.332   7.484   5.713  0.00  0.00    -0.235 N 
ATOM     24  N   UNL     1       1.032   6.503   4.940  0.00  0.00    -0.156 NA
ATOM     25  C   UNL     1       0.208   5.673   5.555  0.00  0.00    +0.211 A 
BRANCH  23  26
ATOM     26  C   UNL     1       2.184   8.542   5.372  0.00  0.00    +0.065 A 
ATOM     27  C   UNL     1       2.436   9.556   6.287  0.00  0.00    +0.028 A 
ATOM     28  C   UNL     1       3.280  10.595   5.949  0.00  0.00    +0.002 A 
ATOM     29  C   UNL     1       3.866  10.633   4.697  0.00  0.00    +0.000 A 
ATOM     30  C   UNL     1       3.613   9.627   3.781  0.00  0.00    +0.002 A 
ATOM     31  C   UNL     1       2.774   8.583   4.115  0.00  0.00    +0.028 A 
ENDBRANCH  23  26
BRANCH  21  33
ATOM     32  C   UNL     1      -0.904   6.401   9.053  0.00  0.00    +0.277 C 
ATOM     33  O   UNL     1      -0.822   5.679   7.822  0.00  0.00    -0.491 OA
ENDBRANCH  21  33
ENDBRANCH  19  25
ENDBRANCH  18  19
ENDBRANCH   1  18
TORSDOF 10
