REMARK  Name = ZINC63617445
REMARK  7 active torsions:
REMARK  status: ('A' for Active; 'I' for Inactive)
REMARK    1  A    between atoms: C_1  and  O_2
REMARK    2  A    between atoms: O_2  and  C_3
REMARK    3  A    between atoms: C_8  and  C_13
REMARK    4  A    between atoms: N_15  and  C_16
REMARK    5  A    between atoms: C_18  and  C_24
REMARK    6  A    between atoms: C_21  and  O_22
REMARK    7  A    between atoms: O_22  and  C_23
REMARK                            x       y       z     vdW  Elec       q    Type
REMARK                         _______ _______ _______ _____ _____    ______ ____
ROOT
ATOM      1  C   UNL     1       5.551  -5.519  -4.390  0.00  0.00    +0.076 A 
ATOM      2  C   UNL     1       5.931  -6.025  -3.155  0.00  0.00    +0.036 A 
ATOM      3  C   UNL     1       7.177  -6.602  -2.999  0.00  0.00    +0.013 A 
ATOM      4  C   UNL     1       8.047  -6.677  -4.071  0.00  0.00    +0.012 A 
ATOM      5  C   UNL     1       7.676  -6.176  -5.305  0.00  0.00    +0.048 A 
ATOM      6  C   UNL     1       6.426  -5.601  -5.471  0.00  0.00    +0.141 A 
ENDROOT
BRANCH   3   7
ATOM      7  C   UNL     1       7.588  -7.151  -1.657  0.00  0.00    +0.292 C 
ATOM      8  N   UNL     1       9.047  -7.067  -1.502  0.00  0.00    -0.303 N 
ATOM      9  C   UNL     1       9.499  -8.384  -1.336  0.00  0.00    +0.072 A 
ATOM     10  C   UNL     1      10.778  -8.892  -1.150  0.00  0.00    +0.027 A 
ATOM     11  C   UNL     1      10.968 -10.254  -1.010  0.00  0.00    +0.002 A 
ATOM     12  C   UNL     1       9.885 -11.112  -1.055  0.00  0.00    +0.004 A 
ATOM     13  C   UNL     1       8.610 -10.613  -1.241  0.00  0.00    +0.047 A 
ATOM     14  C   UNL     1       8.409  -9.246  -1.382  0.00  0.00    +0.144 A 
ATOM     15  O   UNL     1       7.260  -8.540  -1.571  0.00  0.00    -0.465 OA
ATOM     16  H   UNL     1       9.588  -6.263  -1.513  0.00  0.00    +0.150 HD
ENDBRANCH   3   7
BRANCH   1  19
ATOM     17  C   UNL     1       3.737  -4.233  -3.541  0.00  0.00    +0.244 C 
ATOM     18  O   UNL     1       4.296  -4.177  -2.466  0.00  0.00    -0.273 OA
ATOM     19  N   UNL     1       4.289  -4.934  -4.551  0.00  0.00    -0.281 N 
ATOM     20  H   UNL     1       3.812  -5.033  -5.390  0.00  0.00    +0.155 HD
BRANCH  17  26
ATOM     21  C   UNL     1       1.635   0.859  -2.566  0.00  0.00    +0.122 A 
ATOM     22  C   UNL     1       1.934   1.095  -3.921  0.00  0.00    +0.046 A 
ATOM     23  C   UNL     1       2.253   0.087  -4.762  0.00  0.00    +0.013 A 
ATOM     24  C   UNL     1       2.288  -1.288  -4.247  0.00  0.00    -0.003 A 
ATOM     25  C   UNL     1       2.566  -2.475  -4.830  0.00  0.00    +0.016 C 
ATOM     26  C   UNL     1       2.426  -3.519  -3.746  0.00  0.00    +0.190 C 
ATOM     27  N   UNL     1       2.049  -2.790  -2.530  0.00  0.00    -0.370 N 
ATOM     28  C   UNL     1       1.970  -1.511  -2.818  0.00  0.00    +0.047 A 
ATOM     29  C   UNL     1       1.653  -0.384  -2.020  0.00  0.00    +0.071 A 
ATOM     30  H   UNL     1       1.885  -3.186  -1.660  0.00  0.00    +0.161 HD
BRANCH  21  32
ATOM     31  C   UNL     1       1.315   3.205  -2.386  0.00  0.00    +0.277 C 
ATOM     32  O   UNL     1       1.323   1.914  -1.774  0.00  0.00    -0.495 OA
ENDBRANCH  21  32
ENDBRANCH  17  26
ENDBRANCH   1  19
BRANCH   6  33
ATOM     33  O   UNL     1       6.057  -5.112  -6.685  0.00  0.00    -0.493 OA
ATOM     34  C   UNL     1       7.005  -5.230  -7.747  0.00  0.00    +0.277 C 
ENDBRANCH   6  33
TORSDOF 5
