REMARK  Name = ZINC29396395
REMARK  4 active torsions:
REMARK  status: ('A' for Active; 'I' for Inactive)
REMARK    1  A    between atoms: N_10  and  C_11
REMARK    2  A    between atoms: C_11  and  C_12
REMARK    3  A    between atoms: C_15  and  C_18
REMARK    4  A    between atoms: C_18  and  N_19
REMARK                            x       y       z     vdW  Elec       q    Type
REMARK                         _______ _______ _______ _____ _____    ______ ____
ROOT
ATOM      1  C   UNL     1       3.133   4.989  -0.002  0.00  0.00    -0.030 A 
ATOM      2  C   UNL     1       3.187   5.683  -1.196  0.00  0.00    +0.005 A 
ATOM      3  C   UNL     1       3.303   7.060  -1.190  0.00  0.00    +0.002 A 
ATOM      4  C   UNL     1       3.372   7.743   0.010  0.00  0.00    -0.064 A 
ATOM      5  C   UNL     1       3.324   7.048   1.204  0.00  0.00    +0.002 A 
ATOM      6  C   UNL     1       3.204   5.671   1.198  0.00  0.00    +0.005 A 
ENDROOT
BRANCH   1   7
ATOM      7  C   UNL     1       3.003   3.487  -0.008  0.00  0.00    +0.141 C 
BRANCH   7  17
ATOM      8  C   UNL     1      -0.644  -2.314  -0.005  0.00  0.00    +0.002 A 
ATOM      9  C   UNL     1       0.691  -2.688  -0.020  0.00  0.00    +0.004 A 
ATOM     10  C   UNL     1       1.686  -1.732  -0.024  0.00  0.00    +0.048 A 
ATOM     11  C   UNL     1       1.351  -0.387  -0.013  0.00  0.00    +0.157 A 
ATOM     12  C   UNL     1       0.002  -0.004   0.002  0.00  0.00    +0.111 A 
ATOM     13  C   UNL     1      -0.994  -0.981   0.006  0.00  0.00    +0.031 A 
ATOM     14  N   UNL     1      -0.016   1.357   0.009  0.00  0.00    -0.195 NA
ATOM     15  C   UNL     1       1.217   1.794   0.000  0.00  0.00    +0.289 A 
ATOM     16  O   UNL     1       2.073   0.757  -0.014  0.00  0.00    -0.425 OA
ATOM     17  N   UNL     1       1.585   3.120   0.003  0.00  0.00    -0.295 N 
ATOM     18  H   UNL     1       0.814   3.904   0.015  0.00  0.00    +0.151 HD
ENDBRANCH   7  17
ENDBRANCH   1   7
BRANCH   4  19
ATOM     19  C   UNL     1       3.502   9.244   0.016  0.00  0.00    -0.043 C 
BRANCH  19  20
ATOM     20  N   UNL     1       4.924   9.613   0.005  0.00  0.00    +0.382 N 
ATOM     21  C   UNL     1       5.586   9.195   1.248  0.00  0.00    -0.078 C 
ATOM     22  C   UNL     1       7.089   9.463   1.142  0.00  0.00    -0.019 C 
ATOM     23  C   UNL     1       7.320  10.956   0.896  0.00  0.00    -0.004 C 
ATOM     24  C   UNL     1       6.581  11.376  -0.377  0.00  0.00    -0.019 C 
ATOM     25  C   UNL     1       5.093  11.053  -0.227  0.00  0.00    -0.078 C 
ATOM     26  H   UNL     1       5.407   9.081  -0.828  0.00  0.00    -0.081 HD
ENDBRANCH  19  20
ENDBRANCH   4  19
TORSDOF 4
