REMARK  Name = ZINC08307458
REMARK  8 active torsions:
REMARK  status: ('A' for Active; 'I' for Inactive)
REMARK    1  A    between atoms: C_1  and  C_2
REMARK    2  A    between atoms: C_2  and  C_3
REMARK    3  A    between atoms: C_2  and  N_45
REMARK    4  A    between atoms: C_4  and  C_5
REMARK    5  A    between atoms: C_4  and  N_45
REMARK    6  A    between atoms: C_11  and  C_16
REMARK    7  A    between atoms: C_22  and  C_23
REMARK    8  A    between atoms: C_22  and  N_45
REMARK                            x       y       z     vdW  Elec       q    Type
REMARK                         _______ _______ _______ _____ _____    ______ ____
ROOT
ATOM      1  C   UNL     1      -0.734   4.217  -0.402  0.00  0.00    +0.094 A 
ATOM      2  N   UNL     1       0.530   4.709  -0.341  0.00  0.00    -0.312 N 
ATOM      3  H   UNL     1       0.674   5.611  -0.013  0.00  0.00    +0.170 HD
ATOM      4  C   UNL     1       1.587   3.970  -0.726  0.00  0.00    +0.260 A 
ATOM      5  O   UNL     1       2.716   4.427  -0.666  0.00  0.00    -0.267 OA
ATOM      6  C   UNL     1       1.366   2.641  -1.208  0.00  0.00    +0.080 A 
ATOM      7  C   UNL     1       2.334   1.657  -1.677  0.00  0.00    +0.004 A 
ATOM      8  C   UNL     1       1.885   0.447  -2.090  0.00  0.00    +0.056 A 
ATOM      9  S   UNL     1       0.120   0.564  -1.870  0.00  0.00    -0.076 S 
ATOM     10  C   UNL     1       0.027   2.218  -1.235  0.00  0.00    +0.116 A 
ATOM     11  N   UNL     1      -0.967   3.006  -0.832  0.00  0.00    -0.229 NA
ENDROOT
BRANCH   7  12
ATOM     12  C   UNL     1       3.782   1.973  -1.702  0.00  0.00    -0.017 A 
ATOM     13  C   UNL     1       4.231   3.152  -2.296  0.00  0.00    +0.008 A 
ATOM     14  C   UNL     1       5.579   3.444  -2.311  0.00  0.00    +0.001 A 
ATOM     15  C   UNL     1       6.486   2.565  -1.748  0.00  0.00    +0.000 A 
ATOM     16  C   UNL     1       6.048   1.391  -1.161  0.00  0.00    +0.001 A 
ATOM     17  C   UNL     1       4.701   1.091  -1.135  0.00  0.00    +0.008 A 
ENDBRANCH   7  12
BRANCH   1  18
ATOM     18  C   UNL     1      -1.887   5.080   0.040  0.00  0.00    -0.002 C 
BRANCH  18  19
ATOM     19  N   UNL     1      -3.119   4.263   0.029  0.00  0.00    +0.392 N 
ATOM     20  H   UNL     1      -3.054   3.573  -0.728  0.00  0.00    -0.080 HD
BRANCH  19  22
ATOM     21  C   UNL     1      -2.068   2.616   1.504  0.00  0.00    -0.013 C 
ATOM     22  C   UNL     1      -3.264   3.552   1.317  0.00  0.00    -0.074 C 
ATOM     23  C   UNL     1      -3.320   4.548   2.477  0.00  0.00    -0.013 C 
ENDBRANCH  19  22
BRANCH  19  24
ATOM     24  C   UNL     1      -4.295   5.126  -0.207  0.00  0.00    +0.019 C 
BRANCH  24  25
ATOM     25  C   UNL     1      -5.458   4.258  -0.612  0.00  0.00    +0.194 C 
ATOM     26  O   UNL     1      -5.341   3.050  -0.616  0.00  0.00    -0.278 OA
ATOM     27  N   UNL     1      -6.629   4.822  -0.969  0.00  0.00    -0.331 N 
ATOM     28  H   UNL     1      -6.723   5.788  -0.966  0.00  0.00    +0.145 HD
ATOM     29  H   UNL     1      -7.378   4.263  -1.229  0.00  0.00    +0.145 HD
ENDBRANCH  24  25
ENDBRANCH  19  24
ENDBRANCH  18  19
ENDBRANCH   1  18
TORSDOF 6
