REMARK  Name = ZINC08854872
REMARK  13 active torsions:
REMARK  status: ('A' for Active; 'I' for Inactive)
REMARK    1  A    between atoms: C_1  and  O_2
REMARK    2  A    between atoms: O_2  and  C_3
REMARK    3  A    between atoms: C_5  and  C_13
REMARK    4  A    between atoms: C_7  and  O_11
REMARK    5  A    between atoms: C_8  and  O_9
REMARK    6  A    between atoms: O_9  and  C_10
REMARK    7  A    between atoms: O_11  and  C_12
REMARK    8  A    between atoms: C_20  and  N_36
REMARK    9  A    between atoms: C_21  and  C_34
REMARK   10  A    between atoms: C_22  and  C_24
REMARK   11  A    between atoms: C_26  and  O_32
REMARK   12  A    between atoms: C_27  and  O_31
REMARK   13  A    between atoms: O_32  and  C_33
REMARK                            x       y       z     vdW  Elec       q    Type
REMARK                         _______ _______ _______ _____ _____    ______ ____
ROOT
ATOM      1  C   UNL     1       2.397   0.363  -4.222  0.00  0.00    +0.101 A 
ATOM      2  C   UNL     1       3.550   0.048  -4.946  0.00  0.00    +0.054 A 
ATOM      3  C   UNL     1       3.775   1.054  -5.841  0.00  0.00    +0.223 A 
ATOM      4  N   UNL     1       2.797   1.970  -5.683  0.00  0.00    -0.246 N 
ATOM      5  H   UNL     1       2.701   2.794  -6.185  0.00  0.00    +0.192 HD
ATOM      6  N   UNL     1       1.939   1.517  -4.668  0.00  0.00    -0.171 NA
ATOM      7  O   UNL     1       4.823   1.047  -6.702  0.00  0.00    -0.423 OA
ATOM      8  C   UNL     1       5.500  -0.110  -6.854  0.00  0.00    +0.200 C 
ATOM      9  C   UNL     1       5.371  -1.170  -6.025  0.00  0.00    +0.098 C 
ATOM     10  C   UNL     1       4.449  -1.156  -4.832  0.00  0.00    +0.102 C 
ENDROOT
BRANCH  10  11
ATOM     11  C   UNL     1       5.258  -1.069  -3.564  0.00  0.00    -0.029 A 
ATOM     12  C   UNL     1       5.150  -2.061  -2.607  0.00  0.00    +0.054 A 
ATOM     13  C   UNL     1       5.892  -1.983  -1.440  0.00  0.00    +0.163 A 
ATOM     14  C   UNL     1       6.746  -0.903  -1.233  0.00  0.00    +0.177 A 
ATOM     15  C   UNL     1       6.850   0.088  -2.196  0.00  0.00    +0.086 A 
ATOM     16  C   UNL     1       6.110   0.001  -3.362  0.00  0.00    +0.028 A 
ATOM     17 CL   UNL     1       7.914   1.437  -1.942  0.00  0.00    -0.080 Cl
BRANCH  14  18
ATOM     18  O   UNL     1       7.477  -0.822  -0.089  0.00  0.00    -0.502 OA
ATOM     19  H   UNL     1       8.345  -1.244  -0.145  0.00  0.00    +0.292 HD
ENDBRANCH  14  18
BRANCH  13  20
ATOM     20  O   UNL     1       5.786  -2.958  -0.498  0.00  0.00    -0.491 OA
ATOM     21  C   UNL     1       4.890  -4.035  -0.777  0.00  0.00    +0.277 C 
ENDBRANCH  13  20
ENDBRANCH  10  11
BRANCH   1  24
ATOM     22  C   UNL     1       0.606  -0.608  -1.056  0.00  0.00    +0.166 A 
ATOM     23  C   UNL     1       1.172   0.160  -2.060  0.00  0.00    +0.059 A 
ATOM     24  C   UNL     1       1.791  -0.459  -3.144  0.00  0.00    +0.010 A 
ATOM     25  C   UNL     1       1.839  -1.849  -3.217  0.00  0.00    +0.059 A 
ATOM     26  C   UNL     1       1.273  -2.614  -2.212  0.00  0.00    +0.166 A 
ATOM     27  C   UNL     1       0.661  -1.995  -1.127  0.00  0.00    +0.204 A 
BRANCH  22  29
ATOM     28  C   UNL     1      -0.017   1.425   0.010  0.00  0.00    +0.277 C 
ATOM     29  O   UNL     1       0.002  -0.004   0.002  0.00  0.00    -0.491 OA
ENDBRANCH  22  29
BRANCH  27  30
ATOM     30  O   UNL     1       0.109  -2.748  -0.137  0.00  0.00    -0.488 OA
ATOM     31  C   UNL     1      -1.262  -3.119  -0.291  0.00  0.00    +0.277 C 
ENDBRANCH  27  30
BRANCH  26  32
ATOM     32  O   UNL     1       1.320  -3.971  -2.282  0.00  0.00    -0.491 OA
ATOM     33  C   UNL     1       1.969  -4.540  -3.421  0.00  0.00    +0.277 C 
ENDBRANCH  26  32
ENDBRANCH   1  24
BRANCH   8  34
ATOM     34  N   UNL     1       6.369  -0.216  -7.911  0.00  0.00    -0.328 N 
ATOM     35  H   UNL     1       6.482   0.528  -8.523  0.00  0.00    +0.145 HD
ATOM     36  H   UNL     1       6.870  -1.036  -8.046  0.00  0.00    +0.145 HD
ENDBRANCH   8  34
BRANCH   9  37
ATOM     37  C   UNL     1       6.140  -2.349  -6.290  0.00  0.00    +0.101 C 
ATOM     38  N   UNL     1       6.749  -3.284  -6.500  0.00  0.00    -0.191 NA
ENDBRANCH   9  37
TORSDOF 9
