REMARK  Name = ZINC63624891
REMARK  8 active torsions:
REMARK  status: ('A' for Active; 'I' for Inactive)
REMARK    1  A    between atoms: C_1  and  C_2
REMARK    2  A    between atoms: C_4  and  N_17
REMARK    3  A    between atoms: N_8  and  C_11
REMARK    4  A    between atoms: N_9  and  C_10
REMARK    5  A    between atoms: C_18  and  C_20
REMARK    6  A    between atoms: C_20  and  S_21
REMARK    7  A    between atoms: S_21  and  C_22
REMARK    8  A    between atoms: C_28  and  N_32
REMARK                            x       y       z     vdW  Elec       q    Type
REMARK                         _______ _______ _______ _____ _____    ______ ____
ROOT
ATOM      1  N   UNL     1       0.681   0.759  -2.108  0.00  0.00    -0.302 N 
ATOM      2  C   UNL     1       0.901   0.600  -3.429  0.00  0.00    +0.224 C 
ATOM      3  O   UNL     1       1.190  -0.493  -3.868  0.00  0.00    -0.275 OA
ATOM      4  H   UNL     1       0.450   1.633  -1.757  0.00  0.00    +0.150 HD
ENDROOT
BRANCH   1   7
ATOM      5  C   UNL     1      -0.288   1.320   0.329  0.00  0.00    +0.028 C 
ATOM      6  C   UNL     1      -0.066  -0.171   0.067  0.00  0.00    +0.102 C 
ATOM      7  C   UNL     1       0.789  -0.388  -1.204  0.00  0.00    +0.179 C 
ATOM      8  C   UNL     1       2.192  -0.501  -0.633  0.00  0.00    +0.256 C 
ATOM      9  O   UNL     1       3.226  -0.426  -1.261  0.00  0.00    -0.272 OA
ATOM     10  N   UNL     1       2.083  -0.697   0.694  0.00  0.00    -0.201 N 
ATOM     11  N   UNL     1       0.788  -0.771   1.117  0.00  0.00    -0.218 NA
ATOM     12  C   UNL     1       0.399  -2.163   1.381  0.00  0.00    +0.128 C 
BRANCH  10  13
ATOM     13  C   UNL     1       3.184  -0.814   1.550  0.00  0.00    +0.053 A 
ATOM     14  C   UNL     1       4.245  -1.643   1.211  0.00  0.00    +0.025 A 
ATOM     15  C   UNL     1       5.330  -1.757   2.058  0.00  0.00    +0.002 A 
ATOM     16  C   UNL     1       5.360  -1.045   3.244  0.00  0.00    +0.000 A 
ATOM     17  C   UNL     1       4.305  -0.219   3.585  0.00  0.00    +0.002 A 
ATOM     18  C   UNL     1       3.220  -0.097   2.739  0.00  0.00    +0.025 A 
ENDBRANCH  10  13
ENDBRANCH   1   7
BRANCH   2  19
ATOM     19  C   UNL     1       0.790   1.780  -4.359  0.00  0.00    +0.168 C 
BRANCH  19  20
ATOM     20  S   UNL     1       1.141   1.248  -6.057  0.00  0.00    -0.106 S 
BRANCH  20  21
ATOM     21  C   UNL     1       0.967   2.764  -7.037  0.00  0.00    +0.236 C 
ATOM     22  N   UNL     1       1.887   3.794  -6.539  0.00  0.00    -0.355 N 
ATOM     23  C   UNL     1       1.165   4.806  -6.149  0.00  0.00    +0.061 A 
ATOM     24  C   UNL     1       1.507   6.111  -5.568  0.00  0.00    +0.029 A 
ATOM     25  C   UNL     1       0.523   6.978  -5.256  0.00  0.00    +0.035 A 
ATOM     26  C   UNL     1      -0.837   6.688  -5.464  0.00  0.00    +0.128 A 
ATOM     27  C   UNL     1      -1.259   5.521  -5.991  0.00  0.00    +0.060 A 
ATOM     28  C   UNL     1      -0.274   4.498  -6.369  0.00  0.00    +0.063 A 
ATOM     29  N   UNL     1      -0.388   3.308  -6.887  0.00  0.00    -0.355 N 
ATOM     30  H   UNL     1      -1.215   2.864  -7.130  0.00  0.00    +0.162 HD
ATOM     31  H   UNL     1       2.854   3.733  -6.506  0.00  0.00    +0.162 HD
BRANCH  26  32
ATOM     32  N   UNL     1      -1.845   7.705  -5.089  0.00  0.00    +0.056 N 
ATOM     33  O   UNL     1      -1.493   8.760  -4.615  0.00  0.00    -0.126 OA
ATOM     34  O   UNL     1      -3.022   7.480  -5.258  0.00  0.00    -0.126 OA
ENDBRANCH  26  32
ENDBRANCH  20  21
ENDBRANCH  19  20
ENDBRANCH   2  19
TORSDOF 6
