REMARK  Name = ZINC61766893
REMARK  5 active torsions:
REMARK  status: ('A' for Active; 'I' for Inactive)
REMARK    1  A    between atoms: C_1  and  C_2
REMARK    2  A    between atoms: C_2  and  C_3
REMARK    3  A    between atoms: C_2  and  C_4
REMARK    4  A    between atoms: C_2  and  N_5
REMARK    5  A    between atoms: N_12  and  C_13
REMARK                            x       y       z     vdW  Elec       q    Type
REMARK                         _______ _______ _______ _____ _____    ______ ____
ROOT
ATOM      1  N   UNL     1       0.688  -0.476  -1.203  0.00  0.00    -0.306 N 
ATOM      2  C   UNL     1       0.034  -1.260  -2.107  0.00  0.00    +0.109 A 
ATOM      3  C   UNL     1       0.657  -1.700  -3.221  0.00  0.00    +0.131 A 
ATOM      4  N   UNL     1       1.927  -1.391  -3.483  0.00  0.00    -0.234 NA
ATOM      5  C   UNL     1       2.620  -0.638  -2.655  0.00  0.00    +0.185 A 
ATOM      6  C   UNL     1       1.975  -0.137  -1.437  0.00  0.00    +0.292 A 
ATOM      7  O   UNL     1       2.587   0.567  -0.650  0.00  0.00    -0.264 OA
ATOM      8  N   UNL     1       3.943  -0.320  -2.934  0.00  0.00    -0.318 N 
ATOM      9  H   UNL     1       4.448   0.235  -2.319  0.00  0.00    +0.148 HD
ENDROOT
BRANCH   8  10
ATOM     10  C   UNL     1       4.575  -0.822  -4.156  0.00  0.00    +0.103 C 
ATOM     11  C   UNL     1       6.090  -0.885  -3.961  0.00  0.00    +0.027 C 
ATOM     12  C   UNL     1       6.660   0.530  -3.822  0.00  0.00    +0.007 C 
ATOM     13  C   UNL     1       6.572   1.233  -5.185  0.00  0.00    +0.043 C 
ATOM     14  C   UNL     1       5.199   1.020  -5.735  0.00  0.00    -0.005 A 
ATOM     15  C   UNL     1       4.265   0.119  -5.317  0.00  0.00    -0.017 A 
ATOM     16  C   UNL     1       3.047   0.116  -5.997  0.00  0.00    +0.013 A 
ATOM     17  C   UNL     1       2.840   0.978  -7.018  0.00  0.00    +0.046 A 
ATOM     18  S   UNL     1       4.399   1.864  -7.073  0.00  0.00    -0.101 S 
ENDBRANCH   8  10
BRANCH   1  20
ATOM     19  C   UNL     1      -0.019   1.526   0.010  0.00  0.00    +0.034 C 
ATOM     20  C   UNL     1       0.002  -0.004   0.002  0.00  0.00    +0.040 C 
ATOM     21  C   UNL     1       0.742  -0.511   1.242  0.00  0.00    +0.034 C 
ATOM     22  C   UNL     1      -1.433  -0.534   0.013  0.00  0.00    +0.034 C 
ENDBRANCH   1  20
TORSDOF 2
