REMARK  Name = ZINC54645484
REMARK  8 active torsions:
REMARK  status: ('A' for Active; 'I' for Inactive)
REMARK    1  A    between atoms: C_1  and  C_2
REMARK    2  A    between atoms: C_5  and  N_11
REMARK    3  A    between atoms: C_7  and  N_8
REMARK    4  A    between atoms: C_12  and  C_14
REMARK    5  A    between atoms: C_14  and  N_15
REMARK    6  A    between atoms: C_22  and  C_28
REMARK    7  A    between atoms: C_25  and  C_26
REMARK    8  A    between atoms: C_25  and  C_27
REMARK                            x       y       z     vdW  Elec       q    Type
REMARK                         _______ _______ _______ _____ _____    ______ ____
ROOT
ATOM      1  N   UNL     1       0.442  -4.255  -0.310  0.00  0.00    -0.284 N 
ATOM      2  C   UNL     1       0.446  -4.750  -1.564  0.00  0.00    +0.235 C 
ATOM      3  O   UNL     1       0.165  -4.033  -2.501  0.00  0.00    -0.274 OA
ATOM      4  H   UNL     1       0.601  -4.843   0.444  0.00  0.00    +0.155 HD
ENDROOT
BRANCH   1   9
ATOM      5  C   UNL     1      -0.508   1.272   0.552  0.00  0.00    +0.046 C 
ATOM      6  C   UNL     1      -0.256  -0.196   0.323  0.00  0.00    -0.020 A 
ATOM      7  C   UNL     1      -0.900  -0.854  -0.710  0.00  0.00    +0.007 A 
ATOM      8  C   UNL     1      -0.670  -2.199  -0.922  0.00  0.00    +0.024 A 
ATOM      9  C   UNL     1       0.207  -2.892  -0.098  0.00  0.00    +0.036 A 
ATOM     10  C   UNL     1       0.852  -2.228   0.938  0.00  0.00    +0.056 A 
ATOM     11  C   UNL     1       0.622  -0.881   1.142  0.00  0.00    +0.131 A 
BRANCH  11  12
ATOM     12  N   UNL     1       1.313  -0.172   2.242  0.00  0.00    +0.057 N 
ATOM     13  O   UNL     1       1.692   0.965   2.084  0.00  0.00    -0.126 OA
ATOM     14  O   UNL     1       1.499  -0.730   3.298  0.00  0.00    -0.126 OA
ENDBRANCH  11  12
ENDBRANCH   1   9
BRANCH   2  15
ATOM     15  C   UNL     1       0.800  -6.196  -1.801  0.00  0.00    +0.212 C 
BRANCH  15  16
ATOM     16  N   UNL     1       0.732  -6.486  -3.236  0.00  0.00    -0.233 N 
ATOM     17  C   UNL     1      -0.434  -6.906  -3.760  0.00  0.00    +0.226 C 
ATOM     18  O   UNL     1      -1.420  -6.998  -3.060  0.00  0.00    -0.275 OA
ATOM     19  C   UNL     1      -0.507  -7.262  -5.234  0.00  0.00    +0.082 C 
ATOM     20  C   UNL     1      -0.508  -5.929  -6.020  0.00  0.00    +0.014 C 
ATOM     21  C   UNL     1       0.971  -5.525  -6.172  0.00  0.00    +0.017 C 
ATOM     22  C   UNL     1       1.790  -6.636  -5.470  0.00  0.00    +0.051 C 
ATOM     23  C   UNL     1       1.837  -6.318  -3.986  0.00  0.00    +0.229 C 
ATOM     24  O   UNL     1       2.855  -5.892  -3.485  0.00  0.00    -0.275 OA
ATOM     25  C   UNL     1       0.863  -7.905  -5.586  0.00  0.00    -0.010 C 
ATOM     26  C   UNL     1       0.864  -8.458  -7.013  0.00  0.00    +0.012 C 
ATOM     27  C   UNL     1       1.241  -8.990  -4.576  0.00  0.00    +0.012 C 
ATOM     28  C   UNL     1       3.182  -6.829  -6.075  0.00  0.00    +0.021 C 
ENDBRANCH  15  16
ENDBRANCH   2  15
TORSDOF 4
