REMARK  Name = ZINC15619444
REMARK  7 active torsions:
REMARK  status: ('A' for Active; 'I' for Inactive)
REMARK    1  A    between atoms: C_1  and  C_2
REMARK    2  A    between atoms: C_7  and  N_8
REMARK    3  A    between atoms: C_9  and  C_11
REMARK    4  A    between atoms: C_11  and  N_12
REMARK    5  A    between atoms: C_13  and  C_15
REMARK    6  A    between atoms: N_18  and  C_21
REMARK    7  A    between atoms: C_26  and  N_27
REMARK                            x       y       z     vdW  Elec       q    Type
REMARK                         _______ _______ _______ _____ _____    ______ ____
ROOT
ATOM      1  N   UNL     1      -1.892   5.155  -2.484  0.00  0.00    -0.306 N 
ATOM      2  C   UNL     1      -1.621   3.852  -2.270  0.00  0.00    +0.217 C 
ATOM      3  O   UNL     1      -1.989   3.017  -3.069  0.00  0.00    -0.276 OA
ATOM      4  H   UNL     1      -1.598   5.822  -1.845  0.00  0.00    +0.149 HD
ENDROOT
BRANCH   2   5
ATOM      5  C   UNL     1      -0.862   3.432  -1.038  0.00  0.00    +0.078 C 
ATOM      6  C   UNL     1      -0.689   1.911  -1.036  0.00  0.00    +0.031 C 
ATOM      7  C   UNL     1       0.030   1.485   0.245  0.00  0.00    +0.106 C 
ATOM      8  N   UNL     1      -0.755   1.908   1.412  0.00  0.00    -0.328 N 
ATOM      9  C   UNL     1      -0.893   3.369   1.458  0.00  0.00    +0.106 C 
ATOM     10  C   UNL     1      -1.640   3.851   0.212  0.00  0.00    +0.031 C 
BRANCH   8  11
ATOM     11  C   UNL     1      -0.195   1.421   2.595  0.00  0.00    +0.060 A 
ATOM     12  C   UNL     1       1.063   1.851   2.998  0.00  0.00    +0.025 A 
ATOM     13  C   UNL     1       1.612   1.372   4.172  0.00  0.00    +0.002 A 
ATOM     14  C   UNL     1       0.915   0.457   4.940  0.00  0.00    +0.002 A 
ATOM     15  C   UNL     1      -0.335   0.022   4.538  0.00  0.00    +0.034 A 
ATOM     16  C   UNL     1      -0.892   0.502   3.369  0.00  0.00    +0.147 A 
BRANCH  16  17
ATOM     17  N   UNL     1      -2.229   0.036   2.940  0.00  0.00    +0.058 N 
ATOM     18  O   UNL     1      -2.799  -0.839   3.567  0.00  0.00    -0.126 OA
ATOM     19  O   UNL     1      -2.760   0.528   1.960  0.00  0.00    -0.126 OA
ENDBRANCH  16  17
ENDBRANCH   8  11
ENDBRANCH   2   5
BRANCH   1  20
ATOM     20  C   UNL     1      -2.630   5.562  -3.682  0.00  0.00    +0.200 C 
BRANCH  20  22
ATOM     21  N   UNL     1      -3.453   7.664  -4.694  0.00  0.00    -0.284 N 
ATOM     22  C   UNL     1      -2.799   7.060  -3.682  0.00  0.00    +0.234 C 
ATOM     23  O   UNL     1      -2.348   7.721  -2.771  0.00  0.00    -0.274 OA
ATOM     24  H   UNL     1      -3.745   7.146  -5.460  0.00  0.00    +0.155 HD
BRANCH  21  31
ATOM     25  C   UNL     1      -3.829   9.059  -7.145  0.00  0.00    +0.046 C 
ATOM     26  C   UNL     1      -3.899   9.758  -5.812  0.00  0.00    -0.028 A 
ATOM     27  C   UNL     1      -4.157  11.114  -5.755  0.00  0.00    +0.020 A 
ATOM     28  C   UNL     1      -4.215  11.758  -4.532  0.00  0.00    +0.018 A 
ATOM     29  C   UNL     1      -4.021  11.044  -3.362  0.00  0.00    +0.017 A 
ATOM     30  C   UNL     1      -3.768   9.688  -3.413  0.00  0.00    +0.024 A 
ATOM     31  C   UNL     1      -3.709   9.039  -4.640  0.00  0.00    +0.036 A 
ATOM     32 BR   UNL     1      -4.560  13.615  -4.459  0.00  0.00    -0.050 Br
ENDBRANCH  21  31
ENDBRANCH  20  22
ENDBRANCH   1  20
TORSDOF 6
