REMARK  Name = ZINC63525723
REMARK  6 active torsions:
REMARK  status: ('A' for Active; 'I' for Inactive)
REMARK    1  A    between atoms: C_1  and  C_2
REMARK    2  A    between atoms: C_4  and  C_15
REMARK    3  A    between atoms: C_8  and  O_14
REMARK    4  A    between atoms: C_18  and  O_23
REMARK    5  A    between atoms: C_19  and  O_21
REMARK    6  A    between atoms: O_21  and  C_22
REMARK                            x       y       z     vdW  Elec       q    Type
REMARK                         _______ _______ _______ _____ _____    ______ ____
ROOT
ATOM      1  C   UNL     1      -0.018   1.503   0.010  0.00  0.00    +0.067 C 
ATOM      2  C   UNL     1       0.002  -0.004   0.002  0.00  0.00    +0.065 C 
ATOM      3  C   UNL     1      -1.068  -0.774   0.003  0.00  0.00    +0.018 C 
ATOM      4  C   UNL     1      -2.539  -0.417  -0.089  0.00  0.00    +0.108 C 
ATOM      5  S   UNL     1      -3.463  -1.781   0.699  0.00  0.00    -0.139 S 
ATOM      6  C   UNL     1      -3.423  -3.121  -0.513  0.00  0.00    +0.165 C 
ATOM      7  C   UNL     1      -2.220  -3.220  -1.342  0.00  0.00    +0.195 C 
ATOM      8  N   UNL     1      -1.032  -2.872  -1.140  0.00  0.00    -0.221 NA
ATOM      9  C   UNL     1      -0.538  -2.191   0.046  0.00  0.00    +0.276 C 
ATOM     10  N   UNL     1       0.917  -1.986  -0.004  0.00  0.00    -0.156 NA
ATOM     11  N   UNL     1       1.125  -0.766  -0.013  0.00  0.00    -0.157 NA
ENDROOT
BRANCH   4  12
ATOM     12  C   UNL     1      -2.802   0.875   0.640  0.00  0.00    -0.027 A 
ATOM     13  C   UNL     1      -2.520   0.975   1.990  0.00  0.00    +0.009 A 
ATOM     14  C   UNL     1      -2.760   2.158   2.664  0.00  0.00    +0.049 A 
ATOM     15  C   UNL     1      -3.284   3.247   1.986  0.00  0.00    +0.158 A 
ATOM     16  C   UNL     1      -3.567   3.147   0.628  0.00  0.00    +0.162 A 
ATOM     17  C   UNL     1      -3.320   1.960  -0.043  0.00  0.00    +0.054 A 
BRANCH  16  18
ATOM     18  O   UNL     1      -4.081   4.213  -0.042  0.00  0.00    -0.491 OA
ATOM     19  C   UNL     1      -4.348   4.038  -1.435  0.00  0.00    +0.277 C 
ENDBRANCH  16  18
BRANCH  15  20
ATOM     20  O   UNL     1      -3.521   4.412   2.648  0.00  0.00    -0.503 OA
ATOM     21  H   UNL     1      -2.771   5.023   2.648  0.00  0.00    +0.292 HD
ENDBRANCH  15  20
ENDBRANCH   4  12
BRANCH   7  22
ATOM     22  O   UNL     1      -2.428  -3.793  -2.546  0.00  0.00    -0.495 OA
ATOM     23  H   UNL     1      -1.633  -3.859  -3.093  0.00  0.00    +0.293 HD
ENDBRANCH   7  22
TORSDOF 4
