REMARK  Name = ZINC15957824
REMARK  3 active torsions:
REMARK  status: ('A' for Active; 'I' for Inactive)
REMARK    1  A    between atoms: C_12  and  C_15
REMARK    2  A    between atoms: C_15  and  C_16
REMARK    3  A    between atoms: N_21  and  C_24
REMARK                            x       y       z     vdW  Elec       q    Type
REMARK                         _______ _______ _______ _____ _____    ______ ____
ROOT
ATOM      1  C   UNL     1      -0.017   1.379   0.010  0.00  0.00    +0.000 A 
ATOM      2  C   UNL     1       1.173   2.084   0.002  0.00  0.00    +0.002 A 
ATOM      3  C   UNL     1       2.379   1.415  -0.012  0.00  0.00    +0.023 A 
ATOM      4  C   UNL     1       2.407   0.022  -0.019  0.00  0.00    +0.039 A 
ATOM      5  C   UNL     1       1.204  -0.677  -0.013  0.00  0.00    +0.003 A 
ATOM      6  C   UNL     1       0.002  -0.004   0.002  0.00  0.00    +0.008 A 
ATOM      7  C   UNL     1       1.575  -2.132  -0.029  0.00  0.00    +0.136 C 
ATOM      8  C   UNL     1       1.012  -2.873   1.191  0.00  0.00    +0.122 C 
ATOM      9  C   UNL     1       0.649  -4.286   0.656  0.00  0.00    +0.107 C 
ATOM     10  C   UNL     1       1.054  -4.264  -0.832  0.00  0.00    +0.076 C 
ATOM     11  N   UNL     1       1.019  -2.819  -1.210  0.00  0.00    -0.295 NA
ATOM     12  C   UNL     1      -0.857  -4.330   0.779  0.00  0.00    +0.227 C 
ATOM     13  O   UNL     1      -1.559  -5.265   0.460  0.00  0.00    -0.275 OA
ATOM     14  N   UNL     1      -1.294  -3.176   1.296  0.00  0.00    -0.238 N 
ATOM     15  C   UNL     1      -0.323  -2.277   1.576  0.00  0.00    +0.228 C 
ATOM     16  O   UNL     1      -0.486  -1.175   2.055  0.00  0.00    -0.275 OA
ATOM     17  C   UNL     1       3.079  -2.154  -0.039  0.00  0.00    +0.243 C 
ATOM     18  O   UNL     1       3.789  -3.136  -0.051  0.00  0.00    -0.273 OA
ATOM     19  N   UNL     1       3.483  -0.869  -0.032  0.00  0.00    -0.283 N 
ATOM     20  H   UNL     1       0.078  -2.508  -1.400  0.00  0.00    +0.124 HD
ATOM     21  H   UNL     1       4.413  -0.594  -0.035  0.00  0.00    +0.155 HD
ENDROOT
BRANCH  14  22
ATOM     22  C   UNL     1      -2.713  -2.906   1.544  0.00  0.00    +0.084 C 
ATOM     23  C   UNL     1      -3.299  -3.982   2.481  0.00  0.00    +0.023 C 
ATOM     24  C   UNL     1      -4.734  -4.213   1.943  0.00  0.00    +0.002 C 
ATOM     25  C   UNL     1      -4.543  -4.117   0.409  0.00  0.00    +0.002 C 
ATOM     26  C   UNL     1      -3.504  -2.992   0.226  0.00  0.00    +0.023 C 
ENDBRANCH  14  22
BRANCH  10  27
ATOM     27  C   UNL     1       0.041  -5.045  -1.672  0.00  0.00    +0.115 C 
BRANCH  27  28
ATOM     28  C   UNL     1       0.519  -5.114  -3.099  0.00  0.00    +0.212 C 
ATOM     29  O   UNL     1       1.567  -4.591  -3.414  0.00  0.00    -0.276 OA
ATOM     30  N   UNL     1      -0.218  -5.758  -4.026  0.00  0.00    -0.329 N 
ATOM     31  H   UNL     1      -1.056  -6.177  -3.774  0.00  0.00    +0.145 HD
ATOM     32  H   UNL     1       0.089  -5.803  -4.945  0.00  0.00    +0.145 HD
ENDBRANCH  27  28
ENDBRANCH  10  27
TORSDOF 3
