REMARK  Name = ZINC66615365
REMARK  8 active torsions:
REMARK  status: ('A' for Active; 'I' for Inactive)
REMARK    1  A    between atoms: C_1  and  C_2
REMARK    2  A    between atoms: C_5  and  C_12
REMARK    3  A    between atoms: C_8  and  C_10
REMARK    4  A    between atoms: C_8  and  C_11
REMARK    5  A    between atoms: C_12  and  C_13
REMARK    6  A    between atoms: N_15  and  C_16
REMARK    7  A    between atoms: N_19  and  C_21
REMARK    8  A    between atoms: C_21  and  C_22
REMARK                            x       y       z     vdW  Elec       q    Type
REMARK                         _______ _______ _______ _____ _____    ______ ____
ROOT
ATOM      1  C   UNL     1      -4.342  -0.152   0.136  0.00  0.00    +0.218 C 
ATOM      2  O   UNL     1      -3.824   0.803  -0.404  0.00  0.00    -0.275 OA
ATOM      3  N   UNL     1      -5.623  -0.469  -0.141  0.00  0.00    -0.283 N 
ATOM      4  H   UNL     1      -6.037  -1.232   0.291  0.00  0.00    +0.155 HD
ENDROOT
BRANCH   3   5
ATOM      5  C   UNL     1      -6.358   0.308  -1.056  0.00  0.00    +0.071 A 
ATOM      6  C   UNL     1      -5.886   1.429  -1.755  0.00  0.00    +0.157 A 
ATOM      7  N   UNL     1      -6.855   1.881  -2.509  0.00  0.00    -0.177 NA
ATOM      8  N   UNL     1      -7.979   1.067  -2.320  0.00  0.00    -0.261 N 
ATOM      9  C   UNL     1      -7.648   0.101  -1.424  0.00  0.00    +0.132 A 
BRANCH   8  10
ATOM     10  C   UNL     1      -9.279   1.227  -2.975  0.00  0.00    +0.238 C 
BRANCH  10  11
ATOM     11  C   UNL     1      -9.796   2.622  -2.734  0.00  0.00    +0.232 C 
ATOM     12  O   UNL     1      -9.142   3.406  -2.078  0.00  0.00    -0.274 OA
ATOM     13  N   UNL     1     -10.984   2.999  -3.246  0.00  0.00    -0.328 N 
ATOM     14  H   UNL     1     -11.507   2.372  -3.770  0.00  0.00    +0.145 HD
ATOM     15  H   UNL     1     -11.316   3.897  -3.090  0.00  0.00    +0.145 HD
ENDBRANCH  10  11
ENDBRANCH   8  10
ENDBRANCH   3   5
BRANCH   1  16
ATOM     16  C   UNL     1      -3.555  -0.983   1.116  0.00  0.00    +0.099 C 
BRANCH  16  20
ATOM     17  C   UNL     1      -0.019   1.524   0.010  0.00  0.00    +0.007 C 
ATOM     18  C   UNL     1       0.002  -0.004   0.002  0.00  0.00    -0.013 C 
ATOM     19  C   UNL     1      -1.412  -0.559  -0.088  0.00  0.00    +0.007 C 
ATOM     20  C   UNL     1      -2.138  -0.412   1.248  0.00  0.00    -0.002 C 
ATOM     21  C   UNL     1      -1.378  -1.199   2.313  0.00  0.00    +0.010 C 
ATOM     22  C   UNL     1       0.034  -0.651   2.488  0.00  0.00    -0.034 C 
ATOM     23  C   UNL     1       0.787  -0.561   1.172  0.00  0.00    +0.009 C 
ATOM     24  C   UNL     1       0.803  -1.619   3.413  0.00  0.00    +0.011 C 
ATOM     25  C   UNL     1      -0.015   0.710   3.188  0.00  0.00    +0.011 C 
ENDBRANCH  16  20
ENDBRANCH   1  16
TORSDOF 5
