REMARK  Name = ZINC57343973
REMARK  2 active torsions:
REMARK  status: ('A' for Active; 'I' for Inactive)
REMARK    1  A    between atoms: C_4  and  C_7
REMARK    2  A    between atoms: N_18  and  C_19
REMARK                            x       y       z     vdW  Elec       q    Type
REMARK                         _______ _______ _______ _____ _____    ______ ____
ROOT
ATOM      1  C   UNL     1       3.765  -0.675  -1.001  0.00  0.00    +0.078 A 
ATOM      2  C   UNL     1       3.759  -2.041  -0.936  0.00  0.00    +0.077 A 
ATOM      3  C   UNL     1       4.969  -2.709  -0.628  0.00  0.00    +0.166 A 
ATOM      4  N   UNL     1       5.281  -3.974  -0.495  0.00  0.00    -0.151 NA
ATOM      5  N   UNL     1       6.646  -4.050  -0.181  0.00  0.00    -0.226 N 
ATOM      6  H   UNL     1       7.153  -4.862  -0.025  0.00  0.00    +0.194 HD
ATOM      7  C   UNL     1       7.125  -2.789  -0.133  0.00  0.00    +0.351 A 
ATOM      8  O   UNL     1       8.274  -2.468   0.113  0.00  0.00    -0.245 OA
ATOM      9  N   UNL     1       6.109  -1.949  -0.405  0.00  0.00    -0.215 N 
ATOM     10  C   UNL     1       6.030  -0.580  -0.489  0.00  0.00    +0.210 A 
ATOM     11  N   UNL     1       4.900   0.015  -0.781  0.00  0.00    -0.215 NA
ATOM     12  N   UNL     1       7.155   0.176  -0.269  0.00  0.00    -0.282 N 
ATOM     13  H   UNL     1       8.010  -0.259  -0.122  0.00  0.00    +0.155 HD
ENDROOT
BRANCH  12  14
ATOM     14  C   UNL     1       7.069   1.573  -0.258  0.00  0.00    +0.069 A 
ATOM     15  C   UNL     1       5.848   2.192  -0.029  0.00  0.00    +0.026 A 
ATOM     16  C   UNL     1       5.766   3.571  -0.018  0.00  0.00    +0.002 A 
ATOM     17  C   UNL     1       6.897   4.335  -0.235  0.00  0.00    +0.003 A 
ATOM     18  C   UNL     1       8.116   3.723  -0.465  0.00  0.00    +0.040 A 
ATOM     19  C   UNL     1       8.207   2.343  -0.472  0.00  0.00    +0.144 A 
ATOM     20  F   UNL     1       9.398   1.745  -0.691  0.00  0.00    -0.204 F 
ENDBRANCH  12  14
BRANCH   1  24
ATOM     21  C   UNL     1       0.176   1.408  -1.923  0.00  0.00    +0.000 A 
ATOM     22  C   UNL     1       1.301   2.113  -1.535  0.00  0.00    +0.001 A 
ATOM     23  C   UNL     1       2.469   1.442  -1.234  0.00  0.00    +0.010 A 
ATOM     24  C   UNL     1       2.514   0.051  -1.322  0.00  0.00    +0.001 A 
ATOM     25  C   UNL     1       1.376  -0.654  -1.714  0.00  0.00    +0.010 A 
ATOM     26  C   UNL     1       0.214   0.028  -2.012  0.00  0.00    +0.001 A 
ENDBRANCH   1  24
TORSDOF 2
