REMARK  Name = ZINC50208868
REMARK  4 active torsions:
REMARK  status: ('A' for Active; 'I' for Inactive)
REMARK    1  A    between atoms: C_1  and  N_2
REMARK    2  A    between atoms: C_6  and  N_9
REMARK    3  A    between atoms: N_12  and  C_13
REMARK    4  A    between atoms: C_18  and  C_19
REMARK                            x       y       z     vdW  Elec       q    Type
REMARK                         _______ _______ _______ _____ _____    ______ ____
ROOT
ATOM      1  N   UNL     1       1.369  -2.494   2.425  0.00  0.00    -0.298 N 
ATOM      2  C   UNL     1       1.073  -3.703   2.943  0.00  0.00    +0.304 C 
ATOM      3  O   UNL     1       0.220  -4.394   2.423  0.00  0.00    -0.253 OA
ATOM      4  N   UNL     1       1.724  -4.144   4.038  0.00  0.00    -0.269 N 
ATOM      5  H   UNL     1       2.050  -1.942   2.840  0.00  0.00    +0.150 HD
ATOM      6  H   UNL     1       2.461  -3.630   4.405  0.00  0.00    +0.156 HD
ENDROOT
BRANCH   1  12
ATOM      7  C   UNL     1      -0.052   1.467   0.028  0.00  0.00    -0.096 C 
ATOM      8  N   UNL     1      -0.015  -0.002   0.012  0.00  0.00    +0.379 N 
ATOM      9  C   UNL     1       0.679  -0.460  -1.197  0.00  0.00    -0.079 C 
ATOM     10  C   UNL     1       0.649  -1.988  -1.259  0.00  0.00    -0.017 C 
ATOM     11  C   UNL     1       1.349  -2.557  -0.021  0.00  0.00    +0.018 C 
ATOM     12  C   UNL     1       0.662  -2.014   1.235  0.00  0.00    +0.058 C 
ATOM     13  C   UNL     1       0.691  -0.485   1.205  0.00  0.00    -0.057 C 
ATOM     14  H   UNL     1      -0.958  -0.361   0.013  0.00  0.00    -0.082 HD
ENDBRANCH   1  12
BRANCH   4  15
ATOM     15  C   UNL     1       1.339  -5.337   4.643  0.00  0.00    +0.049 A 
ATOM     16  C   UNL     1       0.039  -5.805   4.498  0.00  0.00    +0.025 A 
ATOM     17  C   UNL     1      -0.341  -6.987   5.099  0.00  0.00    +0.017 A 
ATOM     18  C   UNL     1       0.568  -7.719   5.849  0.00  0.00    +0.019 A 
ATOM     19  C   UNL     1       1.862  -7.271   6.004  0.00  0.00    +0.032 A 
ATOM     20  C   UNL     1       2.264  -6.077   5.396  0.00  0.00    +0.085 A 
ATOM     21 BR   UNL     1       0.028  -9.337   6.665  0.00  0.00    -0.050 Br
BRANCH  20  22
ATOM     22  C   UNL     1       3.646  -5.596   5.551  0.00  0.00    +0.388 C 
ATOM     23  O   UNL     1       4.472  -6.287   6.132  0.00  0.00    -0.241 OA
ATOM     24  O   UNL     1       3.969  -4.506   5.100  0.00  0.00    -0.241 OA
ENDBRANCH  20  22
ENDBRANCH   4  15
TORSDOF 3
