REMARK  Name = ZINC45140564
REMARK  8 active torsions:
REMARK  status: ('A' for Active; 'I' for Inactive)
REMARK    1  A    between atoms: C_1  and  C_2
REMARK    2  A    between atoms: C_2  and  C_3
REMARK    3  A    between atoms: C_2  and  N_4
REMARK    4  A    between atoms: C_7  and  C_10
REMARK    5  A    between atoms: C_10  and  N_11
REMARK    6  A    between atoms: C_12  and  C_14
REMARK    7  A    between atoms: C_14  and  C_19
REMARK    8  A    between atoms: N_20  and  O_21
REMARK                            x       y       z     vdW  Elec       q    Type
REMARK                         _______ _______ _______ _____ _____    ______ ____
ROOT
ATOM      1  N   UNL     1      -4.343  -2.324  -3.253  0.00  0.00    -0.314 N 
ATOM      2  C   UNL     1      -5.551  -2.311  -3.852  0.00  0.00    +0.226 C 
ATOM      3  O   UNL     1      -6.305  -1.379  -3.675  0.00  0.00    -0.275 OA
ATOM      4  H   UNL     1      -3.770  -3.103  -3.333  0.00  0.00    +0.149 HD
ENDROOT
BRANCH   2   5
ATOM      5  C   UNL     1      -5.963  -3.456  -4.741  0.00  0.00    +0.105 C 
ATOM      6  C   UNL     1      -7.350  -3.179  -5.347  0.00  0.00    +0.024 C 
ATOM      7  C   UNL     1      -8.277  -4.314  -4.864  0.00  0.00    +0.001 C 
ATOM      8  C   UNL     1      -7.603  -4.828  -3.567  0.00  0.00    +0.001 C 
ATOM      9  C   UNL     1      -6.095  -4.749  -3.910  0.00  0.00    +0.024 C 
BRANCH   5  10
ATOM     10  C   UNL     1      -4.948  -3.648  -5.838  0.00  0.00    +0.147 C 
ATOM     11  N   UNL     1      -4.371  -4.794  -5.990  0.00  0.00    -0.076 NA
ATOM     12  N   UNL     1      -4.636  -2.603  -6.678  0.00  0.00    -0.343 N 
ATOM     13  H   UNL     1      -5.122  -1.766  -6.613  0.00  0.00    +0.144 HD
ATOM     14  H   UNL     1      -3.930  -2.703  -7.336  0.00  0.00    +0.144 HD
BRANCH  11  15
ATOM     15  O   UNL     1      -3.417  -4.975  -7.021  0.00  0.00    -0.408 OA
ATOM     16  H   UNL     1      -3.040  -5.865  -7.056  0.00  0.00    +0.328 HD
ENDBRANCH  11  15
ENDBRANCH   5  10
ENDBRANCH   2   5
BRANCH   1  17
ATOM     17  C   UNL     1      -3.895  -1.161  -2.482  0.00  0.00    +0.105 C 
BRANCH  17  21
ATOM     18  N   UNL     1      -1.294  -0.759   0.085  0.00  0.00    +0.381 N 
ATOM     19  C   UNL     1      -1.322  -2.236   0.022  0.00  0.00    -0.078 C 
ATOM     20  C   UNL     1      -2.552  -2.571  -0.859  0.00  0.00    -0.015 C 
ATOM     21  C   UNL     1      -2.502  -1.433  -1.913  0.00  0.00    -0.012 C 
ATOM     22  C   UNL     1      -1.997  -0.225  -1.096  0.00  0.00    -0.074 C 
ATOM     23  H   UNL     1      -1.759  -0.449   0.926  0.00  0.00    -0.081 HD
BRANCH  18  25
ATOM     24  C   UNL     1       0.121   1.238   0.131  0.00  0.00    -0.014 C 
ATOM     25  C   UNL     1       0.098  -0.291   0.086  0.00  0.00    -0.075 C 
ATOM     26  C   UNL     1       0.822  -0.848   1.314  0.00  0.00    -0.014 C 
ENDBRANCH  18  25
ENDBRANCH  17  21
ENDBRANCH   1  17
TORSDOF 6
