REMARK  Name = ZINC31977663
REMARK  5 active torsions:
REMARK  status: ('A' for Active; 'I' for Inactive)
REMARK    1  A    between atoms: C_1  and  C_2
REMARK    2  A    between atoms: C_5  and  O_9
REMARK    3  A    between atoms: C_6  and  N_8
REMARK    4  A    between atoms: O_9  and  C_10
REMARK    5  A    between atoms: C_16  and  N_18
REMARK                            x       y       z     vdW  Elec       q    Type
REMARK                         _______ _______ _______ _____ _____    ______ ____
ROOT
ATOM      1  O   UNL     1       3.597  -0.624  -0.032  0.00  0.00    -0.485 OA
ENDROOT
BRANCH   1   6
ATOM      2  C   UNL     1      -1.343   2.092  -0.127  0.00  0.00    +0.044 C 
ATOM      3  C   UNL     1      -0.024   1.363  -0.097  0.00  0.00    -0.048 A 
ATOM      4  C   UNL     1       1.159   2.077  -0.128  0.00  0.00    +0.007 A 
ATOM      5  C   UNL     1       2.373   1.414  -0.107  0.00  0.00    +0.048 A 
ATOM      6  C   UNL     1       2.405   0.030  -0.054  0.00  0.00    +0.142 A 
ATOM      7  C   UNL     1       1.212  -0.690  -0.022  0.00  0.00    +0.067 A 
ATOM      8  C   UNL     1      -0.001  -0.018  -0.044  0.00  0.00    +0.029 A 
BRANCH   7   9
ATOM      9  N   UNL     1       1.239  -2.089   0.031  0.00  0.00    -0.355 N 
ATOM     10  H   UNL     1       0.297  -2.656   0.056  0.00  0.00    +0.142 HD
ATOM     11  H   UNL     1       2.201  -2.620   0.048  0.00  0.00    +0.142 HD
ENDBRANCH   7   9
ENDBRANCH   1   6
BRANCH   1  12
ATOM     12  C   UNL     1       4.777   0.174  -0.152  0.00  0.00    +0.196 C 
ATOM     13  C   UNL     1       5.051   0.459  -1.630  0.00  0.00    +0.047 C 
ATOM     14  C   UNL     1       6.314   1.313  -1.758  0.00  0.00    +0.004 C 
ATOM     15  C   UNL     1       7.502   0.561  -1.155  0.00  0.00    +0.002 C 
ATOM     16  C   UNL     1       7.227   0.275   0.323  0.00  0.00    +0.029 C 
ATOM     17  C   UNL     1       5.964  -0.579   0.451  0.00  0.00    +0.129 C 
BRANCH  17  18
ATOM     18  N   UNL     1       6.155  -1.843  -0.264  0.00  0.00    -0.330 N 
ATOM     19  C   UNL     1       5.198  -2.540  -0.952  0.00  0.00    +0.107 A 
ATOM     20  C   UNL     1       5.799  -3.637  -1.451  0.00  0.00    +0.130 A 
ATOM     21  N   UNL     1       7.087  -3.611  -1.078  0.00  0.00    -0.244 NA
ATOM     22  C   UNL     1       7.309  -2.537  -0.371  0.00  0.00    +0.199 A 
ENDBRANCH  17  18
ENDBRANCH   1  12
TORSDOF 4
