REMARK  Name = ZINC00876402
REMARK  5 active torsions:
REMARK  status: ('A' for Active; 'I' for Inactive)
REMARK    1  A    between atoms: C_1  and  C_2
REMARK    2  A    between atoms: C_7  and  C_13
REMARK    3  A    between atoms: C_18  and  N_27
REMARK    4  A    between atoms: C_22  and  N_26
REMARK    5  A    between atoms: C_23  and  C_24
REMARK                            x       y       z     vdW  Elec       q    Type
REMARK                         _______ _______ _______ _____ _____    ______ ____
ROOT
ATOM      1  C   UNL     1       2.466   3.918  -0.002  0.00  0.00    +0.101 C 
ATOM      2  C   UNL     1       1.161   3.167   0.007  0.00  0.00    +0.008 A 
ATOM      3  C   UNL     1       1.173   1.783   0.000  0.00  0.00    +0.010 A 
ATOM      4  C   UNL     1      -0.013   1.076   0.008  0.00  0.00    +0.023 A 
ATOM      5  C   UNL     1      -1.225   1.755   0.017  0.00  0.00    +0.028 A 
ATOM      6  C   UNL     1      -1.240   3.142   0.029  0.00  0.00    +0.069 A 
ATOM      7  C   UNL     1      -0.045   3.849   0.022  0.00  0.00    +0.136 A 
ATOM      8  O   UNL     1      -0.077   5.205   0.029  0.00  0.00    -0.441 OA
ATOM      9  C   UNL     1       1.010   5.899   0.406  0.00  0.00    +0.199 C 
ATOM     10  C   UNL     1       2.246   5.345   0.414  0.00  0.00    +0.098 C 
ENDROOT
BRANCH   1  17
ATOM     11  C   UNL     1       4.759   4.187  -7.583  0.00  0.00    +0.044 C 
ATOM     12  C   UNL     1       4.128   4.245  -6.215  0.00  0.00    -0.048 A 
ATOM     13  C   UNL     1       2.874   4.832  -6.063  0.00  0.00    +0.004 A 
ATOM     14  C   UNL     1       2.278   4.899  -4.840  0.00  0.00    +0.010 A 
ATOM     15  C   UNL     1       2.936   4.371  -3.718  0.00  0.00    +0.001 A 
ATOM     16  C   UNL     1       2.350   4.416  -2.438  0.00  0.00    +0.017 A 
ATOM     17  C   UNL     1       3.050   3.888  -1.391  0.00  0.00    +0.003 A 
ATOM     18  C   UNL     1       4.303   3.315  -1.609  0.00  0.00    +0.134 A 
ATOM     19  N   UNL     1       4.842   3.270  -2.804  0.00  0.00    -0.235 NA
ATOM     20  C   UNL     1       4.211   3.775  -3.870  0.00  0.00    +0.073 A 
ATOM     21  C   UNL     1       4.794   3.724  -5.149  0.00  0.00    +0.031 A 
ATOM     22 CL   UNL     1       5.171   2.642  -0.265  0.00  0.00    -0.062 Cl
ENDBRANCH   1  17
BRANCH   9  23
ATOM     23  N   UNL     1       0.864   7.207   0.796  0.00  0.00    -0.328 N 
ATOM     24  H   UNL     1       1.639   7.721   1.071  0.00  0.00    +0.145 HD
ATOM     25  H   UNL     1      -0.015   7.617   0.795  0.00  0.00    +0.145 HD
ENDBRANCH   9  23
BRANCH   5  26
ATOM     26  N   UNL     1      -2.426   1.042   0.019  0.00  0.00    -0.358 N 
ATOM     27  H   UNL     1      -2.415   0.072   0.014  0.00  0.00    +0.142 HD
ATOM     28  H   UNL     1      -3.272   1.517   0.026  0.00  0.00    +0.142 HD
ENDBRANCH   5  26
BRANCH  10  29
ATOM     29  C   UNL     1       3.366   6.136   0.828  0.00  0.00    +0.101 C 
ATOM     30  N   UNL     1       4.255   6.763   1.155  0.00  0.00    -0.191 NA
ENDBRANCH  10  29
TORSDOF 4
