REMARK  Name = ZINC00635854
REMARK  5 active torsions:
REMARK  status: ('A' for Active; 'I' for Inactive)
REMARK    1  A    between atoms: C_1  and  C_2
REMARK    2  A    between atoms: C_5  and  C_8
REMARK    3  A    between atoms: C_19  and  C_21
REMARK    4  A    between atoms: C_25  and  O_27
REMARK    5  A    between atoms: O_27  and  C_28
REMARK                            x       y       z     vdW  Elec       q    Type
REMARK                         _______ _______ _______ _____ _____    ______ ____
ROOT
ATOM      1  C   UNL     1      -0.017  -4.165  -0.237  0.00  0.00    +0.159 C 
ATOM      2  C   UNL     1       1.403  -4.655  -0.055  0.00  0.00    +0.027 C 
ATOM      3  C   UNL     1       1.679  -5.413   1.025  0.00  0.00    +0.083 C 
ATOM      4  C   UNL     1       3.075  -5.894   1.185  0.00  0.00    +0.042 A 
ATOM      5  C   UNL     1       3.534  -6.398   2.395  0.00  0.00    +0.013 A 
ATOM      6  C   UNL     1       4.841  -6.834   2.500  0.00  0.00    +0.001 A 
ATOM      7  C   UNL     1       5.687  -6.769   1.407  0.00  0.00    +0.004 A 
ATOM      8  C   UNL     1       5.237  -6.270   0.199  0.00  0.00    +0.046 A 
ATOM      9  C   UNL     1       3.931  -5.830   0.079  0.00  0.00    +0.131 A 
ATOM     10  O   UNL     1       3.461  -5.343  -1.098  0.00  0.00    -0.479 OA
ATOM     11  C   UNL     1       2.481  -4.304  -1.039  0.00  0.00    +0.234 C 
ATOM     12  N   UNL     1       0.724  -5.728   1.934  0.00  0.00    -0.213 NA
ATOM     13  C   UNL     1      -0.529  -5.345   1.853  0.00  0.00    +0.237 C 
ATOM     14  N   UNL     1      -0.969  -4.567   0.805  0.00  0.00    -0.208 N 
ATOM     15  N   UNL     1      -2.331  -4.342   1.021  0.00  0.00    -0.251 N 
ATOM     16  C   UNL     1      -2.648  -4.983   2.180  0.00  0.00    +0.203 C 
ATOM     17  N   UNL     1      -1.594  -5.566   2.655  0.00  0.00    -0.205 NA
ATOM     18  H   UNL     1      -2.931  -3.830   0.457  0.00  0.00    +0.171 HD
ENDROOT
BRANCH   1  23
ATOM     19  C   UNL     1       0.078   1.609  -0.460  0.00  0.00    +0.044 C 
ATOM     20  C   UNL     1       0.053   0.103  -0.402  0.00  0.00    -0.050 A 
ATOM     21  C   UNL     1      -0.069  -0.632  -1.566  0.00  0.00    +0.004 A 
ATOM     22  C   UNL     1      -0.091  -2.013  -1.513  0.00  0.00    +0.006 A 
ATOM     23  C   UNL     1       0.009  -2.659  -0.295  0.00  0.00    -0.021 A 
ATOM     24  C   UNL     1       0.132  -1.925   0.869  0.00  0.00    +0.006 A 
ATOM     25  C   UNL     1       0.159  -0.544   0.815  0.00  0.00    +0.004 A 
ENDBRANCH   1  23
BRANCH  11  26
ATOM     26  C   UNL     1       3.143  -3.018  -0.615  0.00  0.00    +0.000 A 
ATOM     27  C   UNL     1       2.932  -1.860  -1.342  0.00  0.00    +0.008 A 
ATOM     28  C   UNL     1       3.538  -0.679  -0.956  0.00  0.00    +0.004 A 
ATOM     29  C   UNL     1       4.356  -0.653   0.157  0.00  0.00    +0.045 A 
ATOM     30  C   UNL     1       4.569  -1.812   0.888  0.00  0.00    +0.120 A 
ATOM     31  C   UNL     1       3.955  -2.995   0.502  0.00  0.00    +0.053 A 
BRANCH  30  32
ATOM     32  O   UNL     1       5.374  -1.789   1.983  0.00  0.00    -0.495 OA
ATOM     33  C   UNL     1       5.968  -0.535   2.325  0.00  0.00    +0.277 C 
ENDBRANCH  30  32
ENDBRANCH  11  26
TORSDOF 3
