REMARK  Name = ZINC00899578
REMARK  9 active torsions:
REMARK  status: ('A' for Active; 'I' for Inactive)
REMARK    1  A    between atoms: C_1  and  C_2
REMARK    2  A    between atoms: C_6  and  C_14
REMARK    3  A    between atoms: C_11  and  C_12
REMARK    4  A    between atoms: C_16  and  C_27
REMARK    5  A    between atoms: C_17  and  N_26
REMARK    6  A    between atoms: C_19  and  C_25
REMARK    7  A    between atoms: C_20  and  C_21
REMARK    8  A    between atoms: C_21  and  O_23
REMARK    9  A    between atoms: O_23  and  C_24
REMARK                            x       y       z     vdW  Elec       q    Type
REMARK                         _______ _______ _______ _____ _____    ______ ____
ROOT
ATOM      1  C   UNL     1       1.226   2.090  -0.034  0.00  0.00    +0.107 C 
ATOM      2  C   UNL     1      -0.116   1.438   0.161  0.00  0.00    +0.098 C 
ATOM      3  C   UNL     1      -1.249   2.181   0.195  0.00  0.00    +0.198 C 
ATOM      4  O   UNL     1      -1.222   3.519   0.069  0.00  0.00    -0.445 OA
ATOM      5  C   UNL     1      -0.145   4.107  -0.472  0.00  0.00    +0.115 C 
ATOM      6  C   UNL     1       1.041   3.490  -0.552  0.00  0.00    +0.087 C 
ATOM      7  C   UNL     1      -0.274   5.509  -1.009  0.00  0.00    +0.087 C 
ENDROOT
BRANCH   1  13
ATOM      8  C   UNL     1       1.827   4.203   7.054  0.00  0.00    +0.044 C 
ATOM      9  C   UNL     1       2.359   3.486   5.840  0.00  0.00    -0.047 A 
ATOM     10  C   UNL     1       1.637   3.492   4.686  0.00  0.00    +0.013 A 
ATOM     11  C   UNL     1       2.131   2.823   3.555  0.00  0.00    +0.001 A 
ATOM     12  C   UNL     1       1.415   2.806   2.342  0.00  0.00    +0.017 A 
ATOM     13  C   UNL     1       1.957   2.136   1.283  0.00  0.00    +0.003 A 
ATOM     14  C   UNL     1       3.185   1.489   1.423  0.00  0.00    +0.134 A 
ATOM     15  N   UNL     1       3.852   1.513   2.553  0.00  0.00    -0.235 NA
ATOM     16  C   UNL     1       3.376   2.151   3.627  0.00  0.00    +0.073 A 
ATOM     17  C   UNL     1       4.092   2.168   4.837  0.00  0.00    +0.032 A 
ATOM     18  C   UNL     1       3.583   2.825   5.914  0.00  0.00    -0.045 A 
ATOM     19  C   UNL     1       4.356   2.840   7.207  0.00  0.00    +0.044 C 
ATOM     20 CL   UNL     1       3.851   0.637   0.065  0.00  0.00    -0.062 Cl
ENDBRANCH   1  13
BRANCH   3  21
ATOM     21  N   UNL     1      -2.456   1.551   0.366  0.00  0.00    -0.328 N 
ATOM     22  H   UNL     1      -2.490   0.586   0.461  0.00  0.00    +0.145 HD
ATOM     23  H   UNL     1      -3.275   2.070   0.392  0.00  0.00    +0.145 HD
ENDBRANCH   3  21
BRANCH   6  24
ATOM     24  C   UNL     1       2.139   4.168  -1.135  0.00  0.00    +0.339 C 
ATOM     25  O   UNL     1       2.449   3.944  -2.290  0.00  0.00    -0.245 OA
BRANCH  24  26
ATOM     26  O   UNL     1       2.843   5.062  -0.410  0.00  0.00    -0.465 OA
ATOM     27  C   UNL     1       3.938   5.708  -1.062  0.00  0.00    +0.280 C 
ENDBRANCH  24  26
ENDBRANCH   6  24
BRANCH   2  28
ATOM     28  C   UNL     1      -0.198   0.016   0.306  0.00  0.00    +0.101 C 
ATOM     29  N   UNL     1      -0.263  -1.112   0.422  0.00  0.00    -0.191 NA
ENDBRANCH   2  28
TORSDOF 5
