REMARK  Name = ZINC53299847
REMARK  11 active torsions:
REMARK  status: ('A' for Active; 'I' for Inactive)
REMARK    1  A    between atoms: C_1  and  C_2
REMARK    2  A    between atoms: C_2  and  C_3
REMARK    3  A    between atoms: C_2  and  C_4
REMARK    4  A    between atoms: C_4  and  C_5
REMARK    5  A    between atoms: N_7  and  C_8
REMARK    6  A    between atoms: C_11  and  N_14
REMARK    7  A    between atoms: C_15  and  C_17
REMARK    8  A    between atoms: C_17  and  C_18
REMARK    9  A    between atoms: C_17  and  C_19
REMARK   10  A    between atoms: C_17  and  N_20
REMARK   11  A    between atoms: N_23  and  C_24
REMARK                            x       y       z     vdW  Elec       q    Type
REMARK                         _______ _______ _______ _____ _____    ______ ____
ROOT
ATOM      1  C   UNL     1      -0.196  -0.087   4.885  0.00  0.00    +0.033 A 
ATOM      2  C   UNL     1      -1.393   0.615   4.822  0.00  0.00    +0.025 A 
ATOM      3  C   UNL     1      -2.015   1.024   5.985  0.00  0.00    +0.025 A 
ATOM      4  C   UNL     1      -1.445   0.732   7.217  0.00  0.00    +0.034 A 
ATOM      5  C   UNL     1      -0.249   0.029   7.280  0.00  0.00    +0.025 A 
ATOM      6  C   UNL     1       0.371  -0.384   6.118  0.00  0.00    +0.025 A 
ENDROOT
BRANCH   1   9
ATOM      7  C   UNL     1       0.383   0.275   2.605  0.00  0.00    +0.217 C 
ATOM      8  O   UNL     1      -0.281   1.290   2.610  0.00  0.00    -0.275 OA
ATOM      9  N   UNL     1       0.435  -0.501   3.705  0.00  0.00    -0.285 N 
ATOM     10  H   UNL     1       0.911  -1.346   3.681  0.00  0.00    +0.155 HD
BRANCH   7  11
ATOM     11  C   UNL     1       1.148  -0.119   1.368  0.00  0.00    +0.099 C 
BRANCH  11  13
ATOM     12  C   UNL     1       1.517   2.262   0.710  0.00  0.00    +0.008 C 
ATOM     13  C   UNL     1       0.919   0.924   0.272  0.00  0.00    -0.008 C 
ATOM     14  C   UNL     1       1.593   0.462  -1.021  0.00  0.00    +0.008 C 
ENDBRANCH  11  13
ENDBRANCH   7  11
ENDBRANCH   1   9
BRANCH   4  15
ATOM     15  N   UNL     1      -2.076   1.146   8.397  0.00  0.00    -0.284 N 
ATOM     16  C   UNL     1      -1.338   1.529   9.458  0.00  0.00    +0.240 C 
ATOM     17  O   UNL     1      -0.130   1.434   9.421  0.00  0.00    -0.273 OA
ATOM     18  H   UNL     1      -3.045   1.158   8.450  0.00  0.00    +0.155 HD
BRANCH  16  19
ATOM     19  C   UNL     1      -2.015   2.074  10.689  0.00  0.00    +0.107 C 
ATOM     20  C   UNL     1      -2.443   0.914  11.591  0.00  0.00    +0.041 C 
ATOM     21  C   UNL     1      -1.041   2.977  11.448  0.00  0.00    +0.041 C 
BRANCH  19  22
ATOM     22  N   UNL     1      -3.194   2.849  10.296  0.00  0.00    -0.286 N 
ATOM     23  C   UNL     1      -3.960   3.434  11.237  0.00  0.00    +0.300 C 
ATOM     24  O   UNL     1      -3.672   3.320  12.413  0.00  0.00    -0.253 OA
ATOM     25  N   UNL     1      -5.045   4.147  10.876  0.00  0.00    -0.302 N 
ATOM     26  C   UNL     1      -5.878   4.784  11.899  0.00  0.00    +0.129 C 
ATOM     27  H   UNL     1      -3.424   2.940   9.358  0.00  0.00    +0.151 HD
ATOM     28  H   UNL     1      -5.275   4.239   9.938  0.00  0.00    +0.150 HD
ENDBRANCH  19  22
ENDBRANCH  16  19
ENDBRANCH   4  15
TORSDOF 6
