REMARK  Name = ZINC64697776
REMARK  9 active torsions:
REMARK  status: ('A' for Active; 'I' for Inactive)
REMARK    1  A    between atoms: C_1  and  O_2
REMARK    2  A    between atoms: O_2  and  C_3
REMARK    3  A    between atoms: C_6  and  C_9
REMARK    4  A    between atoms: C_9  and  C_11
REMARK    5  A    between atoms: C_9  and  C_30
REMARK    6  A    between atoms: C_11  and  N_12
REMARK    7  A    between atoms: C_13  and  C_15
REMARK    8  A    between atoms: C_15  and  N_16
REMARK    9  A    between atoms: C_25  and  C_27
REMARK                            x       y       z     vdW  Elec       q    Type
REMARK                         _______ _______ _______ _____ _____    ______ ____
ROOT
ATOM      1  C   UNL     1       2.790  -4.135   5.429  0.00  0.00    +0.116 C 
ENDROOT
BRANCH   1   2
ATOM      2  N   UNL     1       3.894  -4.627   6.256  0.00  0.00    -0.313 N 
ATOM      3  C   UNL     1       4.965  -5.205   5.677  0.00  0.00    +0.227 C 
ATOM      4  O   UNL     1       5.015  -5.317   4.471  0.00  0.00    -0.274 OA
ATOM      5  H   UNL     1       3.855  -4.537   7.221  0.00  0.00    +0.149 HD
BRANCH   3   6
ATOM      6  C   UNL     1       6.101  -5.711   6.528  0.00  0.00    +0.181 C 
BRANCH   6   7
ATOM      7  N   UNL     1       7.138  -6.292   5.666  0.00  0.00    -0.278 NA
ATOM      8  C   UNL     1       6.706  -7.583   5.122  0.00  0.00    +0.121 C 
ATOM      9  C   UNL     1       7.813  -8.215   4.319  0.00  0.00    -0.030 A 
ATOM     10  C   UNL     1       7.490  -9.233   3.434  0.00  0.00    +0.005 A 
ATOM     11  C   UNL     1       8.473  -9.842   2.681  0.00  0.00    +0.000 A 
ATOM     12  C   UNL     1       9.789  -9.437   2.810  0.00  0.00    +0.000 A 
ATOM     13  C   UNL     1      10.112  -8.423   3.689  0.00  0.00    +0.004 A 
ATOM     14  C   UNL     1       9.125  -7.809   4.444  0.00  0.00    -0.041 A 
ATOM     15  C   UNL     1       9.523  -6.699   5.383  0.00  0.00    +0.063 C 
ATOM     16  C   UNL     1       8.406  -6.446   6.396  0.00  0.00    +0.148 C 
BRANCH  16  17
ATOM     17  C   UNL     1       8.701  -5.187   7.171  0.00  0.00    +0.228 C 
ATOM     18  O   UNL     1       8.382  -4.108   6.718  0.00  0.00    -0.274 OA
ATOM     19  N   UNL     1       9.318  -5.261   8.367  0.00  0.00    -0.328 N 
ATOM     20  H   UNL     1       9.572  -6.124   8.729  0.00  0.00    +0.145 HD
ATOM     21  H   UNL     1       9.507  -4.450   8.865  0.00  0.00    +0.145 HD
ENDBRANCH  16  17
ENDBRANCH   6   7
ENDBRANCH   3   6
ENDBRANCH   1   2
BRANCH   1  22
ATOM     22  C   UNL     1       1.710  -3.529   6.327  0.00  0.00    +0.064 C 
BRANCH  22  23
ATOM     23  C   UNL     1       1.111  -4.609   7.190  0.00  0.00    -0.033 C 
ATOM     24  C   UNL     1       1.097  -4.656   8.542  0.00  0.00    -0.000 A 
ATOM     25  C   UNL     1       1.616  -3.751   9.574  0.00  0.00    +0.010 A 
ATOM     26  C   UNL     1       1.447  -4.074  10.876  0.00  0.00    +0.001 A 
ATOM     27  C   UNL     1       0.790  -5.250  11.264  0.00  0.00    +0.002 A 
ATOM     28  C   UNL     1       0.285  -6.131  10.374  0.00  0.00    +0.026 A 
ATOM     29  C   UNL     1       0.406  -5.891   8.978  0.00  0.00    +0.043 A 
ATOM     30  N   UNL     1       0.008  -6.580   7.936  0.00  0.00    -0.380 N 
ATOM     31  C   UNL     1       0.397  -5.857   6.720  0.00  0.00    +0.145 C 
ATOM     32  H   UNL     1      -0.467  -7.426   7.964  0.00  0.00    +0.160 HD
ENDBRANCH  22  23
BRANCH  22  36
ATOM     33  C   UNL     1      -1.345  -1.783   3.902  0.00  0.00    +0.120 A 
ATOM     34  C   UNL     1      -0.634  -0.997   4.797  0.00  0.00    +0.046 A 
ATOM     35  C   UNL     1       0.353  -1.563   5.580  0.00  0.00    +0.008 A 
ATOM     36  C   UNL     1       0.633  -2.913   5.472  0.00  0.00    -0.038 A 
ATOM     37  C   UNL     1      -0.074  -3.699   4.581  0.00  0.00    +0.008 A 
ATOM     38  C   UNL     1      -1.067  -3.138   3.800  0.00  0.00    +0.046 A 
BRANCH  33  40
ATOM     39  C   UNL     1      -2.549   0.173   3.289  0.00  0.00    +0.277 C 
ATOM     40  O   UNL     1      -2.317  -1.228   3.131  0.00  0.00    -0.495 OA
ENDBRANCH  33  40
ENDBRANCH  22  36
ENDBRANCH   1  22
TORSDOF 8
