REMARK  Name = ZINC38733925
REMARK  8 active torsions:
REMARK  status: ('A' for Active; 'I' for Inactive)
REMARK    1  A    between atoms: C_1  and  C_2
REMARK    2  A    between atoms: C_2  and  C_27
REMARK    3  A    between atoms: C_4  and  N_11
REMARK    4  A    between atoms: C_6  and  C_9
REMARK    5  A    between atoms: C_6  and  C_10
REMARK    6  A    between atoms: N_7  and  C_8
REMARK    7  A    between atoms: C_12  and  C_14
REMARK    8  A    between atoms: C_14  and  C_15
REMARK                            x       y       z     vdW  Elec       q    Type
REMARK                         _______ _______ _______ _____ _____    ______ ____
ROOT
ATOM      1  N   UNL     1       2.611  -0.821  -2.630  0.00  0.00    -0.313 N 
ATOM      2  C   UNL     1       3.763  -0.336  -3.132  0.00  0.00    +0.215 C 
ATOM      3  O   UNL     1       4.367   0.531  -2.537  0.00  0.00    -0.276 OA
ATOM      4  H   UNL     1       2.128  -1.515  -3.106  0.00  0.00    +0.149 HD
ENDROOT
BRANCH   1   8
ATOM      5  C   UNL     1      -0.019   1.528   0.010  0.00  0.00    -0.010 C 
ATOM      6  C   UNL     1       0.002  -0.004   0.002  0.00  0.00    -0.069 C 
ATOM      7  C   UNL     1       0.571  -0.507  -1.320  0.00  0.00    +0.010 C 
ATOM      8  C   UNL     1       2.085  -0.300  -1.362  0.00  0.00    +0.070 C 
ATOM      9  C   UNL     1       2.704  -1.079  -0.201  0.00  0.00    +0.010 C 
ATOM     10  C   UNL     1       2.150  -0.581   1.129  0.00  0.00    -0.069 C 
ATOM     11  N   UNL     1       0.697  -0.531   1.165  0.00  0.00    +0.385 N 
ATOM     12  C   UNL     1       0.278   0.238   2.357  0.00  0.00    -0.095 C 
ATOM     13  C   UNL     1       2.764   0.779   1.472  0.00  0.00    -0.010 C 
ATOM     14  C   UNL     1       2.610  -1.575   2.221  0.00  0.00    -0.010 C 
ATOM     15  C   UNL     1      -1.468  -0.478   0.081  0.00  0.00    -0.010 C 
ATOM     16  H   UNL     1       0.360  -1.492   1.315  0.00  0.00    -0.081 HD
ENDBRANCH   1   8
BRANCH   2  17
ATOM     17  C   UNL     1       4.302  -0.871  -4.434  0.00  0.00    +0.119 C 
BRANCH  17  18
ATOM     18  C   UNL     1       5.611  -0.157  -4.776  0.00  0.00    +0.146 C 
ATOM     19  C   UNL     1       6.095  -0.608  -6.130  0.00  0.00    +0.231 C 
ATOM     20  O   UNL     1       5.859   0.095  -7.090  0.00  0.00    -0.274 OA
ATOM     21  N   UNL     1       6.769  -1.737  -6.323  0.00  0.00    -0.284 N 
ATOM     22  C   UNL     1       7.231  -2.607  -5.340  0.00  0.00    +0.047 A 
ATOM     23  C   UNL     1       7.606  -3.898  -5.698  0.00  0.00    +0.024 A 
ATOM     24  C   UNL     1       8.060  -4.783  -4.739  0.00  0.00    +0.002 A 
ATOM     25  C   UNL     1       8.145  -4.397  -3.414  0.00  0.00    +0.001 A 
ATOM     26  C   UNL     1       7.779  -3.116  -3.044  0.00  0.00    +0.016 A 
ATOM     27  C   UNL     1       7.328  -2.224  -4.002  0.00  0.00    +0.030 A 
ATOM     28  S   UNL     1       6.877  -0.574  -3.538  0.00  0.00    -0.110 S 
ATOM     29  H   UNL     1       6.957  -1.980  -7.243  0.00  0.00    +0.155 HD
ENDBRANCH  17  18
ENDBRANCH   2  17
TORSDOF 3
