REMARK  Name = ZINC37577219
REMARK  8 active torsions:
REMARK  status: ('A' for Active; 'I' for Inactive)
REMARK    1  A    between atoms: C_3  and  C_15
REMARK    2  A    between atoms: C_5  and  S_7
REMARK    3  A    between atoms: S_7  and  N_10
REMARK    4  A    between atoms: N_10  and  C_11
REMARK    5  A    between atoms: C_11  and  C_12
REMARK    6  A    between atoms: C_16  and  C_17
REMARK    7  A    between atoms: C_17  and  C_18
REMARK    8  A    between atoms: C_18  and  O_19
REMARK                            x       y       z     vdW  Elec       q    Type
REMARK                         _______ _______ _______ _____ _____    ______ ____
ROOT
ATOM      1  C   UNL     1      -0.017   1.379   0.010  0.00  0.00    +0.003 A 
ATOM      2  C   UNL     1       1.167   2.088   0.002  0.00  0.00    +0.017 A 
ATOM      3  C   UNL     1       2.385   1.407  -0.013  0.00  0.00    +0.027 A 
ATOM      4  C   UNL     1       2.397   0.011  -0.021  0.00  0.00    +0.045 A 
ATOM      5  C   UNL     1       1.206  -0.685  -0.013  0.00  0.00    +0.106 A 
ATOM      6  C   UNL     1       0.002  -0.004   0.002  0.00  0.00    +0.028 A 
ENDROOT
BRANCH   5   7
ATOM      7  S   UNL     1       1.219  -2.447  -0.023  0.00  0.00    +0.059 S 
ATOM      8  O   UNL     1      -0.029  -2.860  -0.564  0.00  0.00    -0.153 OA
ATOM      9  O   UNL     1       2.462  -2.841  -0.588  0.00  0.00    -0.153 OA
BRANCH   7  10
ATOM     10  N   UNL     1       1.238  -2.946   1.556  0.00  0.00    -0.181 NA
ATOM     11  H   UNL     1       2.006  -3.424   1.905  0.00  0.00    +0.149 HD
BRANCH  10  12
ATOM     12  C   UNL     1       0.094  -2.663   2.427  0.00  0.00    +0.201 C 
BRANCH  12  13
ATOM     13  C   UNL     1       0.184  -3.515   3.667  0.00  0.00    +0.226 C 
ATOM     14  O   UNL     1       1.113  -4.282   3.810  0.00  0.00    -0.275 OA
ATOM     15  N   UNL     1      -0.766  -3.424   4.618  0.00  0.00    -0.328 N 
ATOM     16  H   UNL     1      -1.509  -2.810   4.504  0.00  0.00    +0.145 HD
ATOM     17  H   UNL     1      -0.708  -3.972   5.416  0.00  0.00    +0.145 HD
ENDBRANCH  12  13
ENDBRANCH  10  12
ENDBRANCH   7  10
ENDBRANCH   5   7
BRANCH   3  18
ATOM     18  C   UNL     1       3.617   2.137  -0.021  0.00  0.00    -0.066 C 
ATOM     19  C   UNL     1       4.627   2.735  -0.028  0.00  0.00    -0.095 C 
BRANCH  19  20
ATOM     20  C   UNL     1       5.893   3.485  -0.037  0.00  0.00    +0.117 C 
BRANCH  20  21
ATOM     21  C   UNL     1       7.067   2.504  -0.053  0.00  0.00    +0.168 C 
BRANCH  21  22
ATOM     22  O   UNL     1       8.297   3.232  -0.062  0.00  0.00    -0.394 OA
ATOM     23  H   UNL     1       9.085   2.672  -0.072  0.00  0.00    +0.209 HD
ENDBRANCH  21  22
ENDBRANCH  20  21
ENDBRANCH  19  20
ENDBRANCH   3  18
TORSDOF 8
