REMARK  Name = ZINC50657329
REMARK  8 active torsions:
REMARK  status: ('A' for Active; 'I' for Inactive)
REMARK    1  A    between atoms: C_1  and  C_2
REMARK    2  A    between atoms: C_2  and  C_3
REMARK    3  A    between atoms: C_3  and  N_4
REMARK    4  A    between atoms: N_4  and  C_5
REMARK    5  A    between atoms: C_10  and  S_11
REMARK    6  A    between atoms: S_11  and  N_14
REMARK    7  A    between atoms: C_18  and  C_21
REMARK    8  A    between atoms: C_21  and  C_22
REMARK                            x       y       z     vdW  Elec       q    Type
REMARK                         _______ _______ _______ _____ _____    ______ ____
ROOT
ATOM      1  C   UNL     1      -2.670  -2.764   0.097  0.00  0.00    +0.054 A 
ATOM      2  C   UNL     1      -3.898  -2.121   0.189  0.00  0.00    +0.025 A 
ATOM      3  C   UNL     1      -5.066  -2.846   0.063  0.00  0.00    +0.002 A 
ATOM      4  C   UNL     1      -5.015  -4.211  -0.155  0.00  0.00    +0.002 A 
ATOM      5  C   UNL     1      -3.795  -4.854  -0.247  0.00  0.00    +0.030 A 
ATOM      6  C   UNL     1      -2.622  -4.134  -0.127  0.00  0.00    +0.126 A 
ENDROOT
BRANCH   6   7
ATOM      7  S   UNL     1      -1.067  -4.954  -0.252  0.00  0.00    +0.063 S 
ATOM      8  O   UNL     1      -0.283  -4.506   0.845  0.00  0.00    -0.153 OA
ATOM      9  O   UNL     1      -1.350  -6.329  -0.475  0.00  0.00    -0.153 OA
BRANCH   7  10
ATOM     10  N   UNL     1      -0.327  -4.394  -1.624  0.00  0.00    -0.172 NA
ATOM     11  C   UNL     1      -0.647  -4.963  -2.943  0.00  0.00    +0.137 C 
ATOM     12  C   UNL     1       0.667  -5.330  -3.642  0.00  0.00    +0.177 C 
ATOM     13  O   UNL     1       1.538  -4.196  -3.633  0.00  0.00    -0.374 OA
ATOM     14  C   UNL     1       1.918  -3.760  -2.326  0.00  0.00    +0.134 C 
ATOM     15  C   UNL     1       0.664  -3.309  -1.560  0.00  0.00    +0.141 C 
BRANCH  14  16
ATOM     16  C   UNL     1       2.895  -2.588  -2.442  0.00  0.00    +0.029 C 
ATOM     17  C   UNL     1       4.190  -3.067  -3.101  0.00  0.00    +0.006 C 
ENDBRANCH  14  16
ENDBRANCH   7  10
ENDBRANCH   6   7
BRANCH   1  18
ATOM     18  N   UNL     1      -1.486  -2.034   0.224  0.00  0.00    -0.342 N 
ATOM     19  H   UNL     1      -0.632  -2.494   0.241  0.00  0.00    +0.146 HD
BRANCH  18  20
ATOM     20  C   UNL     1      -1.534  -0.574   0.332  0.00  0.00    +0.101 C 
BRANCH  20  22
ATOM     21  C   UNL     1      -0.162   1.500   0.572  0.00  0.00    +0.005 C 
ATOM     22  C   UNL     1      -0.112  -0.025   0.460  0.00  0.00    +0.015 C 
ENDBRANCH  20  22
ENDBRANCH  18  20
ENDBRANCH   1  18
TORSDOF 6
