REMARK  Name = ZINC01037860
REMARK  4 active torsions:
REMARK  status: ('A' for Active; 'I' for Inactive)
REMARK    1  A    between atoms: C_4  and  N_7
REMARK    2  A    between atoms: C_8  and  O_10
REMARK    3  A    between atoms: O_10  and  C_11
REMARK    4  A    between atoms: N_22  and  C_23
REMARK                            x       y       z     vdW  Elec       q    Type
REMARK                         _______ _______ _______ _____ _____    ______ ____
ROOT
ATOM      1  C   UNL     1       0.042   1.412   0.251  0.00  0.00    +0.312 C 
ATOM      2  C   UNL     1      -0.017  -0.047  -0.115  0.00  0.00    +0.056 A 
ATOM      3  C   UNL     1      -1.234  -0.629  -0.418  0.00  0.00    +0.032 A 
ATOM      4  C   UNL     1      -1.298  -1.969  -0.756  0.00  0.00    +0.042 A 
ATOM      5  C   UNL     1      -0.143  -2.731  -0.788  0.00  0.00    +0.023 A 
ATOM      6  C   UNL     1       1.073  -2.154  -0.485  0.00  0.00    +0.048 A 
ATOM      7  C   UNL     1       1.140  -0.808  -0.147  0.00  0.00    +0.142 A 
ATOM      8  O   UNL     1       2.341  -0.250   0.149  0.00  0.00    -0.411 OA
ATOM      9  C   UNL     1       2.464   1.082   0.097  0.00  0.00    +0.416 C 
ATOM     10  O   UNL     1       3.577   1.562   0.008  0.00  0.00    -0.225 OA
ATOM     11  N   UNL     1       1.410   1.908   0.141  0.00  0.00    -0.196 N 
ATOM     12 CL   UNL     1      -2.828  -2.695  -1.138  0.00  0.00    -0.084 Cl
ENDROOT
BRANCH  11  13
ATOM     13  C   UNL     1       1.628   3.289   0.079  0.00  0.00    +0.043 A 
ATOM     14  C   UNL     1       1.214   4.009  -1.034  0.00  0.00    +0.024 A 
ATOM     15  C   UNL     1       1.426   5.373  -1.089  0.00  0.00    +0.002 A 
ATOM     16  C   UNL     1       2.059   6.019  -0.043  0.00  0.00    +0.000 A 
ATOM     17  C   UNL     1       2.477   5.303   1.064  0.00  0.00    +0.002 A 
ATOM     18  C   UNL     1       2.263   3.941   1.128  0.00  0.00    +0.024 A 
ENDBRANCH  11  13
BRANCH   1  19
ATOM     19  O   UNL     1      -0.424   1.585   1.615  0.00  0.00    -0.423 OA
BRANCH  19  21
ATOM     20  N   UNL     1      -1.086   3.084   3.276  0.00  0.00    -0.251 N 
ATOM     21  C   UNL     1      -0.760   2.833   1.993  0.00  0.00    +0.406 C 
ATOM     22  O   UNL     1      -0.769   3.733   1.176  0.00  0.00    -0.226 OA
ATOM     23  H   UNL     1      -1.147   2.354   3.912  0.00  0.00    +0.158 HD
BRANCH  20  27
ATOM     24  C   UNL     1      -1.831   6.993   4.510  0.00  0.00    +0.000 A 
ATOM     25  C   UNL     1      -2.208   6.585   3.244  0.00  0.00    +0.002 A 
ATOM     26  C   UNL     1      -1.963   5.290   2.832  0.00  0.00    +0.023 A 
ATOM     27  C   UNL     1      -1.337   4.397   3.691  0.00  0.00    +0.036 A 
ATOM     28  C   UNL     1      -0.965   4.807   4.964  0.00  0.00    +0.023 A 
ATOM     29  C   UNL     1      -1.208   6.106   5.368  0.00  0.00    +0.002 A 
ENDBRANCH  20  27
ENDBRANCH  19  21
ENDBRANCH   1  19
TORSDOF 4
