REMARK  Name = ZINC20552432
REMARK  5 active torsions:
REMARK  status: ('A' for Active; 'I' for Inactive)
REMARK    1  A    between atoms: C_1  and  C_2
REMARK    2  A    between atoms: C_5  and  C_7
REMARK    3  A    between atoms: C_7  and  C_9
REMARK    4  A    between atoms: C_7  and  N_10
REMARK    5  A    between atoms: N_10  and  C_11
REMARK                            x       y       z     vdW  Elec       q    Type
REMARK                         _______ _______ _______ _____ _____    ______ ____
ROOT
ATOM      1  C   UNL     1       2.542   5.366  -1.463  0.00  0.00    +0.031 A 
ATOM      2  C   UNL     1       3.900   5.501  -1.206  0.00  0.00    +0.027 A 
ATOM      3  C   UNL     1       4.615   6.532  -1.785  0.00  0.00    +0.051 A 
ATOM      4  C   UNL     1       3.977   7.440  -2.615  0.00  0.00    +0.173 A 
ATOM      5  C   UNL     1       2.614   7.311  -2.870  0.00  0.00    +0.174 A 
ATOM      6  C   UNL     1       1.899   6.274  -2.293  0.00  0.00    +0.072 A 
ATOM      7  O   UNL     1       2.229   8.318  -3.707  0.00  0.00    -0.395 OA
ATOM      8  C   UNL     1       3.279   9.301  -3.635  0.00  0.00    +0.589 C 
ATOM      9  O   UNL     1       4.446   8.530  -3.293  0.00  0.00    -0.395 OA
ATOM     10  F   UNL     1       3.003  10.243  -2.639  0.00  0.00    -0.125 F 
ATOM     11  F   UNL     1       3.452   9.931  -4.872  0.00  0.00    -0.125 F 
ENDROOT
BRANCH   1  12
ATOM     12  N   UNL     1       1.820   4.318  -0.880  0.00  0.00    -0.337 N 
ATOM     13  H   UNL     1       0.743   4.214  -1.080  0.00  0.00    +0.147 HD
BRANCH  12  14
ATOM     14  C   UNL     1       2.498   3.360  -0.004  0.00  0.00    +0.104 C 
ATOM     15  C   UNL     1       2.552   3.919   1.419  0.00  0.00    +0.033 C 
BRANCH  14  20
ATOM     16  C   UNL     1      -1.155  -0.969   0.007  0.00  0.00    +0.051 C 
ATOM     17  C   UNL     1       0.002  -0.004   0.002  0.00  0.00    -0.013 A 
ATOM     18  C   UNL     1       1.332  -0.266  -0.012  0.00  0.00    +0.011 A 
ATOM     19  C   UNL     1       2.223   0.790  -0.015  0.00  0.00    +0.013 A 
ATOM     20  C   UNL     1       1.742   2.057  -0.004  0.00  0.00    +0.010 A 
ATOM     21  S   UNL     1      -0.022   1.781   0.012  0.00  0.00    -0.097 S 
ENDBRANCH  14  20
ENDBRANCH  12  14
ENDBRANCH   1  12
TORSDOF 3
