REMARK  Name = ZINC27498215
REMARK  7 active torsions:
REMARK  status: ('A' for Active; 'I' for Inactive)
REMARK    1  A    between atoms: C_1  and  C_2
REMARK    2  A    between atoms: C_5  and  N_9
REMARK    3  A    between atoms: N_9  and  C_10
REMARK    4  A    between atoms: C_10  and  C_11
REMARK    5  A    between atoms: N_13  and  N_14
REMARK    6  A    between atoms: C_15  and  C_16
REMARK    7  A    between atoms: C_21  and  O_22
REMARK                            x       y       z     vdW  Elec       q    Type
REMARK                         _______ _______ _______ _____ _____    ______ ____
ROOT
ATOM      1  C   UNL     1       0.547  -6.378   0.858  0.00  0.00    +0.249 C 
ATOM      2  O   UNL     1       0.232  -6.777  -0.243  0.00  0.00    -0.272 OA
ATOM      3  N   UNL     1       0.934  -7.253   1.807  0.00  0.00    -0.206 N 
ATOM      4  H   UNL     1       1.187  -6.934   2.688  0.00  0.00    +0.177 HD
ENDROOT
BRANCH   3   5
ATOM      5  N   UNL     1       0.972  -8.624   1.522  0.00  0.00    -0.188 NA
ATOM      6  C   UNL     1       1.345  -9.467   2.436  0.00  0.00    +0.142 C 
BRANCH   6   7
ATOM      7  C   UNL     1       1.384 -10.909   2.136  0.00  0.00    +0.037 A 
ATOM      8  C   UNL     1       1.779 -11.820   3.118  0.00  0.00    +0.033 A 
ATOM      9  C   UNL     1       1.814 -13.170   2.831  0.00  0.00    +0.042 A 
ATOM     10  C   UNL     1       1.458 -13.624   1.571  0.00  0.00    +0.023 A 
ATOM     11  C   UNL     1       1.067 -12.732   0.591  0.00  0.00    +0.047 A 
ATOM     12  C   UNL     1       1.020 -11.375   0.865  0.00  0.00    +0.126 A 
ATOM     13 CL   UNL     1       2.304 -14.302   4.052  0.00  0.00    -0.084 Cl
BRANCH  12  14
ATOM     14  O   UNL     1       0.630 -10.498  -0.096  0.00  0.00    -0.506 OA
ATOM     15  H   UNL     1       1.355 -10.166  -0.643  0.00  0.00    +0.292 HD
ENDBRANCH  12  14
ENDBRANCH   6   7
ENDBRANCH   3   5
BRANCH   1  16
ATOM     16  C   UNL     1       0.507  -4.903   1.165  0.00  0.00    +0.199 C 
BRANCH  16  17
ATOM     17  N   UNL     1       0.057  -4.170  -0.021  0.00  0.00    -0.334 N 
ATOM     18  H   UNL     1       0.081  -4.595  -0.892  0.00  0.00    +0.147 HD
BRANCH  17  23
ATOM     19  C   UNL     1      -1.823   1.159   0.482  0.00  0.00    +0.044 C 
ATOM     20  C   UNL     1      -1.324  -0.257   0.348  0.00  0.00    -0.048 A 
ATOM     21  C   UNL     1      -0.415  -0.756   1.263  0.00  0.00    +0.020 A 
ATOM     22  C   UNL     1       0.045  -2.054   1.143  0.00  0.00    +0.040 A 
ATOM     23  C   UNL     1      -0.407  -2.857   0.103  0.00  0.00    +0.056 A 
ATOM     24  C   UNL     1      -1.320  -2.351  -0.814  0.00  0.00    +0.040 A 
ATOM     25  C   UNL     1      -1.780  -1.054  -0.685  0.00  0.00    +0.020 A 
ATOM     26 BR   UNL     1      -1.938  -3.439  -2.232  0.00  0.00    -0.048 Br
ATOM     27 BR   UNL     1       1.289  -2.736   2.394  0.00  0.00    -0.048 Br
ENDBRANCH  17  23
ENDBRANCH  16  17
ENDBRANCH   1  16
TORSDOF 6
