REMARK  Name = ZINC45694818
REMARK  7 active torsions:
REMARK  status: ('A' for Active; 'I' for Inactive)
REMARK    1  A    between atoms: C_4  and  N_7
REMARK    2  A    between atoms: C_10  and  C_13
REMARK    3  A    between atoms: C_13  and  N_14
REMARK    4  A    between atoms: N_17  and  C_18
REMARK    5  A    between atoms: C_23  and  S_24
REMARK    6  A    between atoms: S_24  and  C_25
REMARK    7  A    between atoms: C_25  and  C_26
REMARK                            x       y       z     vdW  Elec       q    Type
REMARK                         _______ _______ _______ _____ _____    ______ ____
ROOT
ATOM      1  N   UNL     1       7.062  -3.855   0.836  0.00  0.00    -0.299 N 
ATOM      2  C   UNL     1       7.579  -4.862   1.568  0.00  0.00    +0.304 C 
ATOM      3  O   UNL     1       6.846  -5.569   2.233  0.00  0.00    -0.253 OA
ATOM      4  N   UNL     1       8.908  -5.085   1.563  0.00  0.00    -0.268 N 
ATOM      5  H   UNL     1       7.647  -3.291   0.306  0.00  0.00    +0.150 HD
ATOM      6  H   UNL     1       9.485  -4.564   0.984  0.00  0.00    +0.156 HD
ENDROOT
BRANCH   4   7
ATOM      7  C   UNL     1       9.457  -6.071   2.396  0.00  0.00    +0.048 A 
ATOM      8  C   UNL     1       8.748  -7.234   2.656  0.00  0.00    +0.024 A 
ATOM      9  C   UNL     1       9.291  -8.204   3.478  0.00  0.00    +0.002 A 
ATOM     10  C   UNL     1      10.539  -8.019   4.043  0.00  0.00    +0.001 A 
ATOM     11  C   UNL     1      11.253  -6.863   3.789  0.00  0.00    +0.016 A 
ATOM     12  C   UNL     1      10.719  -5.886   2.961  0.00  0.00    +0.030 A 
BRANCH  12  13
ATOM     13  S   UNL     1      11.629  -4.414   2.630  0.00  0.00    -0.114 S 
BRANCH  13  14
ATOM     14  C   UNL     1      13.169  -4.631   3.563  0.00  0.00    +0.169 C 
BRANCH  14  15
ATOM     15  C   UNL     1      14.051  -3.426   3.364  0.00  0.00    +0.221 C 
ATOM     16  O   UNL     1      13.678  -2.510   2.661  0.00  0.00    -0.275 OA
ATOM     17  N   UNL     1      15.255  -3.365   3.966  0.00  0.00    -0.329 N 
ATOM     18  H   UNL     1      15.554  -4.097   4.528  0.00  0.00    +0.145 HD
ATOM     19  H   UNL     1      15.823  -2.589   3.838  0.00  0.00    +0.145 HD
ENDBRANCH  14  15
ENDBRANCH  13  14
ENDBRANCH  12  13
ENDBRANCH   4   7
BRANCH   1  20
ATOM     20  C   UNL     1       5.617  -3.612   0.841  0.00  0.00    +0.110 C 
BRANCH  20  24
ATOM     21  N   UNL     1       3.608  -0.678  -0.079  0.00  0.00    -0.330 N 
ATOM     22  C   UNL     1       4.940  -0.046  -0.084  0.00  0.00    +0.105 C 
ATOM     23  C   UNL     1       5.888  -1.112   0.521  0.00  0.00    +0.025 C 
ATOM     24  C   UNL     1       5.297  -2.422  -0.064  0.00  0.00    +0.025 C 
ATOM     25  C   UNL     1       3.780  -2.138  -0.078  0.00  0.00    +0.110 C 
BRANCH  21  29
ATOM     26  C   UNL     1      -0.035   1.337  -0.056  0.00  0.00    +0.000 A 
ATOM     27  C   UNL     1       1.149   2.052  -0.065  0.00  0.00    +0.002 A 
ATOM     28  C   UNL     1       2.359   1.387  -0.073  0.00  0.00    +0.023 A 
ATOM     29  C   UNL     1       2.386  -0.002  -0.071  0.00  0.00    +0.030 A 
ATOM     30  C   UNL     1       1.195  -0.717  -0.062  0.00  0.00    +0.023 A 
ATOM     31  C   UNL     1      -0.011  -0.045  -0.054  0.00  0.00    +0.002 A 
ENDBRANCH  21  29
ENDBRANCH  20  24
ENDBRANCH   1  20
TORSDOF 7
