REMARK  Name = ZINC63308280
REMARK  8 active torsions:
REMARK  status: ('A' for Active; 'I' for Inactive)
REMARK    1  A    between atoms: C_1  and  C_2
REMARK    2  A    between atoms: C_2  and  N_3
REMARK    3  A    between atoms: C_4  and  N_6
REMARK    4  A    between atoms: N_8  and  C_9
REMARK    5  A    between atoms: C_9  and  C_10
REMARK    6  A    between atoms: C_10  and  C_11
REMARK    7  A    between atoms: C_23  and  C_28
REMARK    8  A    between atoms: C_25  and  C_27
REMARK                            x       y       z     vdW  Elec       q    Type
REMARK                         _______ _______ _______ _____ _____    ______ ____
ROOT
ATOM      1  N   UNL     1       1.703  -2.285   2.392  0.00  0.00    -0.130 NA
ATOM      2  C   UNL     1       1.557  -3.555   2.733  0.00  0.00    +0.198 C 
ATOM      3  N   UNL     1       1.044  -4.447   1.838  0.00  0.00    -0.357 N 
ATOM      4  N   UNL     1       1.921  -3.974   3.983  0.00  0.00    -0.297 N 
ATOM      5  C   UNL     1       2.444  -3.065   4.895  0.00  0.00    +0.231 A 
ATOM      6  N   UNL     1       2.578  -1.797   4.539  0.00  0.00    -0.217 NA
ATOM      7  C   UNL     1       3.072  -0.906   5.383  0.00  0.00    +0.044 A 
ATOM      8  C   UNL     1       3.450  -1.315   6.652  0.00  0.00    +0.046 A 
ATOM      9  C   UNL     1       3.296  -2.650   6.991  0.00  0.00    +0.044 A 
ATOM     10  N   UNL     1       2.791  -3.488   6.101  0.00  0.00    -0.217 NA
ATOM     11  C   UNL     1       3.695  -3.140   8.360  0.00  0.00    +0.066 C 
ATOM     12  C   UNL     1       3.221   0.535   4.969  0.00  0.00    +0.066 C 
ATOM     13  H   UNL     1       0.704  -4.136   0.984  0.00  0.00    +0.162 HD
ATOM     14  H   UNL     1       1.815  -4.905   4.234  0.00  0.00    +0.171 HD
ENDROOT
BRANCH   1  16
ATOM     15  N   UNL     1       1.582  -0.607   0.782  0.00  0.00    -0.298 N 
ATOM     16  C   UNL     1       1.558  -1.914   1.112  0.00  0.00    +0.326 C 
ATOM     17  O   UNL     1       1.403  -2.757   0.247  0.00  0.00    -0.251 OA
ATOM     18  H   UNL     1       1.705   0.064   1.471  0.00  0.00    +0.150 HD
BRANCH  15  20
ATOM     19  C   UNL     1       1.489   1.324  -0.715  0.00  0.00    +0.024 C 
ATOM     20  C   UNL     1       1.423  -0.202  -0.616  0.00  0.00    +0.102 C 
ENDBRANCH  15  20
ENDBRANCH   1  16
BRANCH   3  21
ATOM     21  C   UNL     1       1.006  -5.874   2.166  0.00  0.00    +0.120 C 
BRANCH  21  22
ATOM     22  C   UNL     1       0.275  -6.633   1.056  0.00  0.00    +0.054 C 
BRANCH  22  23
ATOM     23  C   UNL     1       0.236  -8.101   1.393  0.00  0.00    -0.040 C 
ATOM     24  C   UNL     1      -0.768  -8.768   2.007  0.00  0.00    -0.001 A 
ATOM     25  C   UNL     1      -2.074  -8.342   2.525  0.00  0.00    +0.010 A 
ATOM     26  C   UNL     1      -2.882  -9.260   3.102  0.00  0.00    +0.001 A 
ATOM     27  C   UNL     1      -2.505 -10.605   3.218  0.00  0.00    +0.002 A 
ATOM     28  C   UNL     1      -1.321 -11.072   2.766  0.00  0.00    +0.026 A 
ATOM     29  C   UNL     1      -0.394 -10.194   2.141  0.00  0.00    +0.043 A 
ATOM     30  N   UNL     1       0.796 -10.400   1.631  0.00  0.00    -0.380 N 
ATOM     31  C   UNL     1       1.308  -9.129   1.109  0.00  0.00    +0.144 C 
ATOM     32  H   UNL     1       1.258 -11.253   1.599  0.00  0.00    +0.160 HD
ENDBRANCH  22  23
ENDBRANCH  21  22
ENDBRANCH   3  21
TORSDOF 5
