REMARK  Name = ZINC38050319
REMARK  5 active torsions:
REMARK  status: ('A' for Active; 'I' for Inactive)
REMARK    1  A    between atoms: C_3  and  C_21
REMARK    2  A    between atoms: C_4  and  S_8
REMARK    3  A    between atoms: S_8  and  N_11
REMARK    4  A    between atoms: N_11  and  C_12
REMARK    5  A    between atoms: C_18  and  N_20
REMARK                            x       y       z     vdW  Elec       q    Type
REMARK                         _______ _______ _______ _____ _____    ______ ____
ROOT
ATOM      1  S   UNL     1       4.059  -0.896   0.006  0.00  0.00    +0.060 S 
ATOM      2  O   UNL     1       5.053  -0.391   0.887  0.00  0.00    -0.153 OA
ATOM      3  O   UNL     1       3.622  -2.248   0.045  0.00  0.00    -0.153 OA
ENDROOT
BRANCH   1   7
ATOM      4  C   UNL     1       0.370   1.678   0.596  0.00  0.00    +0.021 A 
ATOM      5  C   UNL     1       0.340   0.648  -0.322  0.00  0.00    +0.022 A 
ATOM      6  C   UNL     1       1.472  -0.148  -0.509  0.00  0.00    +0.078 A 
ATOM      7  C   UNL     1       2.627   0.103   0.234  0.00  0.00    +0.124 A 
ATOM      8  C   UNL     1       2.644   1.136   1.148  0.00  0.00    +0.049 A 
ATOM      9  C   UNL     1       1.518   1.923   1.330  0.00  0.00    +0.043 A 
ATOM     10 CL   UNL     1       1.548   3.221   2.482  0.00  0.00    -0.083 Cl
BRANCH   6  11
ATOM     11  C   UNL     1       1.447  -1.220  -1.459  0.00  0.00    +0.101 C 
ATOM     12  N   UNL     1       1.428  -2.069  -2.213  0.00  0.00    -0.191 NA
ENDBRANCH   6  11
ENDBRANCH   1   7
BRANCH   1  13
ATOM     13  N   UNL     1       4.608  -0.622  -1.533  0.00  0.00    -0.188 NA
ATOM     14  H   UNL     1       4.587  -1.335  -2.190  0.00  0.00    +0.148 HD
BRANCH  13  15
ATOM     15  C   UNL     1       5.125   0.699  -1.901  0.00  0.00    +0.062 C 
ATOM     16  C   UNL     1       6.645   0.717  -1.731  0.00  0.00    +0.019 C 
ATOM     17  C   UNL     1       7.272  -0.346  -2.635  0.00  0.00    +0.001 C 
ATOM     18  C   UNL     1       6.918  -0.049  -4.093  0.00  0.00    -0.001 C 
ATOM     19  C   UNL     1       5.398  -0.068  -4.263  0.00  0.00    -0.015 C 
ATOM     20  C   UNL     1       4.771   0.996  -3.360  0.00  0.00    -0.056 C 
BRANCH  20  21
ATOM     21  N   UNL     1       3.311   0.978  -3.523  0.00  0.00    +0.381 N 
ATOM     22  H   UNL     1       2.898   1.680  -2.927  0.00  0.00    -0.090 HD
ATOM     23  H   UNL     1       3.078   1.174  -4.485  0.00  0.00    -0.090 HD
ATOM     24  H   UNL     1       2.955   0.069  -3.269  0.00  0.00    -0.090 HD
ENDBRANCH  20  21
ENDBRANCH  13  15
ENDBRANCH   1  13
TORSDOF 5
