REMARK  Name = ZINC50709844
REMARK  7 active torsions:
REMARK  status: ('A' for Active; 'I' for Inactive)
REMARK    1  A    between atoms: C_1  and  C_2
REMARK    2  A    between atoms: C_2  and  C_4
REMARK    3  A    between atoms: C_2  and  N_10
REMARK    4  A    between atoms: C_4  and  C_5
REMARK    5  A    between atoms: C_11  and  C_13
REMARK    6  A    between atoms: C_15  and  N_22
REMARK    7  A    between atoms: C_18  and  N_19
REMARK                            x       y       z     vdW  Elec       q    Type
REMARK                         _______ _______ _______ _____ _____    ______ ____
ROOT
ATOM      1  N   UNL     1       0.213   0.136  -1.583  0.00  0.00    -0.308 N 
ATOM      2  C   UNL     1      -0.335  -0.409  -2.687  0.00  0.00    +0.247 C 
ATOM      3  O   UNL     1      -1.543  -0.424  -2.821  0.00  0.00    -0.270 OA
ATOM      4  H   UNL     1       1.177   0.147  -1.475  0.00  0.00    +0.149 HD
ENDROOT
BRANCH   2   5
ATOM      5  C   UNL     1       0.532  -0.988  -3.734  0.00  0.00    +0.069 A 
ATOM      6  C   UNL     1       1.544  -0.219  -4.310  0.00  0.00    +0.038 A 
ATOM      7  C   UNL     1       2.353  -0.769  -5.292  0.00  0.00    +0.025 A 
ATOM      8  C   UNL     1       2.156  -2.083  -5.699  0.00  0.00    +0.025 A 
ATOM      9  C   UNL     1       1.154  -2.845  -5.129  0.00  0.00    +0.035 A 
ATOM     10  C   UNL     1       0.346  -2.309  -4.147  0.00  0.00    +0.138 A 
BRANCH  10  11
ATOM     11  N   UNL     1      -0.721  -3.131  -3.535  0.00  0.00    +0.057 N 
ATOM     12  O   UNL     1      -0.965  -4.231  -3.975  0.00  0.00    -0.126 OA
ATOM     13  O   UNL     1      -1.350  -2.704  -2.595  0.00  0.00    -0.126 OA
ENDBRANCH  10  11
BRANCH   7  14
ATOM     14  N   UNL     1       3.367  -0.003  -5.871  0.00  0.00    -0.358 N 
ATOM     15  H   UNL     1       3.505   0.914  -5.587  0.00  0.00    +0.142 HD
ATOM     16  H   UNL     1       3.934  -0.388  -6.558  0.00  0.00    +0.142 HD
ENDBRANCH   7  14
ENDBRANCH   2   5
BRANCH   1  18
ATOM     17  C   UNL     1      -0.990   2.155  -0.909  0.00  0.00    +0.028 C 
ATOM     18  C   UNL     1      -0.647   0.710  -0.545  0.00  0.00    +0.074 C 
BRANCH  18  19
ATOM     19  C   UNL     1       0.086   0.682   0.798  0.00  0.00    +0.057 C 
BRANCH  19  20
ATOM     20  C   UNL     1       0.316  -0.747   1.216  0.00  0.00    -0.039 A 
ATOM     21  C   UNL     1      -0.625  -1.415   1.977  0.00  0.00    +0.011 A 
ATOM     22  C   UNL     1      -0.388  -2.700   2.336  0.00  0.00    +0.045 A 
ATOM     23  S   UNL     1       1.206  -3.004   1.591  0.00  0.00    -0.105 S 
ATOM     24  C   UNL     1       1.445  -1.399   0.846  0.00  0.00    +0.049 A 
ENDBRANCH  19  20
ENDBRANCH  18  19
ENDBRANCH   1  18
TORSDOF 6
