REMARK  Name = ZINC58950071
REMARK  5 active torsions:
REMARK  status: ('A' for Active; 'I' for Inactive)
REMARK    1  A    between atoms: C_1  and  O_2
REMARK    2  A    between atoms: O_2  and  C_3
REMARK    3  A    between atoms: C_3  and  C_5
REMARK    4  A    between atoms: C_6  and  N_25
REMARK    5  A    between atoms: C_17  and  C_19
REMARK                            x       y       z     vdW  Elec       q    Type
REMARK                         _______ _______ _______ _____ _____    ______ ____
ROOT
ATOM      1  C   UNL     1      -1.245  -2.036   0.032  0.00  0.00    +0.105 C 
ATOM      2  C   UNL     1      -2.449  -2.657   0.109  0.00  0.00    +0.197 C 
ATOM      3  O   UNL     1      -2.563  -3.995   0.079  0.00  0.00    -0.423 OA
ATOM      4  C   UNL     1      -1.552  -4.748  -0.404  0.00  0.00    +0.236 A 
ATOM      5  C   UNL     1      -0.275  -4.236  -0.510  0.00  0.00    +0.091 A 
ATOM      6  C   UNL     1       0.745  -5.053  -1.017  0.00  0.00    +0.262 A 
ATOM      7  O   UNL     1       1.885  -4.630  -1.123  0.00  0.00    -0.267 OA
ATOM      8  N   UNL     1       0.443  -6.316  -1.384  0.00  0.00    -0.273 N 
ATOM      9  H   UNL     1       1.134  -6.897  -1.737  0.00  0.00    +0.173 HD
ATOM     10  C   UNL     1      -0.831  -6.772  -1.260  0.00  0.00    +0.352 A 
ATOM     11  O   UNL     1      -1.117  -8.037  -1.631  0.00  0.00    -0.245 OA
ATOM     12  N   UNL     1      -1.790  -6.010  -0.786  0.00  0.00    -0.157 NA
ATOM     13  C   UNL     1       0.029  -2.825  -0.097  0.00  0.00    +0.101 C 
ENDROOT
BRANCH  13  14
ATOM     14  C   UNL     1       0.744  -2.840   1.229  0.00  0.00    -0.035 A 
ATOM     15  C   UNL     1       0.128  -3.386   2.340  0.00  0.00    +0.004 A 
ATOM     16  C   UNL     1       0.784  -3.400   3.557  0.00  0.00    +0.000 A 
ATOM     17  C   UNL     1       2.055  -2.869   3.663  0.00  0.00    +0.000 A 
ATOM     18  C   UNL     1       2.672  -2.324   2.552  0.00  0.00    +0.000 A 
ATOM     19  C   UNL     1       2.018  -2.313   1.334  0.00  0.00    +0.004 A 
ENDBRANCH  13  14
BRANCH   2  20
ATOM     20  N   UNL     1      -3.582  -1.897   0.220  0.00  0.00    -0.329 N 
ATOM     21  H   UNL     1      -3.527  -0.931   0.150  0.00  0.00    +0.145 HD
ATOM     22  H   UNL     1      -4.440  -2.324   0.369  0.00  0.00    +0.145 HD
ENDBRANCH   2  20
BRANCH   1  23
ATOM     23  C   UNL     1      -1.188  -0.635   0.068  0.00  0.00    +0.341 C 
ATOM     24  O   UNL     1      -1.032  -0.005  -0.963  0.00  0.00    -0.245 OA
BRANCH  23  26
ATOM     25  C   UNL     1      -1.238   1.443   1.208  0.00  0.00    +0.280 C 
ATOM     26  O   UNL     1      -1.306   0.016   1.246  0.00  0.00    -0.465 OA
ENDBRANCH  23  26
ENDBRANCH   1  23
TORSDOF 4
