REMARK  Name = ZINC38750515
REMARK  7 active torsions:
REMARK  status: ('A' for Active; 'I' for Inactive)
REMARK    1  A    between atoms: C_1  and  C_2
REMARK    2  A    between atoms: C_2  and  O_3
REMARK    3  A    between atoms: O_3  and  C_4
REMARK    4  A    between atoms: C_9  and  C_10
REMARK    5  A    between atoms: N_12  and  C_13
REMARK    6  A    between atoms: C_13  and  C_14
REMARK    7  A    between atoms: C_16  and  C_19
REMARK                            x       y       z     vdW  Elec       q    Type
REMARK                         _______ _______ _______ _____ _____    ______ ____
ROOT
ATOM      1  C   UNL     1      -6.385  -1.197   0.057  0.00  0.00    +0.163 C 
ENDROOT
BRANCH   1   2
ATOM      2  C   UNL     1      -7.633  -2.042   0.064  0.00  0.00    +0.101 A 
ATOM      3  C   UNL     1      -8.360  -2.422   1.200  0.00  0.00    +0.081 A 
ATOM      4  C   UNL     1      -9.418  -3.179   0.789  0.00  0.00    +0.202 A 
ATOM      5  O   UNL     1      -9.357  -3.271  -0.553  0.00  0.00    -0.351 OA
ATOM      6  N   UNL     1      -8.224  -2.541  -0.987  0.00  0.00    -0.081 NA
BRANCH   4   7
ATOM      7  C   UNL     1     -10.440  -3.786   1.656  0.00  0.00    +0.174 A 
ATOM      8  C   UNL     1     -11.482  -4.541   1.224  0.00  0.00    +0.061 A 
ATOM      9  C   UNL     1     -12.228  -4.926   2.422  0.00  0.00    +0.021 A 
ATOM     10  C   UNL     1     -13.377  -5.686   2.651  0.00  0.00    +0.011 A 
ATOM     11  C   UNL     1     -13.829  -5.862   3.929  0.00  0.00    +0.001 A 
ATOM     12  C   UNL     1     -13.153  -5.291   4.999  0.00  0.00    +0.004 A 
ATOM     13  C   UNL     1     -12.018  -4.537   4.793  0.00  0.00    +0.047 A 
ATOM     14  C   UNL     1     -11.539  -4.345   3.503  0.00  0.00    +0.136 A 
ATOM     15  O   UNL     1     -10.479  -3.680   3.000  0.00  0.00    -0.452 OA
ENDBRANCH   4   7
ENDBRANCH   1   2
BRANCH   1  18
ATOM     16  C   UNL     1      -3.971  -1.527   0.032  0.00  0.00    +0.248 C 
ATOM     17  O   UNL     1      -3.836  -0.319   0.037  0.00  0.00    -0.270 OA
ATOM     18  N   UNL     1      -5.207  -2.066   0.041  0.00  0.00    -0.306 N 
ATOM     19  H   UNL     1      -5.315  -3.030   0.036  0.00  0.00    +0.149 HD
BRANCH  16  25
ATOM     20  C   UNL     1      -1.498  -1.846   0.006  0.00  0.00    +0.133 A 
ATOM     21  C   UNL     1      -0.389  -2.679  -0.003  0.00  0.00    +0.046 A 
ATOM     22  C   UNL     1      -0.553  -4.049  -0.009  0.00  0.00    +0.004 A 
ATOM     23  C   UNL     1      -1.823  -4.604  -0.006  0.00  0.00    +0.001 A 
ATOM     24  C   UNL     1      -2.936  -3.791   0.003  0.00  0.00    +0.017 A 
ATOM     25  C   UNL     1      -2.784  -2.402   0.016  0.00  0.00    +0.078 A 
BRANCH  20  26
ATOM     26  O   UNL     1      -1.339  -0.499   0.012  0.00  0.00    -0.491 OA
BRANCH  26  28
ATOM     27  C   UNL     1      -0.019   1.526   0.010  0.00  0.00    +0.048 C 
ATOM     28  C   UNL     1       0.002  -0.004   0.002  0.00  0.00    +0.226 C 
ENDBRANCH  26  28
ENDBRANCH  20  26
ENDBRANCH  16  25
ENDBRANCH   1  18
TORSDOF 6
