REMARK  Name = ZINC55187430
REMARK  5 active torsions:
REMARK  status: ('A' for Active; 'I' for Inactive)
REMARK    1  A    between atoms: C_1  and  C_2
REMARK    2  A    between atoms: C_2  and  C_4
REMARK    3  A    between atoms: C_2  and  N_12
REMARK    4  A    between atoms: N_12  and  C_13
REMARK    5  A    between atoms: C_14  and  C_16
REMARK                            x       y       z     vdW  Elec       q    Type
REMARK                         _______ _______ _______ _____ _____    ______ ____
ROOT
ATOM      1  N   UNL     1       0.428  -0.299  -1.314  0.00  0.00    -0.292 N 
ATOM      2  C   UNL     1       1.810  -0.103  -1.759  0.00  0.00    +0.133 C 
ATOM      3  C   UNL     1      -0.488  -0.802  -2.165  0.00  0.00    +0.266 C 
ATOM      4  O   UNL     1      -1.623  -1.015  -1.780  0.00  0.00    -0.268 OA
ENDROOT
BRANCH   3   5
ATOM      5  C   UNL     1      -0.117  -1.092  -3.559  0.00  0.00    +0.135 A 
ATOM      6  C   UNL     1      -1.072  -1.471  -4.469  0.00  0.00    +0.081 A 
ATOM      7  S   UNL     1      -0.071  -1.680  -5.935  0.00  0.00    -0.060 S 
ATOM      8  C   UNL     1       1.501  -1.249  -5.202  0.00  0.00    +0.156 A 
ATOM      9  N   UNL     1       1.152  -0.987  -3.958  0.00  0.00    -0.221 NA
ATOM     10  N   UNL     1       2.754  -1.198  -5.787  0.00  0.00    -0.338 N 
ATOM     11  H   UNL     1       2.860  -1.416  -6.726  0.00  0.00    +0.144 HD
ATOM     12  H   UNL     1       3.527  -0.944  -5.258  0.00  0.00    +0.144 HD
ENDBRANCH   3   5
BRANCH   1  14
ATOM     13  C   UNL     1       0.176   1.563   0.252  0.00  0.00    +0.033 C 
ATOM     14  C   UNL     1       0.043   0.051   0.055  0.00  0.00    +0.106 C 
BRANCH  14  15
ATOM     15  C   UNL     1       0.943  -0.664   1.029  0.00  0.00    +0.011 A 
ATOM     16  C   UNL     1       1.952   0.028   1.673  0.00  0.00    +0.046 A 
ATOM     17  C   UNL     1       2.779  -0.629   2.568  0.00  0.00    +0.124 A 
ATOM     18  C   UNL     1       2.596  -1.978   2.818  0.00  0.00    +0.041 A 
ATOM     19  C   UNL     1       1.587  -2.669   2.175  0.00  0.00    +0.041 A 
ATOM     20  C   UNL     1       0.756  -2.011   1.284  0.00  0.00    +0.128 A 
ATOM     21  F   UNL     1      -0.233  -2.686   0.658  0.00  0.00    -0.205 F 
ATOM     22  F   UNL     1       3.766   0.047   3.197  0.00  0.00    -0.205 F 
ENDBRANCH  14  15
ENDBRANCH   1  14
TORSDOF 3
