REMARK  Name = ZINC05482446
REMARK  7 active torsions:
REMARK  status: ('A' for Active; 'I' for Inactive)
REMARK    1  A    between atoms: C_1  and  C_2
REMARK    2  A    between atoms: C_3  and  C_21
REMARK    3  A    between atoms: C_4  and  C_14
REMARK    4  A    between atoms: C_6  and  C_10
REMARK    5  A    between atoms: C_7  and  N_9
REMARK    6  A    between atoms: C_10  and  O_12
REMARK    7  A    between atoms: O_12  and  C_13
REMARK                            x       y       z     vdW  Elec       q    Type
REMARK                         _______ _______ _______ _____ _____    ______ ____
ROOT
ATOM      1  C   UNL     1      -2.616   6.825  -2.416  0.00  0.00    +0.087 C 
ATOM      2  C   UNL     1      -1.994   6.327  -1.137  0.00  0.00    +0.118 C 
ATOM      3  C   UNL     1      -0.780   5.773  -1.180  0.00  0.00    +0.079 C 
ATOM      4  C   UNL     1      -0.109   5.260   0.064  0.00  0.00    +0.105 C 
ATOM      5  C   UNL     1      -0.796   5.816   1.282  0.00  0.00    +0.106 C 
ATOM      6  C   UNL     1      -2.030   6.377   1.189  0.00  0.00    +0.195 C 
ATOM      7  O   UNL     1      -2.678   6.454   0.013  0.00  0.00    -0.445 OA
ENDROOT
BRANCH   4   8
ATOM      8  C   UNL     1      -0.187   3.755   0.090  0.00  0.00    -0.033 A 
ATOM      9  C   UNL     1      -1.419   3.126   0.092  0.00  0.00    +0.004 A 
ATOM     10  C   UNL     1      -1.491   1.746   0.111  0.00  0.00    +0.002 A 
ATOM     11  C   UNL     1      -0.331   0.994   0.136  0.00  0.00    +0.020 A 
ATOM     12  C   UNL     1       0.901   1.622   0.133  0.00  0.00    +0.041 A 
ATOM     13  C   UNL     1       0.973   3.003   0.110  0.00  0.00    +0.024 A 
ATOM     14 CL   UNL     1       2.357   0.677   0.158  0.00  0.00    -0.084 Cl
ENDBRANCH   4   8
BRANCH   6  15
ATOM     15  N   UNL     1      -2.627   6.874   2.316  0.00  0.00    -0.329 N 
ATOM     16  H   UNL     1      -2.134   6.907   3.151  0.00  0.00    +0.145 HD
ATOM     17  H   UNL     1      -3.542   7.193   2.280  0.00  0.00    +0.145 HD
ENDBRANCH   6  15
BRANCH   5  18
ATOM     18  C   UNL     1      -0.154   5.756   2.528  0.00  0.00    +0.341 C 
ATOM     19  O   UNL     1       0.726   6.553   2.799  0.00  0.00    -0.245 OA
BRANCH  18  20
ATOM     20  O   UNL     1      -0.511   4.813   3.427  0.00  0.00    -0.465 OA
ATOM     21  C   UNL     1       0.184   4.810   4.676  0.00  0.00    +0.280 C 
ENDBRANCH  18  20
ENDBRANCH   5  18
BRANCH   3  22
ATOM     22  C   UNL     1      -0.104   5.667  -2.438  0.00  0.00    +0.099 C 
ATOM     23  N   UNL     1       0.433   5.583  -3.436  0.00  0.00    -0.191 NA
ENDBRANCH   3  22
TORSDOF 5
