REMARK  Name = ZINC35572353
REMARK  6 active torsions:
REMARK  status: ('A' for Active; 'I' for Inactive)
REMARK    1  A    between atoms: C_1  and  C_2
REMARK    2  A    between atoms: C_2  and  C_3
REMARK    3  A    between atoms: C_2  and  C_4
REMARK    4  A    between atoms: C_2  and  C_5
REMARK    5  A    between atoms: C_5  and  C_6
REMARK    6  A    between atoms: C_9  and  C_13
REMARK                            x       y       z     vdW  Elec       q    Type
REMARK                         _______ _______ _______ _____ _____    ______ ____
ROOT
ATOM      1  C   UNK     1       2.074  -0.074  -1.393  0.00  0.00    -0.010 C 
ATOM      2  N   UNK     1       2.645  -0.349  -2.746  0.00  0.00    +0.396 N 
ATOM      3  C   UNK     1       3.847   0.476  -2.966  0.00  0.00    +0.055 C 
ATOM      4  C   UNK     1       3.559   1.956  -2.602  0.00  0.00    +0.063 C 
ATOM      5  S   UNK     1       2.242   1.762  -1.327  0.00  0.00    -0.178 S 
ATOM      6  H   UNK     1       2.892  -1.325  -2.812  0.00  0.00    -0.083 HD
ATOM      7  H   UNK     1       1.956  -0.131  -3.450  0.00  0.00    -0.083 HD
ENDROOT
BRANCH   3   8
ATOM      8  C   UNK     1       4.253   0.390  -4.414  0.00  0.00    +0.343 C 
ATOM      9  O   UNK     1       3.408   0.211  -5.275  0.00  0.00    -0.248 OA
ATOM     10  O   UNK     1       5.427   0.499  -4.726  0.00  0.00    -0.248 OA
ENDBRANCH   3   8
BRANCH   1  11
ATOM     11  C   UNK     1       0.606  -0.499  -1.314  0.00  0.00    +0.001 C 
BRANCH  11  13
ATOM     12  C   UNK     1       0.015   1.373   0.232  0.00  0.00    +0.010 C 
ATOM     13  C   UNK     1       0.047  -0.147   0.066  0.00  0.00    -0.038 C 
ATOM     14  C   UNK     1       0.939  -0.760   1.149  0.00  0.00    +0.010 C 
ATOM     15  C   UNK     1      -1.372  -0.705   0.199  0.00  0.00    +0.010 C 
ENDBRANCH  11  13
ENDBRANCH   1  11
TORSDOF 3
