REMARK  Name = ZINC20611108
REMARK  6 active torsions:
REMARK  status: ('A' for Active; 'I' for Inactive)
REMARK    1  A    between atoms: C_1  and  O_2
REMARK    2  A    between atoms: O_2  and  C_3
REMARK    3  A    between atoms: C_8  and  C_9
REMARK    4  A    between atoms: C_9  and  N_10
REMARK    5  A    between atoms: C_15  and  C_32
REMARK    6  A    between atoms: C_32  and  C_33
REMARK                            x       y       z     vdW  Elec       q    Type
REMARK                         _______ _______ _______ _____ _____    ______ ____
ROOT
ATOM      1  N   UNL     1      -1.398  -2.912  -0.233  0.00  0.00    -0.237 N 
ATOM      2  C   UNL     1      -2.253  -2.027   0.292  0.00  0.00    +0.227 C 
ATOM      3  O   UNL     1      -1.944  -1.074   0.974  0.00  0.00    -0.275 OA
ATOM      4  C   UNL     1      -3.665  -2.401  -0.098  0.00  0.00    +0.107 C 
ATOM      5  C   UNL     1      -4.231  -1.330  -1.054  0.00  0.00    +0.076 C 
ATOM      6  N   UNL     1      -3.795  -1.759  -2.409  0.00  0.00    -0.295 NA
ATOM      7  C   UNL     1      -3.924  -3.228  -2.382  0.00  0.00    +0.136 C 
ATOM      8  C   UNL     1      -3.472  -3.674  -0.968  0.00  0.00    +0.122 C 
ATOM      9  C   UNL     1      -1.974  -3.877  -0.959  0.00  0.00    +0.229 C 
ATOM     10  O   UNL     1      -1.385  -4.776  -1.521  0.00  0.00    -0.275 OA
ATOM     11  C   UNL     1      -5.333  -3.664  -2.667  0.00  0.00    +0.003 A 
ATOM     12  C   UNL     1      -6.543  -3.417  -2.060  0.00  0.00    +0.008 A 
ATOM     13  C   UNL     1      -7.702  -3.975  -2.571  0.00  0.00    +0.000 A 
ATOM     14  C   UNL     1      -7.640  -4.782  -3.692  0.00  0.00    +0.002 A 
ATOM     15  C   UNL     1      -6.429  -5.032  -4.304  0.00  0.00    +0.023 A 
ATOM     16  C   UNL     1      -5.258  -4.474  -3.796  0.00  0.00    +0.039 A 
ATOM     17  N   UNL     1      -3.935  -4.577  -4.231  0.00  0.00    -0.283 N 
ATOM     18  C   UNL     1      -3.089  -3.873  -3.454  0.00  0.00    +0.243 C 
ATOM     19  O   UNL     1      -1.888  -3.777  -3.593  0.00  0.00    -0.273 OA
ATOM     20  H   UNL     1      -4.385  -1.358  -3.123  0.00  0.00    +0.124 HD
ATOM     21  H   UNL     1      -3.658  -5.094  -5.003  0.00  0.00    +0.155 HD
ENDROOT
BRANCH   1  22
ATOM     22  C   UNL     1       0.051  -2.828  -0.033  0.00  0.00    +0.155 C 
BRANCH  22  28
ATOM     23  C   UNL     1       0.606  -0.607  -1.056  0.00  0.00    +0.125 A 
ATOM     24  C   UNL     1       1.173   0.161  -2.063  0.00  0.00    +0.046 A 
ATOM     25  C   UNL     1       1.786  -0.455  -3.136  0.00  0.00    +0.004 A 
ATOM     26  C   UNL     1       1.836  -1.835  -3.208  0.00  0.00    +0.001 A 
ATOM     27  C   UNL     1       1.271  -2.602  -2.207  0.00  0.00    +0.009 A 
ATOM     28  C   UNL     1       0.661  -1.991  -1.128  0.00  0.00    +0.012 A 
BRANCH  23  30
ATOM     29  C   UNL     1      -0.017   1.425   0.010  0.00  0.00    +0.277 C 
ATOM     30  O   UNL     1       0.002  -0.004   0.002  0.00  0.00    -0.495 OA
ENDBRANCH  23  30
ENDBRANCH  22  28
ENDBRANCH   1  22
BRANCH   5  31
ATOM     31  C   UNL     1      -3.651   0.045  -0.716  0.00  0.00    +0.115 C 
BRANCH  31  32
ATOM     32  C   UNL     1      -4.307   1.092  -1.578  0.00  0.00    +0.212 C 
ATOM     33  O   UNL     1      -5.155   0.771  -2.383  0.00  0.00    -0.276 OA
ATOM     34  N   UNL     1      -3.952   2.386  -1.454  0.00  0.00    -0.329 N 
ATOM     35  H   UNL     1      -3.273   2.644  -0.810  0.00  0.00    +0.145 HD
ATOM     36  H   UNL     1      -4.374   3.061  -2.009  0.00  0.00    +0.145 HD
ENDBRANCH  31  32
ENDBRANCH   5  31
TORSDOF 5
