REMARK  Name = ZINC47007434
REMARK  6 active torsions:
REMARK  status: ('A' for Active; 'I' for Inactive)
REMARK    1  A    between atoms: C_1  and  C_2
REMARK    2  A    between atoms: C_3  and  C_8
REMARK    3  A    between atoms: N_6  and  C_7
REMARK    4  A    between atoms: C_8  and  C_10
REMARK    5  A    between atoms: C_8  and  N_11
REMARK    6  A    between atoms: N_14  and  N_15
REMARK                            x       y       z     vdW  Elec       q    Type
REMARK                         _______ _______ _______ _____ _____    ______ ____
ROOT
ATOM      1  N   UNL     1       0.478  -1.401  -3.398  0.00  0.00    -0.292 N 
ATOM      2  C   UNL     1       1.028  -1.105  -4.592  0.00  0.00    +0.316 C 
ATOM      3  O   UNL     1       1.123   0.054  -4.947  0.00  0.00    -0.251 OA
ATOM      4  N   UNL     1       1.473  -2.093  -5.393  0.00  0.00    -0.219 N 
ATOM      5  H   UNL     1       0.402  -2.326  -3.115  0.00  0.00    +0.151 HD
ATOM      6  H   UNL     1       1.869  -1.880  -6.253  0.00  0.00    +0.174 HD
ENDROOT
BRANCH   4   7
ATOM      7  N   UNL     1       1.363  -3.429  -4.984  0.00  0.00    -0.246 N 
ATOM      8  C   UNL     1       1.822  -4.449  -5.811  0.00  0.00    +0.155 A 
ATOM      9  C   UNL     1       1.705  -5.774  -5.401  0.00  0.00    +0.083 A 
ATOM     10  C   UNL     1       2.165  -6.780  -6.233  0.00  0.00    +0.046 A 
ATOM     11  C   UNL     1       2.729  -6.426  -7.452  0.00  0.00    +0.079 A 
ATOM     12  C   UNL     1       2.814  -5.089  -7.796  0.00  0.00    +0.150 A 
ATOM     13  N   UNL     1       2.361  -4.151  -6.983  0.00  0.00    -0.216 NA
ATOM     14 CL   UNL     1       3.518  -4.638  -9.317  0.00  0.00    -0.060 Cl
ATOM     15 CL   UNL     1       3.322  -7.648  -8.533  0.00  0.00    -0.080 Cl
ATOM     16 CL   UNL     1       0.991  -6.160  -3.866  0.00  0.00    -0.080 Cl
ATOM     17  H   UNL     1       0.967  -3.642  -4.125  0.00  0.00    +0.172 HD
ENDBRANCH   4   7
BRANCH   1  18
ATOM     18  C   UNL     1      -0.006  -0.327  -2.527  0.00  0.00    +0.105 C 
ATOM     19  C   UNL     1      -1.434   0.050  -2.927  0.00  0.00    +0.033 C 
BRANCH  18  22
ATOM     20  C   UNL     1      -0.018   1.503   0.010  0.00  0.00    +0.065 C 
ATOM     21  C   UNL     1       0.002  -0.004   0.002  0.00  0.00    +0.041 A 
ATOM     22  C   UNL     1       0.008  -0.796  -1.095  0.00  0.00    +0.013 A 
ATOM     23  C   UNL     1       0.028  -2.127  -0.666  0.00  0.00    +0.140 A 
ATOM     24  N   UNL     1       0.035  -2.134   0.643  0.00  0.00    -0.179 NA
ATOM     25  N   UNL     1       0.024  -0.805   1.088  0.00  0.00    -0.271 N 
ATOM     26  C   UNL     1       0.031  -0.364   2.485  0.00  0.00    +0.172 C 
ENDBRANCH  18  22
ENDBRANCH   1  18
TORSDOF 3
