REMARK  Name = ZINC63478744
REMARK  4 active torsions:
REMARK  status: ('A' for Active; 'I' for Inactive)
REMARK    1  A    between atoms: C_1  and  O_2
REMARK    2  A    between atoms: O_2  and  C_3
REMARK    3  A    between atoms: C_10  and  C_18
REMARK    4  A    between atoms: N_24  and  C_27
REMARK                            x       y       z     vdW  Elec       q    Type
REMARK                         _______ _______ _______ _____ _____    ______ ____
ROOT
ATOM      1  C   UNL     1       0.873  -0.331   1.328  0.00  0.00    +0.121 A 
ATOM      2  C   UNL     1       1.427   0.369   2.413  0.00  0.00    +0.047 A 
ATOM      3  C   UNL     1       2.013  -0.257   3.457  0.00  0.00    +0.029 A 
ATOM      4  C   UNL     1       2.087  -1.720   3.483  0.00  0.00    +0.043 A 
ATOM      5  N   UNL     1       2.572  -2.557   4.370  0.00  0.00    -0.376 N 
ATOM      6  C   UNL     1       2.460  -3.911   3.838  0.00  0.00    +0.128 C 
ATOM      7  C   UNL     1       1.685  -4.848   4.768  0.00  0.00    +0.121 C 
ATOM      8  N   UNL     1       1.375  -6.082   4.028  0.00  0.00    -0.307 NA
ATOM      9  C   UNL     1       0.433  -5.874   2.924  0.00  0.00    +0.086 C 
ATOM     10  C   UNL     1       1.072  -4.977   1.847  0.00  0.00    +0.048 C 
ATOM     11  C   UNL     1       1.648  -3.774   2.560  0.00  0.00    -0.035 C 
ATOM     12  C   UNL     1       1.494  -2.463   2.341  0.00  0.00    +0.003 A 
ATOM     13  C   UNL     1       0.880  -1.683   1.259  0.00  0.00    +0.055 A 
ATOM     14  H   UNL     1       2.219  -6.531   3.704  0.00  0.00    +0.123 HD
ATOM     15  H   UNL     1       2.943  -2.316   5.234  0.00  0.00    +0.160 HD
ENDROOT
BRANCH   7  16
ATOM     16  C   UNL     1       0.405  -4.183   5.206  0.00  0.00    +0.101 A 
ATOM     17  C   UNL     1       0.109  -4.038   6.573  0.00  0.00    +0.263 A 
ATOM     18  N   UNL     1      -1.040  -3.441   6.945  0.00  0.00    -0.274 N 
ATOM     19  H   UNL     1      -1.247  -3.339   7.887  0.00  0.00    +0.173 HD
ATOM     20  C   UNL     1      -1.903  -2.984   6.019  0.00  0.00    +0.337 A 
ATOM     21  O   UNL     1      -2.935  -2.448   6.375  0.00  0.00    -0.246 OA
ATOM     22  N   UNL     1      -1.641  -3.112   4.705  0.00  0.00    -0.227 N 
ATOM     23  C   UNL     1      -0.479  -3.710   4.283  0.00  0.00    +0.270 A 
ATOM     24  O   UNL     1      -0.217  -3.832   2.964  0.00  0.00    -0.267 OA
ATOM     25  O   UNL     1       0.887  -4.449   7.416  0.00  0.00    -0.267 OA
BRANCH  22  26
ATOM     26  C   UNL     1      -2.558  -2.627   3.762  0.00  0.00    +0.073 A 
ATOM     27  C   UNL     1      -2.453  -1.323   3.297  0.00  0.00    +0.028 A 
ATOM     28  C   UNL     1      -3.357  -0.848   2.367  0.00  0.00    +0.002 A 
ATOM     29  C   UNL     1      -4.366  -1.669   1.899  0.00  0.00    +0.002 A 
ATOM     30  C   UNL     1      -4.474  -2.968   2.360  0.00  0.00    +0.022 A 
ATOM     31  C   UNL     1      -3.569  -3.451   3.286  0.00  0.00    +0.065 A 
ATOM     32 CL   UNL     1      -3.701  -5.085   3.860  0.00  0.00    -0.081 Cl
ENDBRANCH  22  26
ENDBRANCH   7  16
BRANCH   1  34
ATOM     33  C   UNL     1       0.319   1.798   0.427  0.00  0.00    +0.277 C 
ATOM     34  O   UNL     1       0.305   0.374   0.314  0.00  0.00    -0.495 OA
ENDBRANCH   1  34
TORSDOF 3
