REMARK  Name = ZINC37370795
REMARK  6 active torsions:
REMARK  status: ('A' for Active; 'I' for Inactive)
REMARK    1  A    between atoms: C_1  and  C_2
REMARK    2  A    between atoms: C_7  and  N_12
REMARK    3  A    between atoms: C_9  and  C_11
REMARK    4  A    between atoms: N_12  and  S_13
REMARK    5  A    between atoms: S_13  and  C_16
REMARK    6  A    between atoms: C_20  and  C_21
REMARK                            x       y       z     vdW  Elec       q    Type
REMARK                         _______ _______ _______ _____ _____    ______ ____
ROOT
ATOM      1  S   UNL     1       2.332  -4.026   2.397  0.00  0.00    +0.060 S 
ATOM      2  O   UNL     1       2.856  -4.381   3.669  0.00  0.00    -0.153 OA
ATOM      3  O   UNL     1       1.441  -4.868   1.678  0.00  0.00    -0.153 OA
ENDROOT
BRANCH   1   4
ATOM      4  C   UNL     1       3.716  -3.741   1.344  0.00  0.00    +0.126 A 
ATOM      5  C   UNL     1       3.816  -4.311   0.100  0.00  0.00    +0.037 A 
ATOM      6  C   UNL     1       4.910  -4.049  -0.660  0.00  0.00    +0.048 A 
ATOM      7  S   UNL     1       5.836  -3.019   0.291  0.00  0.00    -0.088 S 
ATOM      8  C   UNL     1       4.772  -2.919   1.718  0.00  0.00    +0.127 A 
BRANCH   8   9
ATOM      9  C   UNL     1       4.957  -2.192   2.921  0.00  0.00    +0.395 C 
ATOM     10  O   UNL     1       4.058  -2.145   3.752  0.00  0.00    -0.240 OA
ATOM     11  O   UNL     1       6.015  -1.611   3.130  0.00  0.00    -0.240 OA
ENDBRANCH   8   9
ENDBRANCH   1   4
BRANCH   1  12
ATOM     12  N   UNL     1       1.558  -2.575   2.592  0.00  0.00    -0.187 NA
ATOM     13  H   UNL     1       1.522  -2.158   3.467  0.00  0.00    +0.148 HD
BRANCH  12  19
ATOM     14  C   UNL     1       0.575   1.794   0.498  0.00  0.00    +0.008 C 
ATOM     15  C   UNL     1       0.420   0.277   0.370  0.00  0.00    -0.010 C 
ATOM     16  C   UNL     1      -1.066  -0.083   0.333  0.00  0.00    +0.003 C 
ATOM     17  C   UNL     1      -1.220  -1.599   0.205  0.00  0.00    +0.002 C 
ATOM     18  C   UNL     1      -0.561  -2.282   1.405  0.00  0.00    +0.020 C 
ATOM     19  C   UNL     1       0.926  -1.922   1.443  0.00  0.00    +0.080 C 
ATOM     20  C   UNL     1       1.080  -0.405   1.570  0.00  0.00    +0.007 C 
ATOM     21  C   UNL     1       0.408   0.070   2.860  0.00  0.00    +0.009 C 
ENDBRANCH  12  19
ENDBRANCH   1  12
TORSDOF 4
