REMARK  Name = ZINC14095581
REMARK  5 active torsions:
REMARK  status: ('A' for Active; 'I' for Inactive)
REMARK    1  A    between atoms: C_1  and  C_2
REMARK    2  A    between atoms: C_2  and  C_4
REMARK    3  A    between atoms: C_2  and  N_14
REMARK    4  A    between atoms: N_10  and  C_11
REMARK    5  A    between atoms: N_10  and  C_12
REMARK                            x       y       z     vdW  Elec       q    Type
REMARK                         _______ _______ _______ _____ _____    ______ ____
ROOT
ATOM      1  C   UNL     1      -5.527   1.850   4.266  0.00  0.00    +0.032 C 
ATOM      2  C   UNL     1      -4.694   2.888   3.511  0.00  0.00    +0.122 C 
ENDROOT
BRANCH   2   3
ATOM      3  C   UNL     1      -4.155   2.276   2.244  0.00  0.00    +0.153 A 
ATOM      4  N   UNL     1      -4.963   2.058   1.222  0.00  0.00    -0.198 NA
ATOM      5  C   UNL     1      -4.491   1.517   0.101  0.00  0.00    +0.217 A 
ATOM      6  N   UNL     1      -3.205   1.196   0.012  0.00  0.00    -0.181 NA
ATOM      7  C   UNL     1      -2.395   1.416   1.042  0.00  0.00    +0.222 A 
ATOM      8  N   UNL     1      -2.876   1.952   2.161  0.00  0.00    -0.198 NA
ATOM      9  N   UNL     1      -1.059   1.083   0.954  0.00  0.00    -0.306 N 
ATOM     10  C   UNL     1      -0.532   0.488  -0.277  0.00  0.00    +0.132 C 
ATOM     11  C   UNL     1      -0.167   1.327   2.090  0.00  0.00    +0.132 C 
ATOM     12  N   UNL     1      -5.335   1.291  -0.966  0.00  0.00    -0.327 N 
ATOM     13  H   UNL     1      -4.944   0.844  -1.892  0.00  0.00    +0.145 HD
ATOM     14  H   UNL     1      -6.400   1.558  -0.891  0.00  0.00    +0.145 HD
ENDBRANCH   2   3
BRANCH   2  15
ATOM     15  N   UNL     1      -5.538   4.043   3.176  0.00  0.00    -0.288 NA
ATOM     16  C   UNL     1      -4.766   5.069   2.456  0.00  0.00    +0.090 C 
ATOM     17  C   UNL     1      -5.746   6.055   1.820  0.00  0.00    +0.051 C 
ATOM     18  C   UNL     1      -6.738   6.531   2.850  0.00  0.00    -0.042 A 
ATOM     19  C   UNL     1      -7.476   7.673   2.579  0.00  0.00    +0.004 A 
ATOM     20  C   UNL     1      -8.402   8.139   3.491  0.00  0.00    +0.000 A 
ATOM     21  C   UNL     1      -8.594   7.462   4.681  0.00  0.00    +0.000 A 
ATOM     22  C   UNL     1      -7.859   6.326   4.953  0.00  0.00    +0.005 A 
ATOM     23  C   UNL     1      -6.927   5.858   4.038  0.00  0.00    -0.030 A 
ATOM     24  C   UNL     1      -6.146   4.617   4.381  0.00  0.00    +0.120 C 
ENDBRANCH   2  15
TORSDOF 2
