REMARK  Name = ZINC01168896
REMARK  3 active torsions:
REMARK  status: ('A' for Active; 'I' for Inactive)
REMARK    1  A    between atoms: C_1  and  S_2
REMARK    2  A    between atoms: S_2  and  C_3
REMARK    3  A    between atoms: C_16  and  C_19
REMARK                            x       y       z     vdW  Elec       q    Type
REMARK                         _______ _______ _______ _____ _____    ______ ____
ROOT
ATOM      1  C   UNL     1       1.171  -0.639  -0.009  0.00  0.00    +0.212 A 
ATOM      2  N   UNL     1       0.002  -0.004   0.002  0.00  0.00    -0.184 NA
ATOM      3  C   UNL     1      -0.016   1.318   0.009  0.00  0.00    +0.248 A 
ATOM      4  C   UNL     1       1.215   2.014   0.001  0.00  0.00    +0.156 A 
ATOM      5  N   UNL     1       2.343   1.321  -0.006  0.00  0.00    -0.141 NA
ATOM      6  N   UNL     1       2.315   0.033  -0.011  0.00  0.00    -0.122 NA
ATOM      7  C   UNL     1       1.218   3.492  -0.002  0.00  0.00    +0.029 A 
ATOM      8  C   UNL     1       2.023   4.220   0.864  0.00  0.00    +0.027 A 
ATOM      9  C   UNL     1       2.007   5.601   0.818  0.00  0.00    +0.019 A 
ATOM     10  C   UNL     1       1.195   6.263  -0.088  0.00  0.00    +0.017 A 
ATOM     11  C   UNL     1       0.385   5.549  -0.953  0.00  0.00    +0.025 A 
ATOM     12  C   UNL     1       0.384   4.167  -0.913  0.00  0.00    +0.040 A 
ATOM     13  N   UNL     1      -0.443   3.415  -1.754  0.00  0.00    -0.304 N 
ATOM     14  C   UNL     1      -1.560   2.683  -1.167  0.00  0.00    +0.312 C 
ATOM     15  O   UNL     1      -1.181   2.007   0.030  0.00  0.00    -0.447 OA
ATOM     16 BR   UNL     1       3.100   6.594   1.999  0.00  0.00    -0.050 Br
ATOM     17  H   UNL     1      -0.277   3.382  -2.709  0.00  0.00    +0.150 HD
ENDROOT
BRANCH  14  18
ATOM     18  C   UNL     1      -2.671   3.651  -0.852  0.00  0.00    +0.100 A 
ATOM     19  C   UNL     1      -3.526   3.391   0.203  0.00  0.00    +0.029 A 
ATOM     20  C   UNL     1      -4.541   4.291   0.488  0.00  0.00    +0.003 A 
ATOM     21  C   UNL     1      -4.666   5.419  -0.309  0.00  0.00    +0.020 A 
ATOM     22  C   UNL     1      -3.777   5.610  -1.350  0.00  0.00    +0.111 A 
ATOM     23  N   UNL     1      -2.820   4.734  -1.589  0.00  0.00    -0.254 NA
ENDBRANCH  14  18
BRANCH   1  25
ATOM     24  C   UNL     1       2.988  -2.685  -0.031  0.00  0.00    +0.093 C 
ATOM     25  S   UNL     1       1.200  -2.401  -0.019  0.00  0.00    -0.088 S 
ENDBRANCH   1  25
TORSDOF 2
