REMARK  Name = ZINC44670754
REMARK  12 active torsions:
REMARK  status: ('A' for Active; 'I' for Inactive)
REMARK    1  A    between atoms: C_1  and  C_2
REMARK    2  A    between atoms: C_2  and  C_3
REMARK    3  A    between atoms: C_16  and  O_35
REMARK    4  A    between atoms: N_19  and  C_34
REMARK    5  A    between atoms: C_22  and  C_29
REMARK    6  A    between atoms: C_22  and  O_33
REMARK    7  A    between atoms: C_23  and  O_25
REMARK    8  A    between atoms: O_25  and  C_26
REMARK    9  A    between atoms: C_26  and  C_28
REMARK   10  A    between atoms: C_29  and  O_31
REMARK   11  A    between atoms: O_31  and  C_32
REMARK   12  A    between atoms: O_35  and  C_36
REMARK                            x       y       z     vdW  Elec       q    Type
REMARK                         _______ _______ _______ _____ _____    ______ ____
ROOT
ATOM      1  C   UNL     1      -1.418  -0.531   0.138  0.00  0.00    +0.018 C 
ATOM      2  C   UNL     1      -1.883   0.135   1.391  0.00  0.00    -0.024 C 
ATOM      3  C   UNL     1      -1.628  -0.464   2.526  0.00  0.00    -0.049 C 
ATOM      4  C   UNL     1      -0.990  -1.810   2.646  0.00  0.00    -0.051 C 
ATOM      5  N   UNL     1      -1.251  -2.678   1.540  0.00  0.00    +0.385 N 
ATOM      6  C   UNL     1      -1.489  -2.021   0.259  0.00  0.00    -0.042 C 
ATOM      7  C   UNL     1      -0.632  -2.727  -0.786  0.00  0.00    +0.007 C 
ATOM      8  C   UNL     1      -0.667  -4.168  -0.229  0.00  0.00    -0.007 C 
ATOM      9  C   UNL     1      -0.390  -3.845   1.283  0.00  0.00    -0.077 C 
ATOM     10  C   UNL     1       0.812  -2.416  -0.978  0.00  0.00    -0.020 A 
ATOM     11  C   UNL     1       1.855  -2.232  -0.092  0.00  0.00    +0.009 A 
ATOM     12  C   UNL     1       3.108  -1.935  -0.609  0.00  0.00    +0.046 A 
ATOM     13  C   UNL     1       3.318  -1.833  -1.974  0.00  0.00    +0.122 A 
ATOM     14  C   UNL     1       2.288  -2.050  -2.882  0.00  0.00    +0.069 A 
ATOM     15  C   UNL     1       1.035  -2.369  -2.368  0.00  0.00    +0.037 A 
ATOM     16  N   UNL     1      -0.119  -2.724  -3.072  0.00  0.00    -0.325 N 
ATOM     17  C   UNL     1      -1.261  -2.459  -2.146  0.00  0.00    +0.128 C 
ATOM     18  C   UNL     1      -1.627  -0.987  -2.345  0.00  0.00    +0.219 C 
ATOM     19  C   UNL     1      -2.137  -0.188  -1.155  0.00  0.00    +0.229 C 
ATOM     20  C   UNL     1      -0.176  -3.266  -4.440  0.00  0.00    +0.129 C 
ATOM     21  H   UNL     1      -2.162  -3.091   1.760  0.00  0.00    -0.081 HD
ENDROOT
BRANCH   1  23
ATOM     22  C   UNL     1      -0.014   1.525   0.054  0.00  0.00    +0.005 C 
ATOM     23  C   UNL     1       0.002  -0.004   0.002  0.00  0.00    +0.010 C 
ENDBRANCH   1  23
BRANCH  18  24
ATOM     24  C   UNL     1      -2.733  -0.945  -3.384  0.00  0.00    +0.345 C 
ATOM     25  O   UNL     1      -3.449  -1.906  -3.544  0.00  0.00    -0.247 OA
BRANCH  24  26
ATOM     26  O   UNL     1      -2.917   0.159  -4.125  0.00  0.00    -0.466 OA
ATOM     27  C   UNL     1      -3.977   0.128  -5.083  0.00  0.00    +0.280 C 
ENDBRANCH  24  26
ENDBRANCH  18  24
BRANCH  18  28
ATOM     28  O   UNL     1      -0.515  -0.295  -2.917  0.00  0.00    -0.373 OA
ATOM     29  H   UNL     1      -0.674   0.646  -3.072  0.00  0.00    +0.211 HD
ENDBRANCH  18  28
BRANCH  13  30
ATOM     30  O   UNL     1       4.556  -1.512  -2.432  0.00  0.00    -0.495 OA
ATOM     31  C   UNL     1       5.574  -1.297  -1.452  0.00  0.00    +0.277 C 
ENDBRANCH  13  30
BRANCH  19  32
ATOM     32  O   UNL     1      -1.967   1.209  -1.422  0.00  0.00    -0.457 OA
BRANCH  32  33
ATOM     33  C   UNL     1      -2.952   1.826  -2.094  0.00  0.00    +0.304 C 
ATOM     34  O   UNL     1      -3.927   1.203  -2.442  0.00  0.00    -0.251 OA
ATOM     35  C   UNL     1      -2.844   3.295  -2.412  0.00  0.00    +0.136 C 
ENDBRANCH  32  33
ENDBRANCH  19  32
TORSDOF 7
