REMARK  Name = ZINC20780728
REMARK  11 active torsions:
REMARK  status: ('A' for Active; 'I' for Inactive)
REMARK    1  A    between atoms: C_1  and  C_2
REMARK    2  A    between atoms: C_2  and  N_3
REMARK    3  A    between atoms: N_6  and  C_9
REMARK    4  A    between atoms: N_12  and  C_15
REMARK    5  A    between atoms: C_15  and  C_16
REMARK    6  A    between atoms: C_19  and  S_25
REMARK    7  A    between atoms: N_20  and  C_21
REMARK    8  A    between atoms: C_21  and  C_22
REMARK    9  A    between atoms: C_22  and  C_23
REMARK   10  A    between atoms: C_22  and  C_24
REMARK   11  A    between atoms: S_25  and  C_28
REMARK                            x       y       z     vdW  Elec       q    Type
REMARK                         _______ _______ _______ _____ _____    ______ ____
ROOT
ATOM      1  C   UNL     1      -4.669  -2.388  -0.433  0.00  0.00    +0.053 C 
ATOM      2  C   UNL     1      -5.483  -2.088   0.829  0.00  0.00    +0.000 C 
ATOM      3  C   UNL     1      -6.897  -2.648   0.663  0.00  0.00    -0.077 C 
ATOM      4  N   UNL     1      -6.831  -4.100   0.454  0.00  0.00    +0.383 N 
ATOM      5  C   UNL     1      -6.114  -4.392  -0.793  0.00  0.00    -0.077 C 
ATOM      6  C   UNL     1      -4.670  -3.898  -0.682  0.00  0.00    +0.000 C 
ATOM      7  H   UNL     1      -6.346  -4.528   1.228  0.00  0.00    -0.081 HD
ENDROOT
BRANCH   1  11
ATOM      8  N   UNL     1      -1.179  -0.635   1.184  0.00  0.00    +0.381 N 
ATOM      9  C   UNL     1      -1.784  -0.006   0.002  0.00  0.00    -0.063 C 
ATOM     10  C   UNL     1      -3.240  -0.456  -0.127  0.00  0.00    +0.066 C 
ATOM     11  N   UNL     1      -3.289  -1.920  -0.250  0.00  0.00    -0.303 NA
ATOM     12  C   UNL     1      -2.665  -2.563   0.915  0.00  0.00    +0.066 C 
ATOM     13  C   UNL     1      -1.213  -2.096   1.035  0.00  0.00    -0.063 C 
ATOM     14  H   UNL     1      -1.698  -0.369   2.008  0.00  0.00    -0.082 HD
BRANCH   8  16
ATOM     15  C   UNL     1       0.243   1.316   1.597  0.00  0.00    -0.017 C 
ATOM     16  C   UNL     1       0.214  -0.188   1.317  0.00  0.00    -0.082 C 
ENDBRANCH   8  16
ENDBRANCH   1  11
BRANCH   4  17
ATOM     17  C   UNL     1      -8.193  -4.644   0.373  0.00  0.00    -0.023 C 
BRANCH  17  18
ATOM     18  C   UNL     1      -8.130  -6.148   0.313  0.00  0.00    +0.023 A 
ATOM     19  C   UNL     1      -8.147  -6.909  -0.798  0.00  0.00    +0.133 A 
ATOM     20  N   UNL     1      -8.074  -8.194  -0.422  0.00  0.00    -0.220 NA
ATOM     21  C   UNL     1      -8.013  -8.259   0.880  0.00  0.00    +0.251 A 
ATOM     22  N   UNL     1      -8.040  -7.004   1.377  0.00  0.00    -0.315 N 
BRANCH  21  23
ATOM     23  S   UNL     1      -7.907  -9.739   1.830  0.00  0.00    +0.027 S 
ATOM     24  O   UNL     1      -8.470  -9.401   3.091  0.00  0.00    -0.167 OA
ATOM     25  O   UNL     1      -8.505 -10.738   1.015  0.00  0.00    -0.167 OA
ATOM     26  C   UNL     1      -6.129 -10.055   2.004  0.00  0.00    +0.204 C 
ENDBRANCH  21  23
BRANCH  22  27
ATOM     27  C   UNL     1      -7.984  -6.629   2.792  0.00  0.00    +0.127 C 
BRANCH  27  28
ATOM     28  C   UNL     1      -9.391  -6.687   3.391  0.00  0.00    +0.003 C 
ATOM     29  C   UNL     1      -9.316  -6.426   4.896  0.00  0.00    +0.009 C 
ATOM     30  C   UNL     1     -10.270  -5.622   2.731  0.00  0.00    +0.009 C 
ENDBRANCH  27  28
ENDBRANCH  22  27
ENDBRANCH  17  18
ENDBRANCH   4  17
TORSDOF 7
