REMARK  Name = ZINC44243739
REMARK  4 active torsions:
REMARK  status: ('A' for Active; 'I' for Inactive)
REMARK    1  A    between atoms: C_1  and  C_2
REMARK    2  A    between atoms: C_8  and  N_10
REMARK    3  A    between atoms: N_10  and  S_11
REMARK    4  A    between atoms: S_11  and  C_14
REMARK                            x       y       z     vdW  Elec       q    Type
REMARK                         _______ _______ _______ _____ _____    ______ ____
ROOT
ATOM      1  S   UNL     1       0.932   0.360   3.795  0.00  0.00    +0.060 S 
ATOM      2  O   UNL     1      -0.003   0.801   4.770  0.00  0.00    -0.153 OA
ATOM      3  O   UNL     1       1.827  -0.718   4.031  0.00  0.00    -0.153 OA
ENDROOT
BRANCH   1   4
ATOM      4  C   UNL     1       1.922   1.756   3.379  0.00  0.00    +0.124 A 
ATOM      5  C   UNL     1       3.194   1.583   2.853  0.00  0.00    +0.046 A 
ATOM      6  C   UNL     1       3.938   2.712   2.541  0.00  0.00    +0.038 A 
ATOM      7  C   UNL     1       3.390   3.962   2.763  0.00  0.00    +0.126 A 
ATOM      8  N   UNL     1       2.177   4.088   3.264  0.00  0.00    -0.260 NA
ATOM      9  C   UNL     1       1.440   3.038   3.568  0.00  0.00    +0.139 A 
ATOM     10 BR   UNL     1       5.678   2.542   1.821  0.00  0.00    -0.049 Br
ENDBRANCH   1   4
BRANCH   1  11
ATOM     11  N   UNL     1       0.056  -0.038   2.447  0.00  0.00    -0.187 NA
ATOM     12  H   UNL     1      -0.910   0.041   2.455  0.00  0.00    +0.148 HD
BRANCH  11  19
ATOM     13  C   UNL     1      -0.019   1.526   0.010  0.00  0.00    +0.009 C 
ATOM     14  C   UNL     1       0.002  -0.004   0.002  0.00  0.00    +0.005 C 
ATOM     15  C   UNL     1      -1.433  -0.534   0.013  0.00  0.00    +0.005 C 
ATOM     16  C   UNL     1      -1.413  -2.063   0.004  0.00  0.00    +0.000 C 
ATOM     17  C   UNL     1      -0.673  -2.570   1.244  0.00  0.00    +0.002 C 
ATOM     18  C   UNL     1       0.763  -2.041   1.233  0.00  0.00    +0.020 C 
ATOM     19  C   UNL     1       0.742  -0.511   1.242  0.00  0.00    +0.079 C 
ENDBRANCH  11  19
ENDBRANCH   1  11
TORSDOF 3
