REMARK  Name = ZINC41089684
REMARK  7 active torsions:
REMARK  status: ('A' for Active; 'I' for Inactive)
REMARK    1  A    between atoms: C_1  and  C_2
REMARK    2  A    between atoms: C_7  and  N_8
REMARK    3  A    between atoms: N_11  and  C_12
REMARK    4  A    between atoms: C_17  and  S_18
REMARK    5  A    between atoms: S_18  and  C_19
REMARK    6  A    between atoms: C_19  and  C_20
REMARK    7  A    between atoms: C_28  and  C_30
REMARK                            x       y       z     vdW  Elec       q    Type
REMARK                         _______ _______ _______ _____ _____    ______ ____
ROOT
ATOM      1  C   UNL     1      -0.111  -0.817   5.905  0.00  0.00    +0.048 A 
ATOM      2  C   UNL     1      -0.090  -2.204   5.905  0.00  0.00    +0.024 A 
ATOM      3  C   UNL     1      -0.074  -2.895   7.102  0.00  0.00    +0.002 A 
ATOM      4  C   UNL     1      -0.079  -2.208   8.302  0.00  0.00    +0.001 A 
ATOM      5  C   UNL     1      -0.100  -0.826   8.312  0.00  0.00    +0.016 A 
ATOM      6  C   UNL     1      -0.111  -0.124   7.115  0.00  0.00    +0.029 A 
ENDROOT
BRANCH   1  10
ATOM      7  N   UNL     1       0.599   0.122   2.486  0.00  0.00    -0.269 N 
ATOM      8  C   UNL     1       0.539  -0.597   3.625  0.00  0.00    +0.308 C 
ATOM      9  O   UNL     1       1.087  -1.681   3.689  0.00  0.00    -0.252 OA
ATOM     10  N   UNL     1      -0.128  -0.115   4.692  0.00  0.00    -0.268 N 
ATOM     11  H   UNL     1       0.219   1.014   2.455  0.00  0.00    +0.156 HD
ATOM     12  H   UNL     1      -0.619   0.719   4.621  0.00  0.00    +0.156 HD
BRANCH   7  19
ATOM     13  C   UNL     1      -0.488   0.774  -0.061  0.00  0.00    +0.045 C 
ATOM     14  C   UNL     1       0.713  -0.125   0.087  0.00  0.00    -0.029 A 
ATOM     15  C   UNL     1       1.322  -0.655  -1.034  0.00  0.00    +0.005 A 
ATOM     16  C   UNL     1       2.423  -1.480  -0.899  0.00  0.00    +0.000 A 
ATOM     17  C   UNL     1       2.918  -1.778   0.357  0.00  0.00    +0.002 A 
ATOM     18  C   UNL     1       2.313  -1.252   1.482  0.00  0.00    +0.023 A 
ATOM     19  C   UNL     1       1.211  -0.418   1.349  0.00  0.00    +0.038 A 
ENDBRANCH   7  19
ENDBRANCH   1  10
BRANCH   6  20
ATOM     20  S   UNL     1      -0.131   1.638   7.125  0.00  0.00    -0.117 S 
BRANCH  20  21
ATOM     21  C   UNL     1      -0.124   2.068   8.887  0.00  0.00    +0.130 C 
BRANCH  21  22
ATOM     22  C   UNL     1      -0.140   3.567   9.038  0.00  0.00    +0.059 A 
ATOM     23  C   UNL     1      -1.298   4.207   9.429  0.00  0.00    +0.097 A 
ATOM     24  C   UNL     1      -1.286   5.604   9.562  0.00  0.00    +0.287 A 
ATOM     25  O   UNL     1      -2.292   6.204   9.907  0.00  0.00    -0.265 OA
ATOM     26  N   UNL     1      -0.143   6.270   9.304  0.00  0.00    -0.119 N 
ATOM     27  C   UNL     1       0.972   5.592   8.922  0.00  0.00    +0.177 A 
ATOM     28  N   UNL     1       0.959   4.268   8.801  0.00  0.00    -0.230 NA
ATOM     29  C   UNL     1       1.990   6.552   8.727  0.00  0.00    +0.093 A 
ATOM     30  C   UNL     1       1.481   7.769   8.990  0.00  0.00    +0.134 A 
ATOM     31  O   UNL     1       0.194   7.644   9.343  0.00  0.00    -0.373 OA
ATOM     32  C   UNL     1       2.239   9.069   8.903  0.00  0.00    +0.089 C 
ENDBRANCH  21  22
ENDBRANCH  20  21
ENDBRANCH   6  20
TORSDOF 5
