REMARK  Name = ZINC06300277
REMARK  6 active torsions:
REMARK  status: ('A' for Active; 'I' for Inactive)
REMARK    1  A    between atoms: C_1  and  C_2
REMARK    2  A    between atoms: C_4  and  C_8
REMARK    3  A    between atoms: C_5  and  C_7
REMARK    4  A    between atoms: C_15  and  N_29
REMARK    5  A    between atoms: C_16  and  C_27
REMARK    6  A    between atoms: C_17  and  C_19
REMARK                            x       y       z     vdW  Elec       q    Type
REMARK                         _______ _______ _______ _____ _____    ______ ____
ROOT
ATOM      1  C   UNL     1      -1.848  -3.149  -0.042  0.00  0.00    +0.101 A 
ATOM      2  C   UNL     1      -3.217  -2.892   0.077  0.00  0.00    +0.054 A 
ATOM      3  C   UNL     1      -3.876  -4.087   0.040  0.00  0.00    +0.223 A 
ATOM      4  N   UNL     1      -2.952  -5.061  -0.096  0.00  0.00    -0.246 N 
ATOM      5  H   UNL     1      -3.131  -6.013  -0.151  0.00  0.00    +0.192 HD
ATOM      6  N   UNL     1      -1.688  -4.454  -0.152  0.00  0.00    -0.171 NA
ATOM      7  O   UNL     1      -5.226  -4.182   0.130  0.00  0.00    -0.423 OA
ATOM      8  C   UNL     1      -5.943  -3.049  -0.017  0.00  0.00    +0.200 C 
ATOM      9  C   UNL     1      -5.405  -1.809   0.015  0.00  0.00    +0.098 C 
ATOM     10  C   UNL     1      -3.930  -1.573   0.226  0.00  0.00    +0.102 C 
ENDROOT
BRANCH  10  11
ATOM     11  C   UNL     1      -3.696  -1.021   1.608  0.00  0.00    -0.033 A 
ATOM     12  C   UNL     1      -4.037  -1.770   2.719  0.00  0.00    +0.006 A 
ATOM     13  C   UNL     1      -3.822  -1.265   3.987  0.00  0.00    +0.022 A 
ATOM     14  C   UNL     1      -3.266  -0.008   4.146  0.00  0.00    +0.059 A 
ATOM     15  C   UNL     1      -2.924   0.742   3.034  0.00  0.00    +0.060 A 
ATOM     16  C   UNL     1      -3.135   0.233   1.765  0.00  0.00    +0.026 A 
ATOM     17 CL   UNL     1      -2.227   2.320   3.231  0.00  0.00    -0.082 Cl
ATOM     18 CL   UNL     1      -2.998   0.628   5.739  0.00  0.00    -0.082 Cl
ENDBRANCH  10  11
BRANCH   1  22
ATOM     19  C   UNL     1       0.265   1.203  -1.587  0.00  0.00    +0.051 C 
ATOM     20  C   UNL     1       0.141  -0.091  -0.826  0.00  0.00    -0.012 A 
ATOM     21  C   UNL     1      -0.865  -0.995  -0.845  0.00  0.00    +0.021 A 
ATOM     22  C   UNL     1      -0.766  -2.133  -0.051  0.00  0.00    +0.013 A 
ATOM     23  C   UNL     1       0.349  -2.294   0.722  0.00  0.00    -0.004 A 
ATOM     24  S   UNL     1       1.288  -0.827   0.327  0.00  0.00    -0.098 S 
ATOM     25  C   UNL     1       0.700  -3.421   1.659  0.00  0.00    +0.052 C 
ENDBRANCH   1  22
BRANCH   8  26
ATOM     26  N   UNL     1      -7.297  -3.161  -0.209  0.00  0.00    -0.328 N 
ATOM     27  H   UNL     1      -7.712  -4.037  -0.237  0.00  0.00    +0.145 HD
ATOM     28  H   UNL     1      -7.839  -2.364  -0.318  0.00  0.00    +0.145 HD
ENDBRANCH   8  26
BRANCH   9  29
ATOM     29  C   UNL     1      -6.267  -0.679  -0.159  0.00  0.00    +0.101 C 
ATOM     30  N   UNL     1      -6.950   0.218  -0.296  0.00  0.00    -0.191 NA
ENDBRANCH   9  29
TORSDOF 4
