REMARK  Name = ZINC15959376
REMARK  4 active torsions:
REMARK  status: ('A' for Active; 'I' for Inactive)
REMARK    1  A    between atoms: C_22  and  C_25
REMARK    2  A    between atoms: N_27  and  C_28
REMARK    3  A    between atoms: C_28  and  C_29
REMARK    4  A    between atoms: C_29  and  C_30
REMARK                            x       y       z     vdW  Elec       q    Type
REMARK                         _______ _______ _______ _____ _____    ______ ____
ROOT
ATOM      1  C   UNL     1      -2.197   4.944   4.135  0.00  0.00    +0.001 A 
ATOM      2  C   UNL     1      -2.550   6.110   3.476  0.00  0.00    +0.002 A 
ATOM      3  C   UNL     1      -2.455   6.240   2.101  0.00  0.00    +0.026 A 
ATOM      4  C   UNL     1      -1.984   5.134   1.395  0.00  0.00    +0.047 A 
ATOM      5  C   UNL     1      -1.625   3.944   2.075  0.00  0.00    +0.003 A 
ATOM      6  C   UNL     1      -1.730   3.840   3.466  0.00  0.00    +0.010 A 
ATOM      7  C   UNL     1      -1.184   3.010   1.054  0.00  0.00    -0.015 A 
ATOM      8  C   UNL     1      -1.284   3.657  -0.129  0.00  0.00    +0.046 A 
ATOM      9  N   UNL     1      -1.769   4.922   0.064  0.00  0.00    -0.356 N 
ATOM     10  H   UNL     1      -1.934   5.570  -0.638  0.00  0.00    +0.166 HD
ATOM     11  C   UNL     1      -0.900   3.026  -1.445  0.00  0.00    +0.155 C 
ATOM     12  C   UNL     1      -1.968   3.116  -2.482  0.00  0.00    -0.009 A 
ATOM     13  C   UNL     1      -2.650   4.188  -3.015  0.00  0.00    +0.006 A 
ATOM     14  C   UNL     1      -3.593   3.910  -3.999  0.00  0.00    +0.000 A 
ATOM     15  C   UNL     1      -3.841   2.621  -4.428  0.00  0.00    +0.001 A 
ATOM     16  C   UNL     1      -3.168   1.531  -3.897  0.00  0.00    +0.013 A 
ATOM     17  C   UNL     1      -2.223   1.796  -2.903  0.00  0.00    +0.042 A 
ATOM     18  C   UNL     1      -1.379   0.888  -2.119  0.00  0.00    +0.248 C 
ATOM     19  O   UNL     1      -1.277  -0.309  -2.304  0.00  0.00    -0.270 OA
ATOM     20  N   UNL     1      -0.737   1.579  -1.168  0.00  0.00    -0.273 N 
ATOM     21  C   UNL     1      -0.013   1.086   0.008  0.00  0.00    +0.167 C 
ATOM     22  C   UNL     1      -0.748   1.589   1.259  0.00  0.00    +0.069 C 
ENDROOT
BRANCH  21  23
ATOM     23  C   UNL     1       1.398   1.615  -0.003  0.00  0.00    +0.234 C 
ATOM     24  O   UNL     1       1.773   2.325  -0.912  0.00  0.00    -0.274 OA
ATOM     25  N   UNL     1       2.244   1.300   0.999  0.00  0.00    -0.313 N 
ATOM     26  H   UNL     1       1.944   0.733   1.726  0.00  0.00    +0.149 HD
BRANCH  25  27
ATOM     27  C   UNL     1       3.615   1.815   0.988  0.00  0.00    +0.108 C 
BRANCH  27  28
ATOM     28  C   UNL     1       4.358   1.312   2.228  0.00  0.00    +0.049 C 
BRANCH  28  29
ATOM     29  C   UNL     1       5.769   1.842   2.217  0.00  0.00    -0.072 C 
ATOM     30  C   UNL     1       6.013   2.931   2.872  0.00  0.00    -0.028 C 
ATOM     31  C   UNL     1       7.364   3.581   2.950  0.00  0.00    +0.027 C 
ATOM     32  C   UNL     1       8.451   2.593   2.521  0.00  0.00    +0.004 C 
ATOM     33  C   UNL     1       8.029   1.955   1.191  0.00  0.00    +0.005 C 
ATOM     34  C   UNL     1       6.802   1.077   1.443  0.00  0.00    +0.030 C 
ENDBRANCH  28  29
ENDBRANCH  27  28
ENDBRANCH  25  27
ENDBRANCH  21  23
TORSDOF 4
