REMARK  Name = ZINC05728509
REMARK  7 active torsions:
REMARK  status: ('A' for Active; 'I' for Inactive)
REMARK    1  A    between atoms: C_1  and  C_2
REMARK    2  A    between atoms: C_9  and  N_30
REMARK    3  A    between atoms: C_10  and  C_28
REMARK    4  A    between atoms: C_11  and  C_13
REMARK    5  A    between atoms: C_16  and  C_18
REMARK    6  A    between atoms: C_18  and  O_19
REMARK    7  A    between atoms: O_19  and  C_20
REMARK                            x       y       z     vdW  Elec       q    Type
REMARK                         _______ _______ _______ _____ _____    ______ ____
ROOT
ATOM      1  C   UNL     1      -0.636   6.551  -0.695  0.00  0.00    +0.068 C 
ATOM      2  C   UNL     1       0.328   5.398  -0.585  0.00  0.00    +0.068 A 
ATOM      3  C   UNL     1      -0.003   4.087  -0.269  0.00  0.00    +0.052 A 
ATOM      4  C   UNL     1       1.147   3.348  -0.270  0.00  0.00    +0.223 A 
ATOM      5  N   UNL     1       2.160   4.175  -0.576  0.00  0.00    -0.246 N 
ATOM      6  H   UNL     1       3.125   3.921  -0.652  0.00  0.00    +0.192 HD
ATOM      7  N   UNL     1       1.625   5.457  -0.771  0.00  0.00    -0.176 NA
ATOM      8  O   UNL     1       1.164   2.019   0.002  0.00  0.00    -0.423 OA
ATOM      9  C   UNL     1      -0.017   1.369   0.010  0.00  0.00    +0.201 C 
ATOM     10  C   UNL     1      -1.217   1.988   0.019  0.00  0.00    +0.101 C 
ATOM     11  C   UNL     1      -1.352   3.491   0.038  0.00  0.00    +0.137 C 
ENDROOT
BRANCH  11  12
ATOM     12  C   UNL     1      -1.813   3.948   1.397  0.00  0.00    +0.118 A 
ATOM     13  C   UNL     1      -2.931   4.652   1.653  0.00  0.00    +0.046 A 
ATOM     14  C   UNL     1      -2.973   4.860   3.051  0.00  0.00    +0.048 A 
ATOM     15  C   UNL     1      -1.873   4.279   3.565  0.00  0.00    +0.142 A 
ATOM     16  O   UNL     1      -1.175   3.728   2.558  0.00  0.00    -0.460 OA
BRANCH  15  17
ATOM     17  C   UNL     1      -1.491   4.251   5.022  0.00  0.00    +0.303 C 
BRANCH  17  18
ATOM     18  O   UNL     1      -2.052   3.091   5.640  0.00  0.00    -0.483 OA
BRANCH  18  19
ATOM     19  C   UNL     1      -1.800   2.914   6.964  0.00  0.00    +0.140 A 
ATOM     20  C   UNL     1      -1.028   3.837   7.654  0.00  0.00    +0.050 A 
ATOM     21  C   UNL     1      -0.772   3.656   8.999  0.00  0.00    +0.042 A 
ATOM     22  C   UNL     1      -1.286   2.553   9.660  0.00  0.00    +0.125 A 
ATOM     23  C   UNL     1      -2.056   1.629   8.974  0.00  0.00    +0.062 A 
ATOM     24  C   UNL     1      -2.319   1.811   7.629  0.00  0.00    +0.085 A 
ATOM     25 CL   UNL     1      -3.291   0.658   6.770  0.00  0.00    -0.080 Cl
ATOM     26  F   UNL     1      -1.035   2.377  10.976  0.00  0.00    -0.205 F 
ENDBRANCH  18  19
ENDBRANCH  17  18
ENDBRANCH  15  17
ENDBRANCH  11  12
BRANCH   9  27
ATOM     27  N   UNL     1       0.002  -0.004   0.002  0.00  0.00    -0.328 N 
ATOM     28  H   UNL     1       0.849  -0.478  -0.009  0.00  0.00    +0.145 HD
ATOM     29  H   UNL     1      -0.831  -0.500   0.007  0.00  0.00    +0.145 HD
ENDBRANCH   9  27
BRANCH  10  30
ATOM     30  C   UNL     1      -2.406   1.190   0.016  0.00  0.00    +0.101 C 
ATOM     31  N   UNL     1      -3.349   0.556   0.014  0.00  0.00    -0.191 NA
ENDBRANCH  10  30
TORSDOF 6
