REMARK  Name = ZINC58236067
REMARK  13 active torsions:
REMARK  status: ('A' for Active; 'I' for Inactive)
REMARK    1  A    between atoms: C_1  and  C_2
REMARK    2  A    between atoms: C_2  and  C_3
REMARK    3  A    between atoms: C_3  and  C_4
REMARK    4  A    between atoms: C_4  and  O_5
REMARK    5  A    between atoms: O_5  and  C_6
REMARK    6  A    between atoms: C_9  and  C_15
REMARK    7  A    between atoms: C_11  and  O_12
REMARK    8  A    between atoms: O_12  and  C_13
REMARK    9  A    between atoms: C_13  and  C_14
REMARK   10  A    between atoms: N_17  and  C_18
REMARK   11  A    between atoms: C_18  and  C_19
REMARK   12  A    between atoms: C_18  and  C_20
REMARK   13  A    between atoms: C_23  and  N_26
REMARK                            x       y       z     vdW  Elec       q    Type
REMARK                         _______ _______ _______ _____ _____    ______ ____
ROOT
ATOM      1  C   UNL     1       1.614  -8.050   2.999  0.00  0.00    +0.245 C 
ATOM      2  O   UNL     1       2.301  -8.440   3.923  0.00  0.00    -0.270 OA
ATOM      3  N   UNL     1       1.144  -8.928   2.091  0.00  0.00    -0.305 N 
ATOM      4  H   UNL     1       0.596  -8.617   1.354  0.00  0.00    +0.150 HD
ENDROOT
BRANCH   1   8
ATOM      5  C   UNL     1       0.692  -3.918   2.625  0.00  0.00    +0.162 A 
ATOM      6  C   UNL     1       0.209  -4.824   1.691  0.00  0.00    +0.050 A 
ATOM      7  C   UNL     1       0.506  -6.165   1.809  0.00  0.00    +0.017 A 
ATOM      8  C   UNL     1       1.296  -6.614   2.871  0.00  0.00    +0.040 A 
ATOM      9  C   UNL     1       1.782  -5.702   3.811  0.00  0.00    +0.062 A 
ATOM     10  C   UNL     1       1.484  -4.359   3.684  0.00  0.00    +0.163 A 
BRANCH   5  11
ATOM     11  O   UNL     1       0.396  -2.598   2.504  0.00  0.00    -0.488 OA
BRANCH  11  12
ATOM     12  C   UNL     1      -0.420  -2.215   1.396  0.00  0.00    +0.229 C 
BRANCH  12  13
ATOM     13  C   UNL     1      -0.644  -0.702   1.427  0.00  0.00    +0.041 C 
BRANCH  13  15
ATOM     14  C   UNL     1      -1.743   1.222   0.270  0.00  0.00    +0.004 C 
ATOM     15  C   UNL     1      -1.519  -0.292   0.240  0.00  0.00    -0.000 C 
ENDBRANCH  13  15
ENDBRANCH  12  13
ENDBRANCH  11  12
ENDBRANCH   5  11
BRANCH  10  16
ATOM     16  O   UNL     1       1.960  -3.468   4.595  0.00  0.00    -0.489 OA
BRANCH  16  17
ATOM     17  C   UNL     1       2.766  -3.990   5.653  0.00  0.00    +0.226 C 
ATOM     18  C   UNL     1       3.205  -2.847   6.571  0.00  0.00    +0.048 C 
ENDBRANCH  16  17
ENDBRANCH  10  16
ENDBRANCH   1   8
BRANCH   3  19
ATOM     19  C   UNL     1       1.461 -10.353   2.219  0.00  0.00    +0.100 C 
ATOM     20  C   UNL     1       0.457 -11.016   3.164  0.00  0.00    +0.033 C 
BRANCH  19  21
ATOM     21  C   UNL     1       1.383 -11.008   0.864  0.00  0.00    -0.027 A 
ATOM     22  C   UNL     1       0.378 -10.653  -0.018  0.00  0.00    +0.007 A 
ATOM     23  C   UNL     1       0.305 -11.251  -1.260  0.00  0.00    +0.023 A 
ATOM     24  C   UNL     1       1.240 -12.210  -1.624  0.00  0.00    +0.035 A 
ATOM     25  C   UNL     1       2.248 -12.565  -0.737  0.00  0.00    +0.023 A 
ATOM     26  C   UNL     1       2.320 -11.959   0.502  0.00  0.00    +0.007 A 
BRANCH  24  27
ATOM     27  N   UNL     1       1.168 -12.819  -2.882  0.00  0.00    -0.270 N 
ATOM     28  C   UNL     1       0.719 -12.120  -3.944  0.00  0.00    +0.301 C 
ATOM     29  O   UNL     1       0.469 -10.936  -3.830  0.00  0.00    -0.253 OA
ATOM     30  N   UNL     1       0.548 -12.735  -5.131  0.00  0.00    -0.313 N 
ATOM     31  H   UNL     1       1.441 -13.743  -2.990  0.00  0.00    +0.156 HD
ATOM     32  H   UNL     1       0.748 -13.680  -5.222  0.00  0.00    +0.146 HD
ATOM     33  H   UNL     1       0.225 -12.232  -5.895  0.00  0.00    +0.146 HD
ENDBRANCH  24  27
ENDBRANCH  19  21
ENDBRANCH   3  19
TORSDOF 10
