REMARK  Name = ZINC43553591
REMARK  10 active torsions:
REMARK  status: ('A' for Active; 'I' for Inactive)
REMARK    1  A    between atoms: C_1  and  C_2
REMARK    2  A    between atoms: C_5  and  O_36
REMARK    3  A    between atoms: C_7  and  C_33
REMARK    4  A    between atoms: C_7  and  C_34
REMARK    5  A    between atoms: C_17  and  C_19
REMARK    6  A    between atoms: C_24  and  C_26
REMARK    7  A    between atoms: C_26  and  C_27
REMARK    8  A    between atoms: N_29  and  C_30
REMARK    9  A    between atoms: C_30  and  C_31
REMARK   10  A    between atoms: C_34  and  O_35
REMARK                            x       y       z     vdW  Elec       q    Type
REMARK                         _______ _______ _______ _____ _____    ______ ____
ROOT
ATOM      1  C   UNL     1       0.116   1.506  -0.019  0.00  0.00    +0.012 C 
ATOM      2  C   UNL     1       0.117  -0.030  -0.009  0.00  0.00    -0.019 C 
ATOM      3  C   UNL     1      -1.325  -0.518   0.066  0.00  0.00    +0.010 C 
ATOM      4  C   UNL     1      -1.977   0.040   1.333  0.00  0.00    +0.032 C 
ATOM      5  C   UNL     1      -1.232  -0.383   2.585  0.00  0.00    +0.123 C 
ATOM      6  C   UNL     1       0.274  -0.192   2.529  0.00  0.00    +0.021 C 
ATOM      7  C   UNL     1       0.891  -0.577   1.185  0.00  0.00    +0.011 C 
ATOM      8  C   UNL     1       0.936  -2.117   1.138  0.00  0.00    +0.049 C 
ATOM      9  C   UNL     1       1.033  -2.629  -0.253  0.00  0.00    +0.015 A 
ATOM     10  C   UNL     1       0.946  -1.923  -1.408  0.00  0.00    +0.058 A 
ATOM     11  N   UNL     1       1.040  -2.642  -2.520  0.00  0.00    -0.229 NA
ATOM     12  C   UNL     1       1.227  -3.944  -2.488  0.00  0.00    +0.165 A 
ATOM     13  S   UNL     1       1.287  -4.283  -0.838  0.00  0.00    -0.057 S 
ATOM     14  N   UNL     1       1.347  -4.825  -3.555  0.00  0.00    -0.260 N 
ATOM     15  C   UNL     1       1.538  -6.139  -3.326  0.00  0.00    +0.256 C 
ATOM     16  O   UNL     1       1.604  -6.554  -2.184  0.00  0.00    -0.269 OA
ATOM     17  C   UNL     1       0.783  -0.419  -1.333  0.00  0.00    +0.054 C 
ATOM     18  C   UNL     1       0.644   1.237   2.945  0.00  0.00    +0.016 C 
ATOM     19  H   UNL     1       1.294  -4.494  -4.465  0.00  0.00    +0.157 HD
ENDROOT
BRANCH  15  20
ATOM     20  C   UNL     1       1.664  -7.068  -4.452  0.00  0.00    +0.074 A 
ATOM     21  C   UNL     1       1.856  -8.442  -4.435  0.00  0.00    +0.021 A 
ATOM     22  C   UNL     1       1.938  -9.048  -5.665  0.00  0.00    +0.008 A 
ATOM     23  C   UNL     1       1.829  -8.289  -6.783  0.00  0.00    +0.046 A 
ATOM     24  S   UNL     1       1.605  -6.729  -6.201  0.00  0.00    -0.092 S 
ENDBRANCH  15  20
BRANCH   5  25
ATOM     25  O   UNL     1      -1.546  -1.745   2.899  0.00  0.00    -0.391 OA
ATOM     26  H   UNL     1      -2.486  -1.905   3.061  0.00  0.00    +0.210 HD
ENDBRANCH   5  25
BRANCH  17  27
ATOM     27  C   UNL     1      -0.030   0.092  -2.518  0.00  0.00    +0.106 C 
BRANCH  27  28
ATOM     28  C   UNL     1       0.712  -0.199  -3.798  0.00  0.00    +0.214 C 
ATOM     29  O   UNL     1       1.786  -0.760  -3.762  0.00  0.00    -0.276 OA
ATOM     30  N   UNL     1       0.181   0.166  -4.982  0.00  0.00    -0.304 N 
ATOM     31  H   UNL     1      -0.678   0.615  -5.011  0.00  0.00    +0.150 HD
BRANCH  30  32
ATOM     32  C   UNL     1       0.902  -0.117  -6.226  0.00  0.00    +0.193 C 
BRANCH  32  33
ATOM     33  C   UNL     1       0.118   0.376  -7.370  0.00  0.00    -0.087 C 
ATOM     34  C   UNL     1      -0.507   0.769  -8.282  0.00  0.00    +0.005 C 
ENDBRANCH  32  33
ENDBRANCH  30  32
ENDBRANCH  27  28
ENDBRANCH  17  27
BRANCH   6  35
ATOM     35  C   UNL     1       0.887  -1.106   3.624  0.00  0.00    +0.165 C 
BRANCH  35  36
ATOM     36  O   UNL     1       0.377  -0.724   4.903  0.00  0.00    -0.394 OA
ATOM     37  H   UNL     1       0.718  -1.254   5.636  0.00  0.00    +0.209 HD
ENDBRANCH  35  36
ENDBRANCH   6  35
TORSDOF 8
