REMARK  Name = ZINC02470598
REMARK  5 active torsions:
REMARK  status: ('A' for Active; 'I' for Inactive)
REMARK    1  A    between atoms: N_6  and  C_7
REMARK    2  A    between atoms: C_7  and  C_9
REMARK    3  A    between atoms: C_7  and  C_20
REMARK    4  A    between atoms: C_18  and  O_19
REMARK    5  A    between atoms: C_22  and  O_27
REMARK                            x       y       z     vdW  Elec       q    Type
REMARK                         _______ _______ _______ _____ _____    ______ ____
ROOT
ATOM      1  C   UNL     1       0.002  -0.004   0.002  0.00  0.00    +0.137 C 
ENDROOT
BRANCH   1   2
ATOM      2  C   UNL     1       0.192   1.491   0.024  0.00  0.00    +0.021 A 
ATOM      3  C   UNL     1       0.499   2.160  -1.158  0.00  0.00    +0.010 A 
ATOM      4  C   UNL     1       0.677   3.510  -1.172  0.00  0.00    +0.010 A 
ATOM      5  C   UNL     1       0.550   4.242   0.020  0.00  0.00    +0.004 A 
ATOM      6  C   UNL     1       0.727   5.638   0.045  0.00  0.00    +0.011 A 
ATOM      7  C   UNL     1       0.588   6.284   1.241  0.00  0.00    +0.020 A 
ATOM      8  C   UNL     1       0.281   5.559   2.391  0.00  0.00    +0.111 A 
ATOM      9  N   UNL     1       0.117   4.259   2.363  0.00  0.00    -0.251 NA
ATOM     10  C   UNL     1       0.238   3.568   1.226  0.00  0.00    +0.113 A 
ATOM     11  C   UNL     1       0.056   2.169   1.202  0.00  0.00    +0.148 A 
BRANCH  11  12
ATOM     12  O   UNL     1      -0.249   1.500   2.344  0.00  0.00    -0.504 OA
ATOM     13  H   UNL     1       0.523   1.194   2.838  0.00  0.00    +0.292 HD
ENDBRANCH  11  12
ENDBRANCH   1   2
BRANCH   1  19
ATOM     14  C   UNL     1      -0.217  -3.877   1.599  0.00  0.00    +0.005 A 
ATOM     15  C   UNL     1       0.933  -4.453   2.124  0.00  0.00    +0.018 A 
ATOM     16  C   UNL     1       2.115  -3.740   2.108  0.00  0.00    +0.084 A 
ATOM     17  C   UNL     1       1.089  -1.939   1.091  0.00  0.00    +0.097 A 
ATOM     18  C   UNL     1      -0.135  -2.600   1.075  0.00  0.00    +0.041 A 
ATOM     19  N   UNL     1       1.186  -0.655   0.568  0.00  0.00    -0.320 N 
ATOM     20  H   UNL     1       2.038  -0.191   0.577  0.00  0.00    +0.148 HD
ATOM     21  N   UNL     1       2.233  -2.486   1.596  0.00  0.00    -0.350 N 
ATOM     22  H   UNL     1       3.128  -1.982   1.589  0.00  0.00    +0.166 HD
ENDBRANCH   1  19
BRANCH   1  23
ATOM     23  C   UNL     1      -0.194  -0.465  -1.419  0.00  0.00    -0.001 A 
ATOM     24  C   UNL     1       0.886  -0.913  -2.155  0.00  0.00    +0.052 A 
ATOM     25  C   UNL     1       0.705  -1.342  -3.461  0.00  0.00    +0.117 A 
ATOM     26  C   UNL     1      -0.560  -1.309  -4.031  0.00  0.00    +0.047 A 
ATOM     27  C   UNL     1      -1.637  -0.855  -3.294  0.00  0.00    +0.024 A 
ATOM     28  C   UNL     1      -1.454  -0.433  -1.989  0.00  0.00    +0.046 A 
ATOM     29 CL   UNL     1      -2.809   0.138  -1.065  0.00  0.00    -0.083 Cl
BRANCH  25  30
ATOM     30  O   UNL     1       1.765  -1.788  -4.185  0.00  0.00    -0.507 OA
ATOM     31  H   UNL     1       2.223  -1.096  -4.681  0.00  0.00    +0.292 HD
ENDBRANCH  25  30
ENDBRANCH   1  23
TORSDOF 5
