REMARK  Name = ZINC17089766
REMARK  4 active torsions:
REMARK  status: ('A' for Active; 'I' for Inactive)
REMARK    1  A    between atoms: C_3  and  C_19
REMARK    2  A    between atoms: C_6  and  C_7
REMARK    3  A    between atoms: C_7  and  O_8
REMARK    4  A    between atoms: O_8  and  C_9
REMARK                            x       y       z     vdW  Elec       q    Type
REMARK                         _______ _______ _______ _____ _____    ______ ____
ROOT
ATOM      1  C   UNL     1      -0.017   1.379   0.010  0.00  0.00    +0.007 A 
ATOM      2  C   UNL     1       1.168   2.088   0.002  0.00  0.00    +0.012 A 
ATOM      3  C   UNL     1       2.384   1.408  -0.013  0.00  0.00    +0.021 A 
ATOM      4  C   UNL     1       2.397   0.014  -0.021  0.00  0.00    +0.012 A 
ATOM      5  C   UNL     1       1.206  -0.684  -0.013  0.00  0.00    +0.007 A 
ATOM      6  C   UNL     1       0.002  -0.004   0.002  0.00  0.00    -0.010 A 
ENDROOT
BRANCH   3   7
ATOM      7  C   UNL     1       3.660   2.164  -0.022  0.00  0.00    +0.182 A 
ATOM      8  N   UNL     1       4.881   1.621  -0.042  0.00  0.00    -0.206 NA
ATOM      9  C   UNL     1       5.790   2.574  -0.045  0.00  0.00    +0.170 A 
ATOM     10  C   UNL     1       7.252   2.597  -0.062  0.00  0.00    +0.083 A 
ATOM     11  C   UNL     1       8.259   1.615  -0.084  0.00  0.00    +0.148 A 
ATOM     12  N   UNL     1       9.419   2.213  -0.092  0.00  0.00    -0.180 NA
ATOM     13  N   UNL     1       9.228   3.601  -0.077  0.00  0.00    -0.260 N 
ATOM     14  H   UNL     1       9.930   4.271  -0.080  0.00  0.00    +0.191 HD
ATOM     15  C   UNL     1       7.888   3.847  -0.058  0.00  0.00    +0.161 A 
ATOM     16  N   UNL     1       7.147   4.965  -0.038  0.00  0.00    -0.216 NA
ATOM     17  C   UNL     1       5.846   4.937  -0.022  0.00  0.00    +0.227 A 
ATOM     18  N   UNL     1       5.136   3.779  -0.026  0.00  0.00    -0.201 N 
ATOM     19  N   UNL     1       3.768   3.478  -0.017  0.00  0.00    -0.143 NA
ENDBRANCH   3   7
BRANCH   6  20
ATOM     20  C   UNL     1      -1.294  -0.772   0.010  0.00  0.00    +0.264 C 
BRANCH  20  21
ATOM     21  O   UNL     1      -1.717  -1.008  -1.334  0.00  0.00    -0.482 OA
BRANCH  21  22
ATOM     22  C   UNL     1      -2.878  -1.695  -1.505  0.00  0.00    +0.197 A 
ATOM     23  C   UNL     1      -2.860  -3.080  -1.598  0.00  0.00    +0.203 A 
ATOM     24  C   UNL     1      -4.044  -3.777  -1.772  0.00  0.00    +0.165 A 
ATOM     25  C   UNL     1      -5.246  -3.094  -1.852  0.00  0.00    +0.082 A 
ATOM     26  C   UNL     1      -5.266  -1.713  -1.760  0.00  0.00    +0.165 A 
ATOM     27  C   UNL     1      -4.085  -1.012  -1.581  0.00  0.00    +0.203 A 
ATOM     28  F   UNL     1      -4.106   0.336  -1.486  0.00  0.00    -0.199 F 
ATOM     29  F   UNL     1      -6.440  -1.048  -1.839  0.00  0.00    -0.202 F 
ATOM     30  F   UNL     1      -4.027  -5.125  -1.862  0.00  0.00    -0.202 F 
ATOM     31  F   UNL     1      -1.688  -3.747  -1.520  0.00  0.00    -0.199 F 
ENDBRANCH  21  22
ENDBRANCH  20  21
ENDBRANCH   6  20
TORSDOF 4
