REMARK  Name = ZINC54479474
REMARK  13 active torsions:
REMARK  status: ('A' for Active; 'I' for Inactive)
REMARK    1  A    between atoms: C_1  and  C_2
REMARK    2  A    between atoms: C_2  and  C_3
REMARK    3  A    between atoms: C_3  and  C_5
REMARK    4  A    between atoms: C_3  and  N_6
REMARK    5  A    between atoms: C_7  and  C_9
REMARK    6  A    between atoms: C_12  and  N_15
REMARK    7  A    between atoms: N_18  and  C_19
REMARK    8  A    between atoms: C_19  and  C_20
REMARK    9  A    between atoms: C_20  and  C_21
REMARK   10  A    between atoms: C_21  and  N_22
REMARK   11  A    between atoms: N_22  and  C_23
REMARK   12  A    between atoms: N_22  and  C_24
REMARK   13  A    between atoms: C_24  and  C_25
REMARK                            x       y       z     vdW  Elec       q    Type
REMARK                         _______ _______ _______ _____ _____    ______ ____
ROOT
ATOM      1  N   UNL     1      -4.986   3.088   7.244  0.00  0.00    -0.269 N 
ATOM      2  C   UNL     1      -6.314   2.971   7.047  0.00  0.00    +0.304 C 
ATOM      3  O   UNL     1      -6.739   2.620   5.963  0.00  0.00    -0.253 OA
ATOM      4  N   UNL     1      -7.170   3.242   8.051  0.00  0.00    -0.299 N 
ATOM      5  H   UNL     1      -4.643   3.302   8.126  0.00  0.00    +0.156 HD
ATOM      6  H   UNL     1      -6.831   3.522   8.915  0.00  0.00    +0.150 HD
ENDROOT
BRANCH   1  10
ATOM      7  C   UNL     1      -2.351   2.532   4.065  0.00  0.00    +0.037 A 
ATOM      8  C   UNL     1      -3.514   1.761   4.155  0.00  0.00    +0.015 A 
ATOM      9  C   UNL     1      -4.382   1.947   5.207  0.00  0.00    +0.024 A 
ATOM     10  C   UNL     1      -4.104   2.902   6.180  0.00  0.00    +0.035 A 
ATOM     11  C   UNL     1      -2.948   3.671   6.094  0.00  0.00    +0.024 A 
ATOM     12  C   UNL     1      -2.072   3.486   5.048  0.00  0.00    +0.015 A 
BRANCH   7  14
ATOM     13  N   UNL     1      -1.688   1.414   1.993  0.00  0.00    -0.309 N 
ATOM     14  C   UNL     1      -1.418   2.334   2.940  0.00  0.00    +0.244 C 
ATOM     15  O   UNL     1      -0.404   3.002   2.866  0.00  0.00    -0.270 OA
ATOM     16  H   UNL     1      -2.497   0.881   2.052  0.00  0.00    +0.149 HD
BRANCH  13  17
ATOM     17  C   UNL     1      -0.761   1.218   0.876  0.00  0.00    +0.070 C 
ATOM     18  C   UNL     1      -1.073   2.230  -0.228  0.00  0.00    +0.028 C 
BRANCH  17  20
ATOM     19  C   UNL     1      -0.488  -1.212   1.391  0.00  0.00    +0.005 C 
ATOM     20  C   UNL     1      -0.919  -0.201   0.326  0.00  0.00    +0.018 C 
ENDBRANCH  17  20
ENDBRANCH  13  17
ENDBRANCH   7  14
ENDBRANCH   1  10
BRANCH   4  21
ATOM     21  C   UNL     1      -8.614   3.115   7.837  0.00  0.00    +0.104 C 
BRANCH  21  22
ATOM     22  C   UNL     1      -9.355   3.478   9.125  0.00  0.00    +0.000 C 
BRANCH  22  23
ATOM     23  C   UNL     1     -10.863   3.345   8.901  0.00  0.00    -0.077 C 
BRANCH  23  24
ATOM     24  N   UNL     1     -11.574   3.695  10.138  0.00  0.00    +0.384 N 
ATOM     25  C   UNL     1     -11.248   2.715  11.184  0.00  0.00    -0.096 C 
ATOM     26  H   UNL     1     -11.292   4.615  10.440  0.00  0.00    -0.082 HD
BRANCH  24  27
ATOM     27  C   UNL     1     -13.022   3.683   9.890  0.00  0.00    +0.036 C 
BRANCH  27  28
ATOM     28  C   UNL     1     -13.756   4.187  11.134  0.00  0.00    +0.376 C 
ATOM     29  F   UNL     1     -13.251   5.440  11.499  0.00  0.00    -0.173 F 
ATOM     30  F   UNL     1     -15.123   4.299  10.856  0.00  0.00    -0.173 F 
ATOM     31  F   UNL     1     -13.567   3.284  12.186  0.00  0.00    -0.173 F 
ENDBRANCH  27  28
ENDBRANCH  24  27
ENDBRANCH  23  24
ENDBRANCH  22  23
ENDBRANCH  21  22
ENDBRANCH   4  21
TORSDOF 10
