REMARK  Name = ZINC40797258
REMARK  3 active torsions:
REMARK  status: ('A' for Active; 'I' for Inactive)
REMARK    1  A    between atoms: C_11  and  N_25
REMARK    2  A    between atoms: C_12  and  N_16
REMARK    3  A    between atoms: N_16  and  C_17
REMARK                            x       y       z     vdW  Elec       q    Type
REMARK                         _______ _______ _______ _____ _____    ______ ____
ROOT
ATOM      1  C   UNL     1       0.172   0.528  -1.654  0.00  0.00    +0.002 A 
ATOM      2  C   UNL     1       1.377   1.086  -2.060  0.00  0.00    +0.002 A 
ATOM      3  C   UNL     1       2.561   0.689  -1.480  0.00  0.00    +0.030 A 
ATOM      4  C   UNL     1       2.547  -0.276  -0.479  0.00  0.00    +0.096 A 
ATOM      5  C   UNL     1       1.328  -0.841  -0.067  0.00  0.00    +0.113 A 
ATOM      6  C   UNL     1       0.138  -0.420  -0.674  0.00  0.00    +0.032 A 
ATOM      7  N   UNL     1       1.602  -1.741   0.907  0.00  0.00    -0.129 NA
ATOM      8  N   UNL     1       2.868  -1.783   1.131  0.00  0.00    -0.058 NA
ATOM      9  N   UNL     1       3.524  -0.877   0.284  0.00  0.00    -0.192 N 
ATOM     10  C   UNL     1       4.897  -0.633   0.226  0.00  0.00    +0.182 A 
ATOM     11  C   UNL     1       5.803  -1.692   0.171  0.00  0.00    +0.110 A 
ATOM     12  C   UNL     1       7.168  -1.390   0.113  0.00  0.00    +0.149 A 
ATOM     13  N   UNL     1       7.546  -0.115   0.113  0.00  0.00    -0.219 NA
ATOM     14  C   UNL     1       6.656   0.855   0.166  0.00  0.00    +0.225 A 
ATOM     15  N   UNL     1       5.362   0.614   0.216  0.00  0.00    -0.215 NA
ENDROOT
BRANCH  11  16
ATOM     16  N   UNL     1       5.359  -3.021   0.173  0.00  0.00    -0.352 N 
ATOM     17  H   UNL     1       4.409  -3.215   0.125  0.00  0.00    +0.143 HD
ATOM     18  H   UNL     1       6.000  -3.747   0.223  0.00  0.00    +0.143 HD
ENDBRANCH  11  16
BRANCH  12  19
ATOM     19  N   UNL     1       8.113  -2.407   0.057  0.00  0.00    -0.296 N 
ATOM     20  H   UNL     1       7.828  -3.330  -0.029  0.00  0.00    +0.154 HD
BRANCH  19  21
ATOM     21  C   UNL     1       9.477  -2.099   0.125  0.00  0.00    +0.068 A 
ATOM     22  C   UNL     1       9.889  -0.879   0.644  0.00  0.00    +0.027 A 
ATOM     23  C   UNL     1      11.236  -0.578   0.710  0.00  0.00    +0.017 A 
ATOM     24  C   UNL     1      12.174  -1.489   0.259  0.00  0.00    +0.021 A 
ATOM     25  C   UNL     1      11.768  -2.706  -0.259  0.00  0.00    +0.055 A 
ATOM     26  C   UNL     1      10.421  -3.017  -0.322  0.00  0.00    +0.145 A 
ATOM     27  F   UNL     1      10.025  -4.207  -0.822  0.00  0.00    -0.204 F 
ATOM     28 BR   UNL     1      14.016  -1.071   0.351  0.00  0.00    -0.050 Br
ENDBRANCH  19  21
ENDBRANCH  12  19
TORSDOF 3
