REMARK  Name = ZINC08756896
REMARK  9 active torsions:
REMARK  status: ('A' for Active; 'I' for Inactive)
REMARK    1  A    between atoms: C_1  and  O_2
REMARK    2  A    between atoms: O_2  and  C_3
REMARK    3  A    between atoms: C_6  and  C_9
REMARK    4  A    between atoms: C_9  and  C_11
REMARK    5  A    between atoms: C_12  and  N_33
REMARK    6  A    between atoms: C_13  and  S_24
REMARK    7  A    between atoms: C_14  and  N_16
REMARK    8  A    between atoms: N_16  and  C_17
REMARK    9  A    between atoms: S_24  and  C_27
REMARK                            x       y       z     vdW  Elec       q    Type
REMARK                         _______ _______ _______ _____ _____    ______ ____
ROOT
ATOM      1  C   UNL     1       1.375  -0.249  -0.793  0.00  0.00    +0.084 A 
ATOM      2  C   UNL     1       0.121   0.304  -0.503  0.00  0.00    +0.070 A 
ATOM      3  C   UNL     1       0.019   1.670  -0.418  0.00  0.00    +0.143 A 
ATOM      4  C   UNL     1       1.149   2.438  -0.621  0.00  0.00    +0.098 A 
ATOM      5  S   UNL     1       2.399   1.205  -0.941  0.00  0.00    -0.066 S 
ENDROOT
BRANCH   3   6
ATOM      6  S   UNL     1      -1.530   2.432  -0.064  0.00  0.00    +0.029 S 
ATOM      7  O   UNL     1      -1.414   3.791  -0.462  0.00  0.00    -0.164 OA
ATOM      8  O   UNL     1      -2.534   1.570  -0.581  0.00  0.00    -0.164 OA
BRANCH   6   9
ATOM      9  C   UNL     1      -1.721   2.434   1.687  0.00  0.00    +0.094 A 
ATOM     10  C   UNL     1      -2.340   1.370   2.317  0.00  0.00    +0.027 A 
ATOM     11  C   UNL     1      -2.485   1.370   3.691  0.00  0.00    +0.002 A 
ATOM     12  C   UNL     1      -2.022   2.439   4.436  0.00  0.00    +0.000 A 
ATOM     13  C   UNL     1      -1.408   3.506   3.806  0.00  0.00    +0.002 A 
ATOM     14  C   UNL     1      -1.258   3.503   2.432  0.00  0.00    +0.027 A 
ENDBRANCH   6   9
ENDBRANCH   3   6
BRANCH   2  15
ATOM     15  N   UNL     1      -0.990  -0.509  -0.307  0.00  0.00    -0.355 N 
ATOM     16  H   UNL     1      -0.968  -1.436  -0.591  0.00  0.00    +0.142 HD
ATOM     17  H   UNL     1      -1.786  -0.149   0.113  0.00  0.00    +0.142 HD
ENDBRANCH   2  15
BRANCH   1  18
ATOM     18  C   UNL     1       1.734  -1.602  -0.931  0.00  0.00    +0.202 C 
ATOM     19  O   UNL     1       0.923  -2.477  -0.678  0.00  0.00    -0.286 OA
BRANCH  18  23
ATOM     20  C   UNL     1       5.644  -2.639  -2.230  0.00  0.00    +0.120 A 
ATOM     21  C   UNL     1       4.888  -3.555  -1.509  0.00  0.00    +0.046 A 
ATOM     22  C   UNL     1       3.619  -3.222  -1.087  0.00  0.00    +0.015 A 
ATOM     23  C   UNL     1       3.094  -1.963  -1.383  0.00  0.00    +0.023 A 
ATOM     24  C   UNL     1       3.856  -1.047  -2.113  0.00  0.00    +0.015 A 
ATOM     25  C   UNL     1       5.125  -1.385  -2.527  0.00  0.00    +0.046 A 
BRANCH  20  27
ATOM     26  C   UNL     1       7.617  -1.982  -3.381  0.00  0.00    +0.277 C 
ATOM     27  O   UNL     1       6.894  -2.970  -2.644  0.00  0.00    -0.495 OA
ENDBRANCH  20  27
ENDBRANCH  18  23
ENDBRANCH   1  18
BRANCH   4  28
ATOM     28  N   UNL     1       1.279   3.815  -0.585  0.00  0.00    -0.306 N 
ATOM     29  H   UNL     1       0.489   4.375  -0.521  0.00  0.00    +0.153 HD
BRANCH  28  30
ATOM     30  C   UNL     1       2.547   4.399  -0.642  0.00  0.00    +0.050 A 
ATOM     31  C   UNL     1       3.649   3.720  -0.138  0.00  0.00    +0.025 A 
ATOM     32  C   UNL     1       4.901   4.301  -0.195  0.00  0.00    +0.002 A 
ATOM     33  C   UNL     1       5.059   5.556  -0.754  0.00  0.00    +0.002 A 
ATOM     34  C   UNL     1       3.965   6.235  -1.257  0.00  0.00    +0.022 A 
ATOM     35  C   UNL     1       2.710   5.658  -1.208  0.00  0.00    +0.062 A 
ATOM     36 CL   UNL     1       1.337   6.508  -1.847  0.00  0.00    -0.082 Cl
ENDBRANCH  28  30
ENDBRANCH   4  28
TORSDOF 8
