REMARK  Name = ZINC05045010
REMARK  10 active torsions:
REMARK  status: ('A' for Active; 'I' for Inactive)
REMARK    1  A    between atoms: C_4  and  C_7
REMARK    2  A    between atoms: C_7  and  C_24
REMARK    3  A    between atoms: N_10  and  C_14
REMARK    4  A    between atoms: C_14  and  C_15
REMARK    5  A    between atoms: N_17  and  C_18
REMARK    6  A    between atoms: C_18  and  C_19
REMARK    7  A    between atoms: C_19  and  N_20
REMARK    8  A    between atoms: N_20  and  C_21
REMARK    9  A    between atoms: C_21  and  C_22
REMARK   10  A    between atoms: C_22  and  O_23
REMARK                            x       y       z     vdW  Elec       q    Type
REMARK                         _______ _______ _______ _____ _____    ______ ____
ROOT
ATOM      1  C   UNL     1       3.711  -0.707  -0.038  0.00  0.00    +0.164 C 
ATOM      2  C   UNL     1       4.021  -0.967  -1.498  0.00  0.00    +0.256 C 
ATOM      3  O   UNL     1       3.340  -1.577  -2.294  0.00  0.00    -0.272 OA
ATOM      4  N   UNL     1       5.211  -0.377  -1.729  0.00  0.00    -0.215 N 
ATOM      5  C   UNL     1       5.691   0.213  -0.628  0.00  0.00    +0.310 C 
ATOM      6  O   UNL     1       6.749   0.809  -0.588  0.00  0.00    -0.252 OA
ATOM      7  N   UNL     1       4.871   0.072   0.429  0.00  0.00    -0.278 N 
ATOM      8  H   UNL     1       5.016   0.416   1.325  0.00  0.00    +0.152 HD
ENDROOT
BRANCH   1  12
ATOM      9  C   UNL     1       0.116   1.567   0.356  0.00  0.00    +0.000 A 
ATOM     10  C   UNL     1       0.154   0.474  -0.490  0.00  0.00    +0.000 A 
ATOM     11  C   UNL     1       1.317  -0.261  -0.618  0.00  0.00    +0.006 A 
ATOM     12  C   UNL     1       2.443   0.096   0.101  0.00  0.00    -0.011 A 
ATOM     13  C   UNL     1       2.406   1.188   0.946  0.00  0.00    +0.006 A 
ATOM     14  C   UNL     1       1.242   1.923   1.075  0.00  0.00    +0.000 A 
ENDBRANCH   1  12
BRANCH   1  15
ATOM     15  C   UNL     1       3.602  -2.003   0.723  0.00  0.00    -0.011 A 
ATOM     16  C   UNL     1       2.774  -3.009   0.260  0.00  0.00    +0.006 A 
ATOM     17  C   UNL     1       2.674  -4.198   0.958  0.00  0.00    +0.000 A 
ATOM     18  C   UNL     1       3.402  -4.382   2.118  0.00  0.00    +0.000 A 
ATOM     19  C   UNL     1       4.231  -3.377   2.581  0.00  0.00    +0.000 A 
ATOM     20  C   UNL     1       4.334  -2.189   1.881  0.00  0.00    +0.006 A 
ENDBRANCH   1  15
BRANCH   4  21
ATOM     21  C   UNL     1       5.895  -0.382  -3.024  0.00  0.00    +0.213 C 
BRANCH  21  22
ATOM     22  C   UNL     1       5.464   0.820  -3.825  0.00  0.00    +0.231 C 
ATOM     23  O   UNL     1       4.665   1.603  -3.359  0.00  0.00    -0.274 OA
ATOM     24  N   UNL     1       5.968   1.024  -5.058  0.00  0.00    -0.316 N 
ATOM     25  H   UNL     1       6.607   0.397  -5.431  0.00  0.00    +0.149 HD
BRANCH  24  26
ATOM     26  C   UNL     1       5.549   2.192  -5.836  0.00  0.00    +0.085 C 
BRANCH  26  27
ATOM     27  C   UNL     1       6.263   2.187  -7.189  0.00  0.00    -0.064 C 
BRANCH  27  28
ATOM     28  N   UNL     1       5.843   3.359  -7.969  0.00  0.00    +0.382 N 
ATOM     29  H   UNL     1       4.845   3.325  -8.115  0.00  0.00    -0.086 HD
ATOM     30  H   UNL     1       6.081   4.200  -7.466  0.00  0.00    -0.086 HD
BRANCH  28  31
ATOM     31  C   UNL     1       6.529   3.354  -9.268  0.00  0.00    -0.054 C 
BRANCH  31  32
ATOM     32  C   UNL     1       6.091   4.574 -10.081  0.00  0.00    +0.137 C 
BRANCH  32  33
ATOM     33  O   UNL     1       6.532   5.765  -9.425  0.00  0.00    -0.397 OA
ATOM     34  H   UNL     1       6.288   6.580  -9.886  0.00  0.00    +0.209 HD
ENDBRANCH  32  33
ENDBRANCH  31  32
ENDBRANCH  28  31
ENDBRANCH  27  28
ENDBRANCH  26  27
ENDBRANCH  24  26
ENDBRANCH  21  22
ENDBRANCH   4  21
TORSDOF 10
