REMARK  Name = ZINC42981755
REMARK  12 active torsions:
REMARK  status: ('A' for Active; 'I' for Inactive)
REMARK    1  A    between atoms: C_1  and  C_2
REMARK    2  A    between atoms: C_5  and  C_29
REMARK    3  A    between atoms: C_6  and  N_8
REMARK    4  A    between atoms: C_9  and  C_11
REMARK    5  A    between atoms: C_11  and  C_13
REMARK    6  A    between atoms: C_11  and  S_16
REMARK    7  A    between atoms: C_13  and  C_14
REMARK    8  A    between atoms: C_13  and  C_15
REMARK    9  A    between atoms: S_16  and  C_17
REMARK   10  A    between atoms: C_20  and  C_23
REMARK   11  A    between atoms: N_21  and  N_22
REMARK   12  A    between atoms: C_27  and  C_28
REMARK                            x       y       z     vdW  Elec       q    Type
REMARK                         _______ _______ _______ _____ _____    ______ ____
ROOT
ATOM      1  C   UNL     1       0.280  -2.900   4.854  0.00  0.00    +0.143 C 
ENDROOT
BRANCH   1   3
ATOM      2  N   UNL     1       0.052  -2.797   2.393  0.00  0.00    -0.284 N 
ATOM      3  C   UNL     1       0.150  -2.135   3.562  0.00  0.00    +0.231 C 
ATOM      4  O   UNL     1       0.134  -0.922   3.575  0.00  0.00    -0.274 OA
ATOM      5  H   UNL     1      -0.015  -3.765   2.388  0.00  0.00    +0.155 HD
BRANCH   2  11
ATOM      6  C   UNL     1       1.262   1.228  -0.158  0.00  0.00    +0.044 C 
ATOM      7  C   UNL     1       0.626  -0.136  -0.079  0.00  0.00    -0.049 A 
ATOM      8  C   UNL     1       0.037  -0.690  -1.201  0.00  0.00    +0.004 A 
ATOM      9  C   UNL     1      -0.546  -1.941  -1.133  0.00  0.00    +0.005 A 
ATOM     10  C   UNL     1      -0.543  -2.643   0.057  0.00  0.00    -0.029 A 
ATOM     11  C   UNL     1       0.047  -2.090   1.185  0.00  0.00    +0.037 A 
ATOM     12  C   UNL     1       0.638  -0.835   1.112  0.00  0.00    +0.027 A 
ATOM     13  C   UNL     1      -1.180  -4.007   0.131  0.00  0.00    +0.045 C 
ENDBRANCH   2  11
ENDBRANCH   1   3
BRANCH   1  14
ATOM     14  C   UNL     1      -1.099  -3.395   5.294  0.00  0.00    +0.005 C 
ATOM     15  C   UNL     1      -2.062  -2.210   5.382  0.00  0.00    +0.009 C 
ATOM     16  C   UNL     1      -1.627  -4.407   4.275  0.00  0.00    +0.009 C 
ENDBRANCH   1  14
BRANCH   1  17
ATOM     17  S   UNL     1       0.970  -1.815   6.133  0.00  0.00    -0.071 S 
BRANCH  17  18
ATOM     18  C   UNL     1       1.196  -2.880   7.518  0.00  0.00    +0.209 A 
ATOM     19  N   UNL     1       0.922  -4.163   7.568  0.00  0.00    -0.121 NA
ATOM     20  N   UNL     1       1.209  -4.631   8.729  0.00  0.00    -0.127 NA
ATOM     21  C   UNL     1       1.685  -3.676   9.493  0.00  0.00    +0.185 A 
ATOM     22  N   UNL     1       1.697  -2.526   8.741  0.00  0.00    -0.224 N 
BRANCH  21  23
ATOM     23  C   UNL     1       2.129  -3.813  10.898  0.00  0.00    +0.061 A 
ATOM     24  C   UNL     1       2.657  -2.754  11.767  0.00  0.00    +0.053 A 
ATOM     25  C   UNL     1       2.926  -3.341  12.945  0.00  0.00    +0.196 A 
ATOM     26  O   UNL     1       2.612  -4.643  12.867  0.00  0.00    -0.467 OA
ATOM     27  C   UNL     1       2.128  -4.944  11.653  0.00  0.00    +0.112 A 
ATOM     28  C   UNL     1       1.666  -6.305  11.201  0.00  0.00    +0.087 C 
ENDBRANCH  21  23
BRANCH  22  29
ATOM     29  N   UNL     1       2.119  -1.287   9.133  0.00  0.00    -0.295 N 
ATOM     30  H   UNL     1       1.360  -0.757   9.534  0.00  0.00    +0.163 HD
ATOM     31  H   UNL     1       2.893  -1.355   9.776  0.00  0.00    +0.163 HD
ENDBRANCH  22  29
ENDBRANCH  17  18
ENDBRANCH   1  17
TORSDOF 7
