REMARK  Name = ZINC03846487
REMARK  4 active torsions:
REMARK  status: ('A' for Active; 'I' for Inactive)
REMARK    1  A    between atoms: C_1  and  N_2
REMARK    2  A    between atoms: C_9  and  O_24
REMARK    3  A    between atoms: C_10  and  C_13
REMARK    4  A    between atoms: C_16  and  C_19
REMARK                            x       y       z     vdW  Elec       q    Type
REMARK                         _______ _______ _______ _____ _____    ______ ____
ROOT
ATOM      1  C   UNL     1       7.279   7.342  -2.871  0.00  0.00    +0.152 C 
ATOM      2  N   UNL     1       5.865   7.079  -3.147  0.00  0.00    -0.310 N 
ATOM      3  C   UNL     1       5.381   7.274  -4.425  0.00  0.00    +0.055 A 
ATOM      4  C   UNL     1       6.229   7.717  -5.436  0.00  0.00    +0.026 A 
ATOM      5  C   UNL     1       5.737   7.909  -6.709  0.00  0.00    +0.002 A 
ATOM      6  C   UNL     1       4.401   7.666  -6.996  0.00  0.00    +0.001 A 
ATOM      7  C   UNL     1       3.550   7.232  -6.020  0.00  0.00    +0.013 A 
ATOM      8  C   UNL     1       4.028   7.029  -4.720  0.00  0.00    +0.041 A 
ATOM      9  C   UNL     1       3.131   6.559  -3.660  0.00  0.00    +0.140 A 
ATOM     10  C   UNL     1       3.654   6.379  -2.383  0.00  0.00    +0.104 A 
ATOM     11  C   UNL     1       5.071   6.653  -2.150  0.00  0.00    +0.264 A 
ATOM     12  O   UNL     1       5.539   6.493  -1.036  0.00  0.00    -0.267 OA
ENDROOT
BRANCH  10  13
ATOM     13  C   UNL     1       2.794   5.912  -1.283  0.00  0.00    +0.077 C 
ATOM     14  N   UNL     1       3.181   5.710  -0.071  0.00  0.00    -0.190 NA
ATOM     15  N   UNL     1       2.172   5.269   0.783  0.00  0.00    -0.260 N 
ATOM     16  C   UNL     1       0.918   5.160   0.021  0.00  0.00    +0.131 C 
ATOM     17  C   UNL     1       1.320   5.597  -1.402  0.00  0.00    +0.087 C 
ATOM     18  H   UNL     1       2.279   5.066   1.725  0.00  0.00    +0.169 HD
BRANCH  16  19
ATOM     19  C   UNL     1       0.421   3.738   0.017  0.00  0.00    +0.012 A 
ATOM     20  C   UNL     1      -0.855   3.279   0.027  0.00  0.00    +0.013 A 
ATOM     21  C   UNL     1      -1.077   1.915   0.017  0.00  0.00    +0.008 A 
ATOM     22  C   UNL     1      -0.013   1.076   0.008  0.00  0.00    +0.045 A 
ATOM     23  S   UNL     1       1.359   2.219   0.001  0.00  0.00    -0.100 S 
ENDBRANCH  16  19
ENDBRANCH  10  13
BRANCH   9  24
ATOM     24  O   UNL     1       1.826   6.311  -3.915  0.00  0.00    -0.505 OA
ATOM     25  H   UNL     1       1.568   6.469  -4.834  0.00  0.00    +0.292 HD
ENDBRANCH   9  24
TORSDOF 3
