REMARK  Name = ZINC59544374
REMARK  4 active torsions:
REMARK  status: ('A' for Active; 'I' for Inactive)
REMARK    1  A    between atoms: C_3  and  N_10
REMARK    2  A    between atoms: C_5  and  N_7
REMARK    3  A    between atoms: C_11  and  C_13
REMARK    4  A    between atoms: C_13  and  C_14
REMARK                            x       y       z     vdW  Elec       q    Type
REMARK                         _______ _______ _______ _____ _____    ______ ____
ROOT
ATOM      1  C   UNL     1       4.863   4.229  -0.238  0.00  0.00    +0.089 C 
ENDROOT
BRANCH   1   2
ATOM      2  C   UNL     1       4.567   5.728  -0.329  0.00  0.00    +0.025 C 
ATOM      3  C   UNL     1       5.846   6.473  -0.583  0.00  0.00    +0.200 C 
ATOM      4  O   UNL     1       6.626   6.021  -1.394  0.00  0.00    -0.278 OA
ATOM      5  N   UNL     1       6.166   7.611   0.043  0.00  0.00    -0.315 N 
ATOM      6  C   UNL     1       5.306   8.205   1.070  0.00  0.00    +0.059 C 
ATOM      7  C   UNL     1       5.867   7.840   2.447  0.00  0.00    +0.020 C 
ATOM      8  C   UNL     1       4.955   8.393   3.543  0.00  0.00    +0.002 C 
ATOM      9  C   UNL     1       3.563   7.772   3.398  0.00  0.00    -0.001 C 
ATOM     10  C   UNL     1       2.985   8.153   2.034  0.00  0.00    -0.014 C 
ATOM     11  C   UNL     1       3.889   7.656   0.912  0.00  0.00    -0.050 C 
ATOM     12  N   UNL     1       3.957   6.180   0.928  0.00  0.00    +0.390 N 
ATOM     13  H   UNL     1       6.995   8.057  -0.191  0.00  0.00    +0.149 HD
ATOM     14  H   UNL     1       3.024   5.803   1.006  0.00  0.00    -0.084 HD
ATOM     15  H   UNL     1       4.516   5.867   1.708  0.00  0.00    -0.084 HD
ENDBRANCH   1   2
BRANCH   1  17
ATOM     16  N   UNL     1       3.584   2.123  -0.021  0.00  0.00    -0.285 N 
ATOM     17  C   UNL     1       3.569   3.468  -0.116  0.00  0.00    +0.216 C 
ATOM     18  O   UNL     1       2.513   4.065  -0.103  0.00  0.00    -0.276 OA
ATOM     19  H   UNL     1       4.429   1.652   0.045  0.00  0.00    +0.155 HD
BRANCH  16  22
ATOM     20  C   UNL     1       0.112   1.159  -0.752  0.00  0.00    +0.004 A 
ATOM     21  C   UNL     1       1.298   1.867  -0.756  0.00  0.00    +0.023 A 
ATOM     22  C   UNL     1       2.381   1.409  -0.019  0.00  0.00    +0.036 A 
ATOM     23  C   UNL     1       2.269   0.238   0.720  0.00  0.00    +0.056 A 
ATOM     24  C   UNL     1       1.081  -0.466   0.720  0.00  0.00    +0.128 A 
ATOM     25  C   UNL     1       0.003  -0.006  -0.015  0.00  0.00    +0.033 A 
BRANCH  24  26
ATOM     26  N   UNL     1       0.960  -1.713   1.507  0.00  0.00    +0.056 N 
ATOM     27  O   UNL     1       1.901  -2.116   2.150  0.00  0.00    -0.126 OA
ATOM     28  O   UNL     1      -0.080  -2.330   1.508  0.00  0.00    -0.126 OA
ENDBRANCH  24  26
ENDBRANCH  16  22
ENDBRANCH   1  17
TORSDOF 4
