REMARK  Name = ZINC37654841
REMARK  5 active torsions:
REMARK  status: ('A' for Active; 'I' for Inactive)
REMARK    1  A    between atoms: C_1  and  C_2
REMARK    2  A    between atoms: C_2  and  C_3
REMARK    3  A    between atoms: C_2  and  C_6
REMARK    4  A    between atoms: C_2  and  N_20
REMARK    5  A    between atoms: N_8  and  C_9
REMARK                            x       y       z     vdW  Elec       q    Type
REMARK                         _______ _______ _______ _____ _____    ______ ____
ROOT
ATOM      1  C   UNL     1      -1.410  -0.529   0.012  0.00  0.00    +0.206 C 
ATOM      2  O   UNL     1      -1.940  -0.824   1.063  0.00  0.00    -0.277 OA
ATOM      3  N   UNL     1      -2.090  -0.657  -1.144  0.00  0.00    -0.286 N 
ATOM      4  H   UNL     1      -1.697  -0.347  -1.975  0.00  0.00    +0.155 HD
ENDROOT
BRANCH   3   5
ATOM      5  C   UNL     1      -3.365  -1.240  -1.147  0.00  0.00    +0.051 A 
ATOM      6  C   UNL     1      -3.726  -2.124  -0.140  0.00  0.00    +0.073 A 
ATOM      7  C   UNL     1      -4.987  -2.699  -0.142  0.00  0.00    +0.164 A 
ATOM      8  C   UNL     1      -5.890  -2.388  -1.153  0.00  0.00    +0.163 A 
ATOM      9  C   UNL     1      -5.525  -1.505  -2.158  0.00  0.00    +0.066 A 
ATOM     10  C   UNL     1      -4.269  -0.928  -2.153  0.00  0.00    +0.043 A 
ATOM     11 BR   UNL     1      -3.780   0.282  -3.522  0.00  0.00    -0.048 Br
ATOM     12  O   UNL     1      -7.136  -2.938  -1.167  0.00  0.00    -0.485 OA
ATOM     13  C   UNL     1      -7.336  -4.100  -0.355  0.00  0.00    +0.270 C 
ATOM     14  C   UNL     1      -6.721  -3.834   1.025  0.00  0.00    +0.270 C 
ATOM     15  O   UNL     1      -5.325  -3.568   0.850  0.00  0.00    -0.485 OA
ENDBRANCH   3   5
BRANCH   1  17
ATOM     16  C   UNL     1      -0.001   1.512   0.005  0.00  0.00    -0.001 C 
ATOM     17  C   UNL     1       0.007  -0.018   0.000  0.00  0.00    +0.007 C 
BRANCH  17  18
ATOM     18  N   UNL     1       0.691  -0.500  -1.208  0.00  0.00    +0.388 N 
ATOM     19  H   UNL     1       1.640  -0.159  -1.216  0.00  0.00    -0.089 HD
ATOM     20  H   UNL     1       0.697  -1.509  -1.211  0.00  0.00    -0.089 HD
ATOM     21  H   UNL     1       0.205  -0.164  -2.026  0.00  0.00    -0.089 HD
ENDBRANCH  17  18
BRANCH  17  22
ATOM     22  C   UNL     1       0.744  -0.528   1.240  0.00  0.00    -0.014 C 
ATOM     23  C   UNL     1       1.858  -1.556   1.028  0.00  0.00    +0.003 C 
ATOM     24  C   UNL     1       2.207  -0.117   1.413  0.00  0.00    +0.003 C 
ENDBRANCH  17  22
ENDBRANCH   1  17
TORSDOF 4
