REMARK  Name = ZINC04474136
REMARK  9 active torsions:
REMARK  status: ('A' for Active; 'I' for Inactive)
REMARK    1  A    between atoms: C_1  and  C_2
REMARK    2  A    between atoms: C_7  and  O_27
REMARK    3  A    between atoms: N_12  and  O_13
REMARK    4  A    between atoms: O_13  and  C_14
REMARK    5  A    between atoms: C_14  and  C_16
REMARK    6  A    between atoms: C_18  and  O_24
REMARK    7  A    between atoms: C_20  and  O_22
REMARK    8  A    between atoms: O_22  and  C_23
REMARK    9  A    between atoms: O_24  and  C_25
REMARK                            x       y       z     vdW  Elec       q    Type
REMARK                         _______ _______ _______ _____ _____    ______ ____
ROOT
ATOM      1  C   UNL     1       3.720   2.191   0.383  0.00  0.00    +0.008 C 
ATOM      2  C   UNL     1       2.430   1.382   0.533  0.00  0.00    -0.004 C 
ATOM      3  C   UNL     1       1.253   2.196   0.002  0.00  0.00    +0.039 C 
ATOM      4  C   UNL     1      -0.017   1.391   0.010  0.00  0.00    -0.035 A 
ATOM      5  C   UNL     1      -1.231   2.051   0.019  0.00  0.00    +0.049 A 
ATOM      6  C   UNL     1      -2.418   1.333   0.025  0.00  0.00    +0.117 A 
ATOM      7  C   UNL     1      -2.399  -0.056   0.014  0.00  0.00    +0.046 A 
ATOM      8  C   UNL     1      -1.194  -0.725   0.003  0.00  0.00    +0.013 A 
ATOM      9  C   UNL     1       0.002  -0.004   0.002  0.00  0.00    +0.003 A 
ATOM     10  C   UNL     1       1.292  -0.728  -0.005  0.00  0.00    +0.088 C 
ATOM     11  N   UNL     1       1.346  -2.004   0.204  0.00  0.00    -0.078 NA
ATOM     12  C   UNL     1       2.548   0.078  -0.267  0.00  0.00    +0.063 C 
ENDROOT
BRANCH   6  13
ATOM     13  O   UNL     1      -3.606   1.992   0.037  0.00  0.00    -0.507 OA
ATOM     14  H   UNL     1      -3.944   2.176   0.924  0.00  0.00    +0.292 HD
ENDBRANCH   6  13
BRANCH  11  15
ATOM     15  O   UNL     1       2.420  -2.578   0.193  0.00  0.00    -0.312 OA
BRANCH  15  16
ATOM     16  C   UNL     1       2.406  -3.906   0.418  0.00  0.00    +0.366 C 
ATOM     17  O   UNL     1       1.353  -4.477   0.620  0.00  0.00    -0.243 OA
BRANCH  16  18
ATOM     18  C   UNL     1       3.672  -4.668   0.420  0.00  0.00    +0.068 A 
ATOM     19  C   UNL     1       4.883  -4.016   0.183  0.00  0.00    +0.061 A 
ATOM     20  C   UNL     1       6.067  -4.734   0.190  0.00  0.00    +0.124 A 
ATOM     21  C   UNL     1       6.050  -6.101   0.422  0.00  0.00    +0.091 A 
ATOM     22  C   UNL     1       4.848  -6.755   0.653  0.00  0.00    +0.124 A 
ATOM     23  C   UNL     1       3.660  -6.044   0.653  0.00  0.00    +0.061 A 
BRANCH  22  24
ATOM     24  O   UNL     1       4.838  -8.095   0.880  0.00  0.00    -0.495 OA
ATOM     25  C   UNL     1       6.100  -8.765   0.866  0.00  0.00    +0.277 C 
ENDBRANCH  22  24
BRANCH  20  26
ATOM     26  O   UNL     1       7.247  -4.098  -0.036  0.00  0.00    -0.495 OA
ATOM     27  C   UNL     1       8.429  -4.901  -0.021  0.00  0.00    +0.277 C 
ENDBRANCH  20  26
ENDBRANCH  16  18
ENDBRANCH  15  16
ENDBRANCH  11  15
TORSDOF 6
