REMARK  Name = ZINC23295501
REMARK  7 active torsions:
REMARK  status: ('A' for Active; 'I' for Inactive)
REMARK    1  A    between atoms: C_1  and  C_2
REMARK    2  A    between atoms: C_3  and  C_12
REMARK    3  A    between atoms: C_12  and  C_14
REMARK    4  A    between atoms: C_14  and  S_15
REMARK    5  A    between atoms: S_15  and  C_16
REMARK    6  A    between atoms: N_20  and  C_21
REMARK    7  A    between atoms: C_21  and  C_22
REMARK                            x       y       z     vdW  Elec       q    Type
REMARK                         _______ _______ _______ _____ _____    ______ ____
ROOT
ATOM      1  C   UNL     1      -4.058  -0.538   0.037  0.00  0.00    +0.176 C 
ATOM      2  O   UNL     1      -4.103  -1.747  -0.057  0.00  0.00    -0.291 OA
ENDROOT
BRANCH   1   5
ATOM      3  C   UNL     1      -5.329   0.364   2.716  0.00  0.00    +0.064 C 
ATOM      4  C   UNL     1      -5.854   0.629   1.329  0.00  0.00    +0.024 A 
ATOM      5  C   UNL     1      -5.256   0.209   0.160  0.00  0.00    +0.046 A 
ATOM      6  C   UNL     1      -6.119   0.687  -0.938  0.00  0.00    +0.010 A 
ATOM      7  C   UNL     1      -6.065   0.585  -2.325  0.00  0.00    +0.011 A 
ATOM      8  C   UNL     1      -7.056   1.159  -3.091  0.00  0.00    +0.001 A 
ATOM      9  C   UNL     1      -8.105   1.835  -2.485  0.00  0.00    +0.002 A 
ATOM     10  C   UNL     1      -8.170   1.944  -1.113  0.00  0.00    +0.026 A 
ATOM     11  C   UNL     1      -7.178   1.372  -0.323  0.00  0.00    +0.047 A 
ATOM     12  N   UNL     1      -6.977   1.315   1.042  0.00  0.00    -0.358 N 
ATOM     13  H   UNL     1      -7.587   1.736   1.854  0.00  0.00    +0.166 HD
ENDBRANCH   1   5
BRANCH   1  14
ATOM     14  C   UNL     1      -2.728   0.170   0.023  0.00  0.00    +0.157 C 
BRANCH  14  15
ATOM     15  S   UNL     1      -1.393  -1.053   0.014  0.00  0.00    -0.078 S 
BRANCH  15  16
ATOM     16  C   UNL     1       0.005   0.019  -0.001  0.00  0.00    +0.192 A 
ATOM     17  N   UNL     1      -0.018   1.332  -0.005  0.00  0.00    -0.123 NA
ATOM     18  N   UNL     1       1.183   1.789  -0.018  0.00  0.00    -0.137 NA
ATOM     19  C   UNL     1       2.037   0.805  -0.022  0.00  0.00    +0.226 A 
ATOM     20  N   UNL     1       1.317  -0.358  -0.012  0.00  0.00    -0.305 N 
BRANCH  20  21
ATOM     21  C   UNL     1       1.845  -1.725  -0.013  0.00  0.00    +0.152 C 
BRANCH  21  22
ATOM     22  C   UNL     1       1.897  -2.242  -1.428  0.00  0.00    -0.013 C 
ATOM     23  C   UNL     1       3.023  -2.698  -1.917  0.00  0.00    +0.005 C 
ENDBRANCH  21  22
ENDBRANCH  20  21
ENDBRANCH  15  16
ENDBRANCH  14  15
ENDBRANCH   1  14
TORSDOF 6
