REMARK  Name = ZINC66671916
REMARK  5 active torsions:
REMARK  status: ('A' for Active; 'I' for Inactive)
REMARK    1  A    between atoms: C_4  and  O_26
REMARK    2  A    between atoms: C_5  and  C_7
REMARK    3  A    between atoms: C_7  and  N_8
REMARK    4  A    between atoms: N_11  and  C_12
REMARK    5  A    between atoms: C_16  and  C_18
REMARK                            x       y       z     vdW  Elec       q    Type
REMARK                         _______ _______ _______ _____ _____    ______ ____
ROOT
ATOM      1  N   UNL     1       1.493  -2.679   1.332  0.00  0.00    -0.295 N 
ATOM      2  C   UNL     1       1.548  -4.005   1.568  0.00  0.00    +0.304 C 
ATOM      3  O   UNL     1       1.380  -4.792   0.656  0.00  0.00    -0.252 OA
ATOM      4  N   UNL     1       1.788  -4.458   2.814  0.00  0.00    -0.269 N 
ATOM      5  H   UNL     1       1.626  -2.051   2.059  0.00  0.00    +0.151 HD
ATOM      6  H   UNL     1       1.989  -3.833   3.528  0.00  0.00    +0.156 HD
ENDROOT
BRANCH   4   7
ATOM      7  C   UNL     1       1.750  -5.832   3.078  0.00  0.00    +0.035 A 
ATOM      8  C   UNL     1       2.191  -6.737   2.120  0.00  0.00    +0.023 A 
ATOM      9  C   UNL     1       2.154  -8.094   2.377  0.00  0.00    +0.002 A 
ATOM     10  C   UNL     1       1.678  -8.559   3.588  0.00  0.00    +0.010 A 
ATOM     11  C   UNL     1       1.234  -7.659   4.554  0.00  0.00    +0.004 A 
ATOM     12  C   UNL     1       1.277  -6.291   4.298  0.00  0.00    +0.033 A 
BRANCH  11  13
ATOM     13  C   UNL     1       0.722  -8.157   5.855  0.00  0.00    +0.091 A 
ATOM     14  C   UNL     1       0.691  -9.547   6.114  0.00  0.00    +0.035 A 
ATOM     15  C   UNL     1       0.215  -9.968   7.321  0.00  0.00    +0.073 A 
ATOM     16  C   UNL     1      -0.220  -8.986   8.239  0.00  0.00    +0.265 A 
ATOM     17  O   UNL     1      -0.653  -9.315   9.331  0.00  0.00    -0.266 OA
ATOM     18  N   UNL     1      -0.151  -7.685   7.901  0.00  0.00    -0.243 N 
ATOM     19  H   UNL     1      -0.451  -7.016   8.536  0.00  0.00    +0.192 HD
ATOM     20  N   UNL     1       0.305  -7.306   6.762  0.00  0.00    -0.171 NA
ENDBRANCH  11  13
ENDBRANCH   4   7
BRANCH   1  21
ATOM     21  C   UNL     1       1.231  -2.186  -0.022  0.00  0.00    +0.144 C 
BRANCH  21  26
ATOM     22  C   UNL     1       0.010   1.386   0.009  0.00  0.00    +0.001 A 
ATOM     23  C   UNL     1       1.201   2.089  -0.003  0.00  0.00    +0.004 A 
ATOM     24  C   UNL     1       2.404   1.411  -0.022  0.00  0.00    +0.046 A 
ATOM     25  C   UNL     1       2.417   0.023  -0.028  0.00  0.00    +0.122 A 
ATOM     26  C   UNL     1       1.221  -0.679  -0.015  0.00  0.00    +0.011 A 
ATOM     27  C   UNL     1       0.020   0.004   0.003  0.00  0.00    +0.009 A 
BRANCH  25  28
ATOM     28  O   UNL     1       3.599  -0.647  -0.048  0.00  0.00    -0.506 OA
ATOM     29  H   UNL     1       3.954  -0.844   0.830  0.00  0.00    +0.292 HD
ENDBRANCH  25  28
ENDBRANCH  21  26
ENDBRANCH   1  21
TORSDOF 5
