REMARK  Name = ZINC53574761
REMARK  10 active torsions:
REMARK  status: ('A' for Active; 'I' for Inactive)
REMARK    1  A    between atoms: C_1  and  N_2
REMARK    2  A    between atoms: C_3  and  C_5
REMARK    3  A    between atoms: C_8  and  N_14
REMARK    4  A    between atoms: C_9  and  N_11
REMARK    5  A    between atoms: N_14  and  C_15
REMARK    6  A    between atoms: C_15  and  C_16
REMARK    7  A    between atoms: C_16  and  C_18
REMARK    8  A    between atoms: C_16  and  N_25
REMARK    9  A    between atoms: N_25  and  C_26
REMARK   10  A    between atoms: N_25  and  C_27
REMARK                            x       y       z     vdW  Elec       q    Type
REMARK                         _______ _______ _______ _____ _____    ______ ____
ROOT
ATOM      1  N   UNL     1       0.888  -6.459  -1.409  0.00  0.00    -0.343 N 
ATOM      2  H   UNL     1       1.268  -6.819  -2.225  0.00  0.00    +0.146 HD
ENDROOT
BRANCH   1   6
ATOM      3  C   UNL     1       0.144  -2.377  -1.084  0.00  0.00    +0.039 A 
ATOM      4  C   UNL     1      -0.241  -3.243  -0.056  0.00  0.00    +0.015 A 
ATOM      5  C   UNL     1       0.006  -4.592  -0.167  0.00  0.00    +0.026 A 
ATOM      6  C   UNL     1       0.639  -5.095  -1.300  0.00  0.00    +0.058 A 
ATOM      7  C   UNL     1       1.024  -4.235  -2.325  0.00  0.00    +0.148 A 
ATOM      8  C   UNL     1       0.774  -2.885  -2.223  0.00  0.00    +0.047 A 
BRANCH   3  11
ATOM      9  C   UNL     1      -0.990   0.996   0.245  0.00  0.00    +0.128 C 
ATOM     10  N   UNL     1      -0.728  -0.441   0.130  0.00  0.00    -0.314 N 
ATOM     11  C   UNL     1      -0.120  -0.930  -0.969  0.00  0.00    +0.244 C 
ATOM     12  O   UNL     1       0.210  -0.179  -1.866  0.00  0.00    -0.270 OA
ATOM     13  H   UNL     1      -0.992  -1.041   0.846  0.00  0.00    +0.149 HD
ENDBRANCH   3  11
BRANCH   7  14
ATOM     14  N   UNL     1       1.698  -4.774  -3.528  0.00  0.00    +0.058 N 
ATOM     15  O   UNL     1       2.592  -4.150  -4.050  0.00  0.00    -0.126 OA
ATOM     16  O   UNL     1       1.353  -5.837  -3.989  0.00  0.00    -0.126 OA
ENDBRANCH   7  14
ENDBRANCH   1   6
BRANCH   1  17
ATOM     17  C   UNL     1       0.575  -7.351  -0.290  0.00  0.00    +0.091 C 
BRANCH  17  18
ATOM     18  C   UNL     1       1.051  -8.768  -0.620  0.00  0.00    -0.021 C 
BRANCH  18  19
ATOM     19  C   UNL     1       0.292  -9.288  -1.813  0.00  0.00    -0.059 A 
ATOM     20  C   UNL     1      -0.987  -9.787  -1.654  0.00  0.00    +0.005 A 
ATOM     21  C   UNL     1      -1.684 -10.264  -2.748  0.00  0.00    +0.038 A 
ATOM     22  C   UNL     1      -1.100 -10.242  -4.003  0.00  0.00    +0.123 A 
ATOM     23  C   UNL     1       0.181  -9.743  -4.161  0.00  0.00    +0.038 A 
ATOM     24  C   UNL     1       0.874  -9.261  -3.067  0.00  0.00    +0.005 A 
ATOM     25  F   UNL     1      -1.780 -10.709  -5.073  0.00  0.00    -0.205 F 
ENDBRANCH  18  19
BRANCH  18  26
ATOM     26  N   UNL     1       0.812  -9.646   0.534  0.00  0.00    +0.382 N 
ATOM     27  C   UNL     1       1.338 -10.987   0.246  0.00  0.00    -0.096 C 
ATOM     28  C   UNL     1       1.490  -9.097   1.716  0.00  0.00    -0.096 C 
ATOM     29  H   UNL     1      -0.180  -9.704   0.712  0.00  0.00    -0.082 HD
ENDBRANCH  18  26
ENDBRANCH  17  18
ENDBRANCH   1  17
TORSDOF 7
