REMARK  Name = ZINC53799436
REMARK  11 active torsions:
REMARK  status: ('A' for Active; 'I' for Inactive)
REMARK    1  A    between atoms: C_1  and  C_2
REMARK    2  A    between atoms: C_2  and  C_3
REMARK    3  A    between atoms: N_5  and  C_6
REMARK    4  A    between atoms: C_9  and  O_26
REMARK    5  A    between atoms: C_10  and  C_12
REMARK    6  A    between atoms: N_14  and  C_15
REMARK    7  A    between atoms: C_15  and  C_16
REMARK    8  A    between atoms: C_16  and  C_18
REMARK    9  A    between atoms: C_16  and  N_23
REMARK   10  A    between atoms: N_23  and  C_24
REMARK   11  A    between atoms: N_23  and  C_25
REMARK                            x       y       z     vdW  Elec       q    Type
REMARK                         _______ _______ _______ _____ _____    ______ ____
ROOT
ATOM      1  C   UNL     1       2.152  -5.619  -4.140  0.00  0.00    +0.248 C 
ATOM      2  O   UNL     1       2.582  -6.019  -5.205  0.00  0.00    -0.270 OA
ATOM      3  N   UNL     1       1.608  -6.487  -3.264  0.00  0.00    -0.312 N 
ATOM      4  H   UNL     1       1.265  -6.168  -2.415  0.00  0.00    +0.149 HD
ENDROOT
BRANCH   1   9
ATOM      5  C   UNL     1       1.802  -2.372  -2.282  0.00  0.00    +0.034 A 
ATOM      6  C   UNL     1       2.364  -1.479  -3.188  0.00  0.00    +0.027 A 
ATOM      7  C   UNL     1       2.854  -1.930  -4.397  0.00  0.00    +0.048 A 
ATOM      8  C   UNL     1       2.789  -3.278  -4.716  0.00  0.00    +0.129 A 
ATOM      9  C   UNL     1       2.224  -4.183  -3.808  0.00  0.00    +0.080 A 
ATOM     10  C   UNL     1       1.735  -3.721  -2.584  0.00  0.00    +0.040 A 
BRANCH   5  13
ATOM     11  C   UNL     1       0.711  -0.699  -0.986  0.00  0.00    +0.217 C 
ATOM     12  O   UNL     1       0.678   0.020  -1.963  0.00  0.00    -0.275 OA
ATOM     13  N   UNL     1       1.308  -1.905  -1.056  0.00  0.00    -0.285 N 
ATOM     14  H   UNL     1       1.395  -2.450  -0.259  0.00  0.00    +0.155 HD
BRANCH  11  16
ATOM     15  C   UNL     1      -0.518   1.151   0.116  0.00  0.00    +0.013 C 
ATOM     16  C   UNL     1       0.085  -0.242   0.306  0.00  0.00    +0.093 C 
ENDBRANCH  11  16
ENDBRANCH   5  13
BRANCH   8  17
ATOM     17  O   UNL     1       3.270  -3.720  -5.906  0.00  0.00    -0.506 OA
ATOM     18  H   UNL     1       4.203  -3.973  -5.883  0.00  0.00    +0.292 HD
ENDBRANCH   8  17
ENDBRANCH   1   9
BRANCH   3  19
ATOM     19  C   UNL     1       1.536  -7.912  -3.594  0.00  0.00    +0.094 C 
BRANCH  19  20
ATOM     20  C   UNL     1       0.772  -8.652  -2.495  0.00  0.00    -0.020 C 
BRANCH  20  21
ATOM     21  C   UNL     1       1.537  -8.557  -1.200  0.00  0.00    -0.052 A 
ATOM     22  C   UNL     1       1.169  -7.639  -0.234  0.00  0.00    +0.009 A 
ATOM     23  C   UNL     1       1.879  -7.580   0.920  0.00  0.00    +0.045 A 
ATOM     24  S   UNL     1       3.109  -8.847   0.663  0.00  0.00    -0.105 S 
ATOM     25  C   UNL     1       2.592  -9.374  -0.963  0.00  0.00    +0.047 A 
ENDBRANCH  20  21
BRANCH  20  26
ATOM     26  N   UNL     1       0.618 -10.064  -2.870  0.00  0.00    +0.382 N 
ATOM     27  C   UNL     1      -0.198 -10.753  -1.861  0.00  0.00    -0.096 C 
ATOM     28  C   UNL     1      -0.043 -10.154  -4.179  0.00  0.00    -0.096 C 
ATOM     29  H   UNL     1       1.527 -10.499  -2.922  0.00  0.00    -0.082 HD
ENDBRANCH  20  26
ENDBRANCH  19  20
ENDBRANCH   3  19
TORSDOF 8
