REMARK  Name = ZINC43541053
REMARK  5 active torsions:
REMARK  status: ('A' for Active; 'I' for Inactive)
REMARK    1  A    between atoms: C_1  and  C_2
REMARK    2  A    between atoms: C_2  and  C_3
REMARK    3  A    between atoms: C_3  and  C_5
REMARK    4  A    between atoms: C_3  and  N_8
REMARK    5  A    between atoms: C_5  and  N_7
REMARK                            x       y       z     vdW  Elec       q    Type
REMARK                         _______ _______ _______ _____ _____    ______ ____
ROOT
ATOM      1  C   UNL     1       0.718  -0.497  -1.257  0.00  0.00    +0.158 C 
ENDROOT
BRANCH   1   2
ATOM      2  N   UNL     1       0.633  -1.958  -1.326  0.00  0.00    -0.261 N 
ATOM      3  C   UNL     1       1.404  -2.832  -0.644  0.00  0.00    +0.124 A 
ATOM      4  C   UNL     1       1.011  -4.082  -0.984  0.00  0.00    +0.055 A 
ATOM      5  C   UNL     1      -0.036  -3.967  -1.905  0.00  0.00    +0.149 A 
ATOM      6  N   UNL     1      -0.266  -2.695  -2.107  0.00  0.00    -0.178 NA
ATOM      7 BR   UNL     1       1.747  -5.696  -0.331  0.00  0.00    -0.047 Br
ENDBRANCH   1   2
BRANCH   1   9
ATOM      8  C   UNL     1      -0.109   1.535  -0.062  0.00  0.00    +0.006 C 
ATOM      9  C   UNL     1      -0.095   0.005  -0.062  0.00  0.00    +0.030 C 
ENDBRANCH   1   9
BRANCH   1  10
ATOM     10  C   UNL     1       2.158  -0.085  -1.093  0.00  0.00    +0.071 C 
ATOM     11  S   UNL     1       2.749   0.193   0.366  0.00  0.00    -0.038 S 
BRANCH  10  12
ATOM     12  N   UNL     1       2.948   0.049  -2.177  0.00  0.00    -0.354 N 
ATOM     13  H   UNL     1       2.573  -0.049  -3.066  0.00  0.00    +0.143 HD
ATOM     14  H   UNL     1       3.893   0.243  -2.068  0.00  0.00    +0.143 HD
ENDBRANCH  10  12
ENDBRANCH   1  10
TORSDOF 4
