REMARK  Name = ZINC02290382
REMARK  7 active torsions:
REMARK  status: ('A' for Active; 'I' for Inactive)
REMARK    1  A    between atoms: C_2  and  C_3
REMARK    2  A    between atoms: C_3  and  N_4
REMARK    3  A    between atoms: C_5  and  C_7
REMARK    4  A    between atoms: N_18  and  C_21
REMARK    5  A    between atoms: C_19  and  N_20
REMARK    6  A    between atoms: C_21  and  C_22
REMARK    7  A    between atoms: C_22  and  C_23
REMARK                            x       y       z     vdW  Elec       q    Type
REMARK                         _______ _______ _______ _____ _____    ______ ____
ROOT
ATOM      1  C   UNL     1       7.652  -2.018  -1.530  0.00  0.00    +0.103 A 
ATOM      2  C   UNL     1       6.986  -3.331  -1.531  0.00  0.00    +0.122 A 
ATOM      3  C   UNL     1       5.550  -3.037  -1.514  0.00  0.00    +0.162 A 
ATOM      4  N   UNL     1       4.686  -4.030  -1.510  0.00  0.00    -0.226 NA
ATOM      5  C   UNL     1       5.125  -5.295  -1.522  0.00  0.00    +0.092 A 
ATOM      6  C   UNL     1       4.208  -6.363  -1.518  0.00  0.00    +0.030 A 
ATOM      7  C   UNL     1       4.662  -7.645  -1.530  0.00  0.00    +0.002 A 
ATOM      8  C   UNL     1       6.028  -7.922  -1.546  0.00  0.00    +0.002 A 
ATOM      9  C   UNL     1       6.945  -6.917  -1.550  0.00  0.00    +0.030 A 
ATOM     10  C   UNL     1       6.513  -5.577  -1.538  0.00  0.00    +0.090 A 
ATOM     11  N   UNL     1       7.406  -4.580  -1.541  0.00  0.00    -0.241 NA
ATOM     12  N   UNL     1       5.420  -1.663  -1.505  0.00  0.00    -0.312 N 
ATOM     13  C   UNL     1       6.641  -1.063  -1.520  0.00  0.00    +0.112 A 
ENDROOT
BRANCH   1  15
ATOM     14  N   UNL     1       9.768  -1.660  -0.383  0.00  0.00    -0.308 N 
ATOM     15  C   UNL     1       9.092  -1.768  -1.544  0.00  0.00    +0.250 C 
ATOM     16  O   UNL     1       9.681  -1.658  -2.604  0.00  0.00    -0.270 OA
ATOM     17  H   UNL     1       9.298  -1.748   0.462  0.00  0.00    +0.149 HD
BRANCH  14  18
ATOM     18  C   UNL     1      11.211  -1.409  -0.396  0.00  0.00    +0.131 C 
BRANCH  18  20
ATOM     19  C   UNL     1      12.703  -2.108   1.406  0.00  0.00    +0.005 C 
ATOM     20  C   UNL     1      11.720  -1.332   1.020  0.00  0.00    -0.016 C 
ENDBRANCH  18  20
ENDBRANCH  14  18
ENDBRANCH   1  15
BRANCH  13  21
ATOM     21  N   UNL     1       6.846   0.292  -1.520  0.00  0.00    -0.344 N 
ATOM     22  H   UNL     1       6.089   0.897  -1.510  0.00  0.00    +0.144 HD
ATOM     23  H   UNL     1       7.750   0.646  -1.531  0.00  0.00    +0.144 HD
ENDBRANCH  13  21
BRANCH  12  24
ATOM     24  C   UNL     1       4.142  -0.948  -1.488  0.00  0.00    +0.130 C 
BRANCH  24  25
ATOM     25  C   UNL     1       3.711  -0.707  -0.039  0.00  0.00    +0.057 C 
BRANCH  25  26
ATOM     26  C   UNL     1       2.396   0.029  -0.022  0.00  0.00    -0.046 A 
ATOM     27  C   UNL     1       1.208  -0.679  -0.014  0.00  0.00    +0.004 A 
ATOM     28  C   UNL     1       0.002  -0.004   0.002  0.00  0.00    +0.000 A 
ATOM     29  C   UNL     1      -0.017   1.378   0.010  0.00  0.00    +0.000 A 
ATOM     30  C   UNL     1       1.171   2.086   0.002  0.00  0.00    +0.000 A 
ATOM     31  C   UNL     1       2.377   1.411  -0.014  0.00  0.00    +0.004 A 
ENDBRANCH  25  26
ENDBRANCH  24  25
ENDBRANCH  12  24
TORSDOF 7
