REMARK  Name = ZINC22348636
REMARK  2 active torsions:
REMARK  status: ('A' for Active; 'I' for Inactive)
REMARK    1  A    between atoms: C_12  and  N_16
REMARK    2  A    between atoms: C_17  and  C_19
REMARK                            x       y       z     vdW  Elec       q    Type
REMARK                         _______ _______ _______ _____ _____    ______ ____
ROOT
ATOM      1  C   UNL     1       2.419   0.038  -0.021  0.00  0.00    +0.046 A 
ATOM      2  C   UNL     1       2.383   1.416  -0.014  0.00  0.00    +0.044 A 
ATOM      3  C   UNL     1       1.170   2.092   0.002  0.00  0.00    +0.040 A 
ATOM      4  C   UNL     1      -0.017   1.393   0.010  0.00  0.00    +0.052 A 
ATOM      5  C   UNL     1       0.002  -0.004   0.002  0.00  0.00    +0.022 A 
ATOM      6  C   UNL     1       1.233  -0.688  -0.013  0.00  0.00    +0.050 A 
ATOM      7  N   UNL     1       0.950  -2.037  -0.018  0.00  0.00    -0.358 N 
ATOM      8  H   UNL     1       1.769  -2.771  -0.029  0.00  0.00    +0.166 HD
ATOM      9  C   UNL     1      -0.404  -2.229  -0.006  0.00  0.00    +0.020 A 
ATOM     10  C   UNL     1      -1.029  -1.037   0.007  0.00  0.00    -0.016 A 
ATOM     11  C   UNL     1      -2.525  -0.853   0.024  0.00  0.00    +0.059 C 
ATOM     12  C   UNL     1      -3.173  -2.181   0.432  0.00  0.00    +0.078 C 
ATOM     13  C   UNL     1      -2.586  -3.313  -0.416  0.00  0.00    +0.028 C 
ATOM     14  C   UNL     1      -1.129  -3.556  -0.009  0.00  0.00    +0.055 C 
ATOM     15 CL   UNL     1      -1.530   2.244   0.021  0.00  0.00    -0.083 Cl
ATOM     16 CL   UNL     1       3.868   2.314  -0.025  0.00  0.00    -0.083 Cl
ENDROOT
BRANCH  12  17
ATOM     17  N   UNL     1      -4.620  -2.107   0.215  0.00  0.00    -0.312 N 
ATOM     18  C   UNL     1      -5.449  -2.896   0.927  0.00  0.00    +0.217 C 
ATOM     19  O   UNL     1      -4.998  -3.667   1.747  0.00  0.00    -0.275 OA
ATOM     20  H   UNL     1      -5.029  -1.407  -0.528  0.00  0.00    +0.149 HD
BRANCH  18  21
ATOM     21  C   UNL     1      -6.938  -2.820   0.704  0.00  0.00    +0.079 C 
ATOM     22  C   UNL     1      -7.651  -3.793   1.650  0.00  0.00    +0.017 C 
ATOM     23  C   UNL     1      -9.136  -3.826   1.282  0.00  0.00    +0.027 C 
ATOM     24  C   UNL     1      -9.672  -2.429   1.171  0.00  0.00    -0.031 C 
ATOM     25  C   UNL     1      -8.931  -1.375   1.046  0.00  0.00    -0.030 C 
ATOM     26  C   UNL     1      -7.431  -1.403   1.005  0.00  0.00    +0.039 C 
ENDBRANCH  18  21
ENDBRANCH  12  17
TORSDOF 2
