REMARK  Name = ZINC00832969
REMARK  8 active torsions:
REMARK  status: ('A' for Active; 'I' for Inactive)
REMARK    1  A    between atoms: C_1  and  C_2
REMARK    2  A    between atoms: C_2  and  C_35
REMARK    3  A    between atoms: C_6  and  C_19
REMARK    4  A    between atoms: C_22  and  O_27
REMARK    5  A    between atoms: C_23  and  O_25
REMARK    6  A    between atoms: O_25  and  C_26
REMARK    7  A    between atoms: O_27  and  C_28
REMARK    8  A    between atoms: C_28  and  C_29
REMARK                            x       y       z     vdW  Elec       q    Type
REMARK                         _______ _______ _______ _____ _____    ______ ____
ROOT
ATOM      1  C   UNL     1      -0.019   1.528   0.010  0.00  0.00    +0.011 C 
ATOM      2  C   UNL     1       0.002  -0.004   0.002  0.00  0.00    -0.024 C 
ATOM      3  C   UNL     1      -1.435  -0.530   0.043  0.00  0.00    +0.043 C 
ATOM      4  C   UNL     1      -1.440  -2.034   0.086  0.00  0.00    -0.029 C 
ATOM      5  C   UNL     1      -0.428  -2.697   0.718  0.00  0.00    +0.023 C 
ATOM      6  C   UNL     1      -0.428  -4.208   0.773  0.00  0.00    +0.135 C 
ATOM      7  N   UNL     1      -1.099  -4.725  -0.425  0.00  0.00    -0.332 N 
ATOM      8  C   UNL     1      -2.296  -4.130  -0.803  0.00  0.00    +0.036 A 
ATOM      9  C   UNL     1      -2.489  -2.768  -0.517  0.00  0.00    +0.007 A 
ATOM     10  C   UNL     1      -3.795  -2.184  -0.820  0.00  0.00    -0.009 A 
ATOM     11  C   UNL     1      -4.177  -0.912  -0.386  0.00  0.00    +0.009 A 
ATOM     12  C   UNL     1      -5.389  -0.397  -0.748  0.00  0.00    +0.001 A 
ATOM     13  C   UNL     1      -6.269  -1.128  -1.539  0.00  0.00    +0.001 A 
ATOM     14  C   UNL     1      -5.954  -2.390  -1.941  0.00  0.00    +0.008 A 
ATOM     15  C   UNL     1      -4.732  -2.961  -1.550  0.00  0.00    -0.017 A 
ATOM     16  C   UNL     1      -4.444  -4.306  -1.854  0.00  0.00    +0.010 A 
ATOM     17  C   UNL     1      -3.268  -4.868  -1.476  0.00  0.00    +0.024 A 
ATOM     18  C   UNL     1       0.635  -2.007   1.315  0.00  0.00    +0.162 C 
ATOM     19  O   UNL     1       1.499  -2.632   1.902  0.00  0.00    -0.292 OA
ATOM     20  C   UNL     1       0.743  -0.509   1.243  0.00  0.00    +0.086 C 
ATOM     21  C   UNL     1       0.705  -0.494  -1.264  0.00  0.00    +0.011 C 
ATOM     22  H   UNL     1      -0.720  -5.455  -0.936  0.00  0.00    +0.147 HD
ENDROOT
BRANCH   6  23
ATOM     23  C   UNL     1      -1.165  -4.672   2.003  0.00  0.00    -0.019 A 
ATOM     24  C   UNL     1      -2.547  -4.714   2.004  0.00  0.00    +0.009 A 
ATOM     25  C   UNL     1      -3.227  -5.139   3.129  0.00  0.00    +0.050 A 
ATOM     26  C   UNL     1      -2.525  -5.524   4.260  0.00  0.00    +0.163 A 
ATOM     27  C   UNL     1      -1.134  -5.482   4.258  0.00  0.00    +0.162 A 
ATOM     28  C   UNL     1      -0.458  -5.060   3.125  0.00  0.00    +0.055 A 
BRANCH  27  29
ATOM     29  O   UNL     1      -0.440  -5.860   5.365  0.00  0.00    -0.491 OA
ATOM     30  C   UNL     1       0.986  -5.791   5.292  0.00  0.00    +0.277 C 
ENDBRANCH  27  29
BRANCH  26  31
ATOM     31  O   UNL     1      -3.193  -5.942   5.368  0.00  0.00    -0.477 OA
BRANCH  31  32
ATOM     32  C   UNL     1      -4.620  -5.959   5.297  0.00  0.00    +0.354 C 
BRANCH  32  33
ATOM     33  C   UNL     1      -5.182  -6.447   6.608  0.00  0.00    +0.393 C 
ATOM     34  O   UNL     1      -4.430  -6.751   7.518  0.00  0.00    -0.243 OA
ATOM     35  O   UNL     1      -6.389  -6.536   6.758  0.00  0.00    -0.243 OA
ENDBRANCH  32  33
ENDBRANCH  31  32
ENDBRANCH  26  31
ENDBRANCH   6  23
TORSDOF 5
