REMARK  Name = ZINC66489846
REMARK  6 active torsions:
REMARK  status: ('A' for Active; 'I' for Inactive)
REMARK    1  A    between atoms: C_1  and  O_2
REMARK    2  A    between atoms: O_2  and  C_3
REMARK    3  A    between atoms: N_5  and  C_6
REMARK    4  A    between atoms: C_8  and  N_13
REMARK    5  A    between atoms: C_14  and  C_16
REMARK    6  A    between atoms: C_16  and  C_19
REMARK                            x       y       z     vdW  Elec       q    Type
REMARK                         _______ _______ _______ _____ _____    ______ ____
ROOT
ATOM      1  N   UNL     1       2.901  -1.809  -5.388  0.00  0.00    -0.285 N 
ATOM      2  C   UNL     1       3.307  -2.460  -6.495  0.00  0.00    +0.228 C 
ATOM      3  O   UNL     1       3.242  -3.670  -6.546  0.00  0.00    -0.275 OA
ATOM      4  H   UNL     1       3.061  -0.856  -5.299  0.00  0.00    +0.155 HD
ENDROOT
BRANCH   1   7
ATOM      5  C   UNL     1       0.733  -2.535  -2.502  0.00  0.00    +0.073 A 
ATOM      6  C   UNL     1       1.378  -1.840  -3.514  0.00  0.00    +0.049 A 
ATOM      7  C   UNL     1       2.248  -2.507  -4.364  0.00  0.00    +0.035 A 
ATOM      8  C   UNL     1       2.471  -3.868  -4.201  0.00  0.00    +0.026 A 
ATOM      9  C   UNL     1       1.827  -4.559  -3.192  0.00  0.00    +0.042 A 
ATOM     10  C   UNL     1       0.963  -3.897  -2.339  0.00  0.00    +0.145 A 
ATOM     11  F   UNL     1       0.340  -4.574  -1.350  0.00  0.00    -0.204 F 
BRANCH   5  14
ATOM     12  C   UNL     1      -0.849  -0.805  -2.087  0.00  0.00    +0.404 C 
ATOM     13  O   UNL     1      -0.723  -0.433  -3.237  0.00  0.00    -0.226 OA
ATOM     14  N   UNL     1      -0.146  -1.865  -1.641  0.00  0.00    -0.248 N 
ATOM     15  H   UNL     1      -0.248  -2.163  -0.723  0.00  0.00    +0.158 HD
BRANCH  12  17
ATOM     16  C   UNL     1      -2.404   0.956  -1.798  0.00  0.00    +0.282 C 
ATOM     17  O   UNL     1      -1.691  -0.159  -1.258  0.00  0.00    -0.453 OA
ENDBRANCH  12  17
ENDBRANCH   5  14
ENDBRANCH   1   7
BRANCH   2  18
ATOM     18  C   UNL     1       3.841  -1.684  -7.672  0.00  0.00    +0.072 C 
ATOM     19  C   UNL     1       5.134  -2.184  -8.319  0.00  0.00    +0.022 C 
ATOM     20  C   UNL     1       5.145  -0.909  -7.473  0.00  0.00    +0.022 C 
BRANCH  18  21
ATOM     21  C   UNL     1       2.800  -1.075  -8.576  0.00  0.00    -0.032 A 
ATOM     22  C   UNL     1       3.079   0.093  -9.260  0.00  0.00    +0.006 A 
ATOM     23  C   UNL     1       2.124   0.652 -10.089  0.00  0.00    +0.020 A 
ATOM     24  C   UNL     1       0.891   0.043 -10.234  0.00  0.00    +0.041 A 
ATOM     25  C   UNL     1       0.613  -1.127  -9.549  0.00  0.00    +0.020 A 
ATOM     26  C   UNL     1       1.570  -1.688  -8.724  0.00  0.00    +0.006 A 
ATOM     27 CL   UNL     1      -0.308   0.745 -11.275  0.00  0.00    -0.084 Cl
ENDBRANCH  18  21
ENDBRANCH   2  18
TORSDOF 5
