REMARK  Name = ZINC64816345
REMARK  10 active torsions:
REMARK  status: ('A' for Active; 'I' for Inactive)
REMARK    1  A    between atoms: C_1  and  C_2
REMARK    2  A    between atoms: C_5  and  N_9
REMARK    3  A    between atoms: C_6  and  C_8
REMARK    4  A    between atoms: C_14  and  C_27
REMARK    5  A    between atoms: C_18  and  C_19
REMARK    6  A    between atoms: C_18  and  C_20
REMARK    7  A    between atoms: N_22  and  C_23
REMARK    8  A    between atoms: C_23  and  C_24
REMARK    9  A    between atoms: C_24  and  O_25
REMARK   10  A    between atoms: O_25  and  C_26
REMARK                            x       y       z     vdW  Elec       q    Type
REMARK                         _______ _______ _______ _____ _____    ______ ____
ROOT
ATOM      1  N   UNL     1       0.016  -3.955  -0.031  0.00  0.00    -0.250 N 
ATOM      2  C   UNL     1      -1.212  -4.527  -0.016  0.00  0.00    +0.270 C 
ATOM      3  O   UNL     1      -2.218  -3.893  -0.275  0.00  0.00    -0.268 OA
ATOM      4  C   UNL     1      -1.262  -5.957   0.328  0.00  0.00    +0.125 A 
ATOM      5  C   UNL     1      -2.280  -6.863   0.264  0.00  0.00    +0.063 A 
ATOM      6  C   UNL     1      -1.714  -8.079   0.711  0.00  0.00    +0.100 A 
ATOM      7  N   UNL     1      -0.448  -7.844   1.010  0.00  0.00    -0.170 NA
ATOM      8  N   UNL     1      -0.154  -6.619   0.811  0.00  0.00    -0.256 N 
ATOM      9  C   UNL     1       1.113  -5.912   1.038  0.00  0.00    +0.179 C 
ATOM     10  C   UNL     1       1.232  -4.757   0.040  0.00  0.00    +0.135 C 
ATOM     11  C   UNL     1       1.530  -5.326  -1.349  0.00  0.00    +0.044 C 
ENDROOT
BRANCH   1  16
ATOM     12  C   UNL     1       0.437   1.690  -0.396  0.00  0.00    +0.044 C 
ATOM     13  C   UNL     1       0.326   0.190  -0.299  0.00  0.00    -0.050 A 
ATOM     14  C   UNL     1       0.364  -0.580  -1.447  0.00  0.00    +0.005 A 
ATOM     15  C   UNL     1       0.262  -1.955  -1.362  0.00  0.00    +0.024 A 
ATOM     16  C   UNL     1       0.121  -2.563  -0.121  0.00  0.00    +0.041 A 
ATOM     17  C   UNL     1       0.083  -1.787   1.030  0.00  0.00    -0.029 A 
ATOM     18  C   UNL     1       0.191  -0.413   0.938  0.00  0.00    +0.008 A 
ATOM     19  C   UNL     1      -0.070  -2.443   2.378  0.00  0.00    +0.045 C 
ENDBRANCH   1  16
BRANCH   6  20
ATOM     20  C   UNL     1      -2.412  -9.378   0.824  0.00  0.00    +0.039 A 
ATOM     21  C   UNL     1      -1.926 -10.584   1.253  0.00  0.00    +0.018 A 
ATOM     22  C   UNL     1      -2.773 -11.670   1.272  0.00  0.00    +0.008 A 
ATOM     23  C   UNL     1      -4.060 -11.513   0.868  0.00  0.00    +0.046 A 
ATOM     24  S   UNL     1      -4.109  -9.780   0.445  0.00  0.00    -0.095 S 
ENDBRANCH   6  20
BRANCH  10  25
ATOM     25  C   UNL     1       2.378  -3.870   0.455  0.00  0.00    +0.239 C 
ATOM     26  O   UNL     1       2.820  -3.939   1.583  0.00  0.00    -0.273 OA
ATOM     27  N   UNL     1       2.911  -3.001  -0.426  0.00  0.00    -0.311 N 
ATOM     28  H   UNL     1       2.598  -2.988  -1.344  0.00  0.00    +0.149 HD
BRANCH  27  29
ATOM     29  C   UNL     1       3.963  -2.076   0.003  0.00  0.00    +0.132 C 
BRANCH  29  30
ATOM     30  C   UNL     1       4.375  -1.191  -1.175  0.00  0.00    +0.178 C 
BRANCH  30  31
ATOM     31  O   UNL     1       3.277  -0.359  -1.553  0.00  0.00    -0.381 OA
ATOM     32  C   UNL     1       3.521   0.433  -2.717  0.00  0.00    +0.194 C 
ENDBRANCH  30  31
ENDBRANCH  29  30
ENDBRANCH  27  29
ENDBRANCH  10  25
TORSDOF 6
