REMARK  Name = ZINC39583691
REMARK  8 active torsions:
REMARK  status: ('A' for Active; 'I' for Inactive)
REMARK    1  A    between atoms: C_1  and  C_2
REMARK    2  A    between atoms: C_2  and  N_3
REMARK    3  A    between atoms: C_4  and  C_22
REMARK    4  A    between atoms: C_8  and  S_10
REMARK    5  A    between atoms: S_10  and  C_11
REMARK    6  A    between atoms: C_11  and  C_12
REMARK    7  A    between atoms: C_25  and  O_28
REMARK    8  A    between atoms: O_28  and  C_29
REMARK                            x       y       z     vdW  Elec       q    Type
REMARK                         _______ _______ _______ _____ _____    ______ ____
ROOT
ATOM      1  N   UNL     1       0.236  -0.664  -1.261  0.00  0.00    -0.258 NA
ATOM      2  C   UNL     1       1.003  -1.922  -1.107  0.00  0.00    +0.171 C 
ATOM      3  N   UNL     1       0.269  -2.903  -1.949  0.00  0.00    -0.233 NA
ATOM      4  N   UNL     1      -0.147  -2.099  -3.109  0.00  0.00    -0.229 NA
ATOM      5  C   UNL     1      -0.498  -0.779  -2.538  0.00  0.00    +0.200 C 
ATOM      6  H   UNL     1      -0.532  -3.272  -1.459  0.00  0.00    +0.143 HD
ATOM      7  H   UNL     1      -0.941  -2.516  -3.572  0.00  0.00    +0.143 HD
ENDROOT
BRANCH   2   8
ATOM      8  C   UNL     1       1.012  -2.362   0.334  0.00  0.00    -0.015 A 
ATOM      9  C   UNL     1       2.154  -2.203   1.098  0.00  0.00    +0.010 A 
ATOM     10  C   UNL     1       2.164  -2.606   2.419  0.00  0.00    +0.046 A 
ATOM     11  C   UNL     1       1.027  -3.170   2.980  0.00  0.00    +0.120 A 
ATOM     12  C   UNL     1      -0.117  -3.328   2.212  0.00  0.00    +0.046 A 
ATOM     13  C   UNL     1      -0.124  -2.918   0.892  0.00  0.00    +0.010 A 
BRANCH  11  14
ATOM     14  O   UNL     1       1.035  -3.567   4.279  0.00  0.00    -0.495 OA
ATOM     15  C   UNL     1      -0.171  -4.139   4.790  0.00  0.00    +0.277 C 
ENDBRANCH  11  14
ENDBRANCH   2   8
BRANCH   1  17
ATOM     16  C   UNL     1      -1.372   0.891  -0.266  0.00  0.00    +0.020 C 
ATOM     17  C   UNL     1      -0.690  -0.472  -0.137  0.00  0.00    +0.085 C 
ENDBRANCH   1  17
BRANCH   5  18
ATOM     18  S   UNL     1       0.012   0.544  -3.670  0.00  0.00    -0.117 S 
BRANCH  18  19
ATOM     19  C   UNL     1       1.792   0.273  -3.887  0.00  0.00    +0.146 C 
BRANCH  19  20
ATOM     20  C   UNL     1       2.349   1.319  -4.818  0.00  0.00    +0.118 A 
ATOM     21  N   UNL     1       2.425   1.197  -6.171  0.00  0.00    -0.341 N 
ATOM     22  H   UNL     1       2.135   0.435  -6.696  0.00  0.00    +0.167 HD
ATOM     23  C   UNL     1       2.991   2.359  -6.657  0.00  0.00    +0.066 A 
ATOM     24  C   UNL     1       3.319   2.817  -7.925  0.00  0.00    +0.028 A 
ATOM     25  C   UNL     1       3.890   4.063  -8.075  0.00  0.00    +0.002 A 
ATOM     26  C   UNL     1       4.139   4.860  -6.966  0.00  0.00    +0.002 A 
ATOM     27  C   UNL     1       3.824   4.425  -5.710  0.00  0.00    +0.030 A 
ATOM     28  C   UNL     1       3.244   3.166  -5.535  0.00  0.00    +0.089 A 
ATOM     29  N   UNL     1       2.823   2.472  -4.446  0.00  0.00    -0.232 NA
ENDBRANCH  19  20
ENDBRANCH  18  19
ENDBRANCH   5  18
TORSDOF 6
