REMARK  Name = ZINC13039534
REMARK  10 active torsions:
REMARK  status: ('A' for Active; 'I' for Inactive)
REMARK    1  A    between atoms: C_1  and  C_2
REMARK    2  A    between atoms: C_2  and  O_3
REMARK    3  A    between atoms: O_3  and  C_4
REMARK    4  A    between atoms: C_4  and  C_6
REMARK    5  A    between atoms: C_7  and  C_19
REMARK    6  A    between atoms: C_12  and  C_14
REMARK    7  A    between atoms: C_19  and  S_20
REMARK    8  A    between atoms: S_20  and  C_21
REMARK    9  A    between atoms: N_25  and  C_26
REMARK   10  A    between atoms: C_31  and  C_32
REMARK                            x       y       z     vdW  Elec       q    Type
REMARK                         _______ _______ _______ _____ _____    ______ ____
ROOT
ATOM      1  C   UNL     1      -1.045   1.553   4.442  0.00  0.00    +0.079 C 
ATOM      2  C   UNL     1      -0.495   0.983   5.536  0.00  0.00    +0.034 C 
ATOM      3  N   UNL     1      -1.012   1.203   6.781  0.00  0.00    -0.272 N 
ATOM      4  C   UNL     1      -2.082   1.973   7.015  0.00  0.00    +0.304 C 
ATOM      5  O   UNL     1      -2.471   2.106   8.159  0.00  0.00    -0.252 OA
ATOM      6  N   UNL     1      -2.741   2.605   6.024  0.00  0.00    -0.288 N 
ATOM      7  C   UNL     1      -2.260   2.437   4.643  0.00  0.00    +0.150 C 
ATOM      8  H   UNL     1      -0.582   0.775   7.537  0.00  0.00    +0.156 HD
ATOM      9  H   UNL     1      -3.514   3.159   6.216  0.00  0.00    +0.151 HD
ENDROOT
BRANCH   7  10
ATOM     10  C   UNL     1      -3.389   1.866   3.824  0.00  0.00    +0.015 A 
ATOM     11  C   UNL     1      -3.848   2.261   2.610  0.00  0.00    +0.013 A 
ATOM     12  C   UNL     1      -4.908   1.581   2.041  0.00  0.00    +0.008 A 
ATOM     13  C   UNL     1      -5.459   0.540   2.713  0.00  0.00    +0.045 A 
ATOM     14  S   UNL     1      -4.465   0.491   4.196  0.00  0.00    -0.099 S 
ENDBRANCH   7  10
BRANCH   1  15
ATOM     15  C   UNL     1      -0.508   1.330   3.153  0.00  0.00    +0.339 C 
ATOM     16  O   UNL     1       0.196   2.174   2.632  0.00  0.00    -0.245 OA
BRANCH  15  17
ATOM     17  O   UNL     1      -0.777   0.179   2.500  0.00  0.00    -0.462 OA
BRANCH  17  19
ATOM     18  C   UNL     1      -0.615  -1.335   0.623  0.00  0.00    +0.048 C 
ATOM     19  C   UNL     1      -0.202   0.021   1.202  0.00  0.00    +0.229 C 
ENDBRANCH  17  19
ENDBRANCH  15  17
ENDBRANCH   1  15
BRANCH   2  20
ATOM     20  C   UNL     1       0.711   0.092   5.381  0.00  0.00    +0.128 C 
BRANCH  20  21
ATOM     21  S   UNL     1       2.189   0.978   5.934  0.00  0.00    -0.078 S 
BRANCH  21  22
ATOM     22  C   UNL     1       3.411  -0.260   5.650  0.00  0.00    +0.214 A 
ATOM     23  N   UNL     1       3.204  -1.468   5.171  0.00  0.00    -0.101 NA
ATOM     24  N   UNL     1       4.311  -2.114   5.087  0.00  0.00    -0.022 NA
ATOM     25  N   UNL     1       5.289  -1.386   5.506  0.00  0.00    -0.038 NA
ATOM     26  N   UNL     1       4.742  -0.149   5.890  0.00  0.00    -0.187 N 
BRANCH  26  27
ATOM     27  C   UNL     1       5.425   0.960   6.408  0.00  0.00    +0.073 A 
ATOM     28  C   UNL     1       5.195   2.225   5.884  0.00  0.00    +0.028 A 
ATOM     29  C   UNL     1       5.869   3.316   6.397  0.00  0.00    +0.002 A 
ATOM     30  C   UNL     1       6.772   3.149   7.431  0.00  0.00    +0.000 A 
ATOM     31  C   UNL     1       7.003   1.891   7.955  0.00  0.00    +0.005 A 
ATOM     32  C   UNL     1       6.328   0.796   7.450  0.00  0.00    -0.025 A 
ATOM     33  C   UNL     1       6.575  -0.574   8.025  0.00  0.00    +0.046 C 
ENDBRANCH  26  27
ENDBRANCH  21  22
ENDBRANCH  20  21
ENDBRANCH   2  20
TORSDOF 8
