REMARK  Name = ZINC04577373
REMARK  8 active torsions:
REMARK  status: ('A' for Active; 'I' for Inactive)
REMARK    1  A    between atoms: C_1  and  C_2
REMARK    2  A    between atoms: C_2  and  O_3
REMARK    3  A    between atoms: O_3  and  C_4
REMARK    4  A    between atoms: C_9  and  O_10
REMARK    5  A    between atoms: O_10  and  C_11
REMARK    6  A    between atoms: C_11  and  C_12
REMARK    7  A    between atoms: C_13  and  C_17
REMARK    8  A    between atoms: C_22  and  O_23
REMARK                            x       y       z     vdW  Elec       q    Type
REMARK                         _______ _______ _______ _____ _____    ______ ____
ROOT
ATOM      1  C   UNL     1      -1.239   3.138   0.030  0.00  0.00    +0.162 A 
ATOM      2  C   UNL     1      -0.045   3.838   0.022  0.00  0.00    +0.053 A 
ATOM      3  C   UNL     1       1.165   3.160   0.009  0.00  0.00    -0.044 A 
ATOM      4  C   UNL     1       1.182   1.782   0.000  0.00  0.00    -0.050 A 
ATOM      5  C   UNL     1      -0.013   1.076   0.008  0.00  0.00    +0.052 A 
ATOM      6  C   UNL     1      -1.222   1.747   0.017  0.00  0.00    +0.162 A 
ATOM      7  C   UNL     1       2.472   1.003  -0.021  0.00  0.00    -0.006 C 
ATOM      8  C   UNL     1       3.613   3.088  -0.422  0.00  0.00    -0.077 C 
ATOM      9  C   UNL     1       2.438   3.967   0.007  0.00  0.00    +0.016 C 
ATOM     10  N   UNL     1       3.597   1.855   0.388  0.00  0.00    +0.387 N 
ATOM     11  H   UNL     1       4.477   1.346   0.251  0.00  0.00    -0.085 HD
ATOM     12  H   UNL     1       3.495   2.101   1.380  0.00  0.00    -0.085 HD
ENDROOT
BRANCH   7  13
ATOM     13  C   UNL     1       2.365  -0.162   0.929  0.00  0.00    -0.013 A 
ATOM     14  C   UNL     1       2.838  -0.045   2.222  0.00  0.00    +0.026 A 
ATOM     15  C   UNL     1       2.740  -1.114   3.095  0.00  0.00    +0.043 A 
ATOM     16  C   UNL     1       2.168  -2.302   2.676  0.00  0.00    +0.043 A 
ATOM     17  C   UNL     1       1.694  -2.423   1.383  0.00  0.00    +0.084 A 
ATOM     18  C   UNL     1       1.787  -1.350   0.508  0.00  0.00    +0.137 A 
ATOM     19 CL   UNL     1       0.977  -3.914   0.857  0.00  0.00    -0.080 Cl
ATOM     20 CL   UNL     1       3.335  -0.964   4.719  0.00  0.00    -0.083 Cl
BRANCH  18  21
ATOM     21  O   UNL     1       1.316  -1.464  -0.762  0.00  0.00    -0.505 OA
ATOM     22  H   UNL     1       1.970  -1.788  -1.397  0.00  0.00    +0.292 HD
ENDBRANCH  18  21
ENDBRANCH   7  13
BRANCH   1  23
ATOM     23  O   UNL     1      -2.423   3.807   0.043  0.00  0.00    -0.489 OA
BRANCH  23  25
ATOM     24  C   UNL     1      -3.781   5.806   0.064  0.00  0.00    +0.048 C 
ATOM     25  C   UNL     1      -2.362   5.235   0.049  0.00  0.00    +0.226 C 
ENDBRANCH  23  25
ENDBRANCH   1  23
BRANCH   6  26
ATOM     26  O   UNL     1      -2.390   1.050   0.021  0.00  0.00    -0.489 OA
BRANCH  26  27
ATOM     27  C   UNL     1      -2.294  -0.376   0.014  0.00  0.00    +0.226 C 
ATOM     28  C   UNL     1      -3.700  -0.982   0.018  0.00  0.00    +0.048 C 
ENDBRANCH  26  27
ENDBRANCH   6  26
TORSDOF 6
