REMARK  Name = ZINC07990161
REMARK  6 active torsions:
REMARK  status: ('A' for Active; 'I' for Inactive)
REMARK    1  A    between atoms: C_4  and  C_7
REMARK    2  A    between atoms: C_7  and  S_8
REMARK    3  A    between atoms: S_8  and  N_11
REMARK    4  A    between atoms: C_16  and  C_18
REMARK    5  A    between atoms: C_16  and  C_24
REMARK    6  A    between atoms: C_16  and  N_53
REMARK                            x       y       z     vdW  Elec       q    Type
REMARK                         _______ _______ _______ _____ _____    ______ ____
ROOT
ATOM      1  N   UNL     1      -2.541   0.964  -0.647  0.00  0.00    -0.184 NA
ATOM      2  C   UNL     1      -1.752   0.398   0.457  0.00  0.00    +0.090 C 
ATOM      3  C   UNL     1      -1.868   1.327   1.670  0.00  0.00    -0.060 C 
ATOM      4  C   UNL     1      -2.417   3.224   0.259  0.00  0.00    -0.060 C 
ATOM      5  C   UNL     1      -2.318   2.372  -1.011  0.00  0.00    +0.090 C 
ATOM      6  N   UNL     1      -1.468   2.692   1.263  0.00  0.00    +0.392 N 
ATOM      7  H   UNL     1      -0.530   2.654   0.847  0.00  0.00    -0.080 HD
ENDROOT
BRANCH   1   8
ATOM      8  S   UNL     1      -3.651   0.042  -1.459  0.00  0.00    +0.036 S 
ATOM      9  O   UNL     1      -3.744   0.637  -2.746  0.00  0.00    -0.158 OA
ATOM     10  O   UNL     1      -3.190  -1.294  -1.311  0.00  0.00    -0.158 OA
BRANCH   8  11
ATOM     11  C   UNL     1      -5.203   0.272  -0.550  0.00  0.00    +0.220 C 
BRANCH  11  15
ATOM     12  C   UNL     1      -8.298  -2.005  -2.417  0.00  0.00    +0.000 A 
ATOM     13  C   UNL     1      -7.528  -2.573  -1.419  0.00  0.00    +0.000 A 
ATOM     14  C   UNL     1      -6.527  -1.836  -0.815  0.00  0.00    +0.005 A 
ATOM     15  C   UNL     1      -6.295  -0.532  -1.209  0.00  0.00    -0.025 A 
ATOM     16  C   UNL     1      -7.068   0.038  -2.203  0.00  0.00    +0.005 A 
ATOM     17  C   UNL     1      -8.066  -0.701  -2.811  0.00  0.00    +0.000 A 
ENDBRANCH  11  15
ENDBRANCH   8  11
ENDBRANCH   1   8
BRANCH   6  18
ATOM     18  C   UNL     1      -1.434   3.580   2.443  0.00  0.00    +0.051 C 
BRANCH  18  19
ATOM     19  C   UNL     1      -0.454   3.023   3.443  0.00  0.00    +0.211 C 
ATOM     20  O   UNL     1       0.473   2.340   3.068  0.00  0.00    -0.277 OA
ATOM     21  N   UNL     1      -0.610   3.286   4.756  0.00  0.00    -0.241 N 
ATOM     22  C   UNL     1       0.267   2.788   5.651  0.00  0.00    +0.303 C 
ATOM     23  O   UNL     1       1.196   2.102   5.274  0.00  0.00    -0.253 OA
ATOM     24  N   UNL     1       0.111   3.051   6.964  0.00  0.00    -0.313 N 
ATOM     25  H   UNL     1      -1.352   3.833   5.057  0.00  0.00    +0.159 HD
ATOM     26  H   UNL     1      -0.631   3.598   7.265  0.00  0.00    +0.146 HD
ATOM     27  H   UNL     1       0.742   2.692   7.608  0.00  0.00    +0.146 HD
ENDBRANCH  18  19
BRANCH  18  28
ATOM     28  C   UNL     1      -0.984   4.951   2.008  0.00  0.00    -0.052 A 
ATOM     29  C   UNL     1       0.086   5.086   1.143  0.00  0.00    +0.002 A 
ATOM     30  C   UNL     1       0.496   6.343   0.741  0.00  0.00    +0.000 A 
ATOM     31  C   UNL     1      -0.158   7.467   1.212  0.00  0.00    +0.000 A 
ATOM     32  C   UNL     1      -1.224   7.332   2.081  0.00  0.00    +0.000 A 
ATOM     33  C   UNL     1      -1.637   6.075   2.479  0.00  0.00    +0.002 A 
ENDBRANCH  18  28
ENDBRANCH   6  18
TORSDOF 6
