REMARK  Name = ZINC04171287
REMARK  5 active torsions:
REMARK  status: ('A' for Active; 'I' for Inactive)
REMARK    1  A    between atoms: C_1  and  C_2
REMARK    2  A    between atoms: C_5  and  C_9
REMARK    3  A    between atoms: C_6  and  O_8
REMARK    4  A    between atoms: C_12  and  C_14
REMARK    5  A    between atoms: C_21  and  C_23
REMARK                            x       y       z     vdW  Elec       q    Type
REMARK                         _______ _______ _______ _____ _____    ______ ____
ROOT
ATOM      1  C   UNL     1       0.059  -4.246  -0.035  0.00  0.00    +0.080 C 
ATOM      2  N   UNL     1       0.069  -5.053   0.995  0.00  0.00    -0.153 NA
ATOM      3  N   UNL     1       0.086  -6.292   0.693  0.00  0.00    -0.153 NA
ATOM      4  C   UNL     1       0.090  -6.534  -0.593  0.00  0.00    +0.080 C 
ATOM      5  C   UNL     1       0.065  -5.162  -1.248  0.00  0.00    +0.116 C 
ENDROOT
BRANCH   4   6
ATOM      6  C   UNL     1       0.107  -7.843  -1.257  0.00  0.00    +0.043 A 
ATOM      7  C   UNL     1       0.116  -7.925  -2.652  0.00  0.00    +0.013 A 
ATOM      8  C   UNL     1       0.133  -9.157  -3.278  0.00  0.00    +0.003 A 
ATOM      9  C   UNL     1       0.141 -10.321  -2.538  0.00  0.00    +0.031 A 
ATOM     10  C   UNL     1       0.133 -10.265  -1.142  0.00  0.00    +0.110 A 
ATOM     11  C   UNL     1       0.122  -9.021  -0.496  0.00  0.00    +0.164 A 
ATOM     12  O   UNL     1       0.123  -9.282   0.828  0.00  0.00    -0.439 OA
ATOM     13  C   UNL     1       0.140 -10.614   0.993  0.00  0.00    +0.194 A 
ATOM     14  N   UNL     1       0.139 -11.209  -0.162  0.00  0.00    -0.213 NA
ATOM     15  C   UNL     1       0.148 -11.318   2.325  0.00  0.00    +0.109 C 
ENDBRANCH   4   6
BRANCH   1  20
ATOM     16  C   UNL     1      -0.018   1.503   0.010  0.00  0.00    +0.044 C 
ATOM     17  C   UNL     1       0.002  -0.004   0.002  0.00  0.00    -0.047 A 
ATOM     18  C   UNL     1       0.006  -0.686  -1.204  0.00  0.00    +0.004 A 
ATOM     19  C   UNL     1       0.024  -2.063  -1.225  0.00  0.00    +0.013 A 
ATOM     20  C   UNL     1       0.040  -2.778  -0.022  0.00  0.00    +0.040 A 
ATOM     21  C   UNL     1       0.036  -2.082   1.198  0.00  0.00    +0.126 A 
ATOM     22  C   UNL     1       0.023  -0.697   1.198  0.00  0.00    +0.049 A 
BRANCH  21  23
ATOM     23  O   UNL     1       0.050  -2.764   2.372  0.00  0.00    -0.506 OA
ATOM     24  H   UNL     1       0.938  -2.949   2.708  0.00  0.00    +0.292 HD
ENDBRANCH  21  23
ENDBRANCH   1  20
TORSDOF 3
