REMARK  Name = ZINC11859302
REMARK  10 active torsions:
REMARK  status: ('A' for Active; 'I' for Inactive)
REMARK    1  A    between atoms: C_1  and  C_2
REMARK    2  A    between atoms: C_2  and  N_3
REMARK    3  A    between atoms: N_3  and  C_4
REMARK    4  A    between atoms: N_3  and  C_6
REMARK    5  A    between atoms: C_4  and  C_5
REMARK    6  A    between atoms: C_9  and  C_12
REMARK    7  A    between atoms: C_13  and  C_24
REMARK    8  A    between atoms: C_14  and  C_19
REMARK    9  A    between atoms: C_14  and  O_23
REMARK   10  A    between atoms: C_24  and  C_26
REMARK                            x       y       z     vdW  Elec       q    Type
REMARK                         _______ _______ _______ _____ _____    ______ ____
ROOT
ATOM      1  C   UNL     1       1.181  -6.079   0.957  0.00  0.00    +0.120 C 
ATOM      2  C   UNL     1       1.552  -6.622   2.341  0.00  0.00    +0.144 C 
ATOM      3  C   UNL     1       2.965  -6.144   2.690  0.00  0.00    +0.243 C 
ATOM      4  N   UNL     1       3.887  -6.553   1.629  0.00  0.00    -0.264 N 
ATOM      5  C   UNL     1       3.471  -6.699   0.361  0.00  0.00    +0.302 C 
ATOM      6  O   UNL     1       4.279  -7.031  -0.483  0.00  0.00    -0.253 OA
ATOM      7  N   UNL     1       2.199  -6.492  -0.010  0.00  0.00    -0.292 N 
ATOM      8  H   UNL     1       4.817  -6.723   1.846  0.00  0.00    +0.153 HD
ATOM      9  H   UNL     1       1.949  -6.619  -0.939  0.00  0.00    +0.151 HD
ENDROOT
BRANCH   1  13
ATOM     10  C   UNL     1       0.994  -1.814   1.099  0.00  0.00    +0.013 A 
ATOM     11  C   UNL     1       2.124  -2.440   0.608  0.00  0.00    +0.022 A 
ATOM     12  C   UNL     1       2.185  -3.820   0.562  0.00  0.00    +0.007 A 
ATOM     13  C   UNL     1       1.115  -4.574   1.008  0.00  0.00    -0.026 A 
ATOM     14  C   UNL     1      -0.015  -3.948   1.499  0.00  0.00    +0.007 A 
ATOM     15  C   UNL     1      -0.074  -2.568   1.549  0.00  0.00    +0.022 A 
BRANCH  10  16
ATOM     16  N   UNL     1       0.932  -0.418   1.145  0.00  0.00    -0.394 NA
ATOM     17  H   UNL     1       0.045  -0.133   1.532  0.00  0.00    +0.126 HD
BRANCH  16  19
ATOM     18  C   UNL     1       1.881   1.609   2.141  0.00  0.00    +0.022 C 
ATOM     19  C   UNL     1       2.021   0.093   1.989  0.00  0.00    +0.081 C 
ENDBRANCH  16  19
BRANCH  16  20
ATOM     20  C   UNL     1       1.071   0.124  -0.214  0.00  0.00    +0.081 C 
ATOM     21  C   UNL     1      -0.130  -0.306  -1.059  0.00  0.00    +0.022 C 
ENDBRANCH  16  20
ENDBRANCH  10  16
ENDBRANCH   1  13
BRANCH   3  22
ATOM     22  C   UNL     1       3.403  -6.768   4.016  0.00  0.00    +0.436 C 
ATOM     23  F   UNL     1       3.572  -8.146   3.850  0.00  0.00    -0.166 F 
ATOM     24  F   UNL     1       4.614  -6.196   4.423  0.00  0.00    -0.166 F 
ATOM     25  F   UNL     1       2.425  -6.531   4.988  0.00  0.00    -0.166 F 
ENDBRANCH   3  22
BRANCH   3  26
ATOM     26  O   UNL     1       2.972  -4.719   2.805  0.00  0.00    -0.364 OA
ATOM     27  H   UNL     1       3.837  -4.347   3.025  0.00  0.00    +0.212 HD
ENDBRANCH   3  26
BRANCH   2  28
ATOM     28  C   UNL     1       1.519  -8.129   2.318  0.00  0.00    +0.174 C 
ATOM     29  O   UNL     1       2.291  -8.742   1.613  0.00  0.00    -0.291 OA
BRANCH  28  30
ATOM     30  C   UNL     1       0.549  -8.856   3.153  0.00  0.00    +0.036 A 
ATOM     31  C   UNL     1       0.437 -10.252   3.066  0.00  0.00    +0.014 A 
ATOM     32  C   UNL     1      -0.490 -10.886   3.873  0.00  0.00    +0.020 A 
ATOM     33  C   UNL     1      -1.269 -10.132   4.732  0.00  0.00    +0.111 A 
ATOM     34  N   UNL     1      -1.142  -8.820   4.795  0.00  0.00    -0.263 NA
ATOM     35  C   UNL     1      -0.272  -8.169   4.052  0.00  0.00    +0.122 A 
ENDBRANCH  28  30
ENDBRANCH   2  28
TORSDOF 8
