REMARK  Name = ZINC03141982
REMARK  8 active torsions:
REMARK  status: ('A' for Active; 'I' for Inactive)
REMARK    1  A    between atoms: C_1  and  C_2
REMARK    2  A    between atoms: C_2  and  C_24
REMARK    3  A    between atoms: C_3  and  C_18
REMARK    4  A    between atoms: C_5  and  C_9
REMARK    5  A    between atoms: N_7  and  O_8
REMARK    6  A    between atoms: C_13  and  O_16
REMARK    7  A    between atoms: C_14  and  O_15
REMARK    8  A    between atoms: O_16  and  C_17
REMARK                            x       y       z     vdW  Elec       q    Type
REMARK                         _______ _______ _______ _____ _____    ______ ____
ROOT
ATOM      1  C   UNL     1      -0.012  -0.726  -2.325  0.00  0.00    +0.037 C 
ATOM      2  C   UNL     1       0.870  -0.448  -1.106  0.00  0.00    +0.086 C 
ATOM      3  C   UNL     1       1.235  -1.742  -0.413  0.00  0.00    +0.067 C 
ATOM      4  N   UNL     1       1.095  -1.600   0.863  0.00  0.00    -0.260 NA
ATOM      5  C   UNL     1       0.636  -0.243   1.183  0.00  0.00    +0.234 C 
ATOM      6  N   UNL     1       0.115   0.320  -0.085  0.00  0.00    -0.151 NA
ATOM      7  C   UNL     1       2.132   0.311  -1.520  0.00  0.00    +0.037 C 
ENDROOT
BRANCH   5   8
ATOM      8  C   UNL     1      -0.459  -0.294   2.218  0.00  0.00    +0.038 A 
ATOM      9  C   UNL     1      -1.529   0.577   2.135  0.00  0.00    +0.011 A 
ATOM     10  C   UNL     1      -2.537   0.530   3.079  0.00  0.00    +0.004 A 
ATOM     11  C   UNL     1      -2.474  -0.382   4.117  0.00  0.00    +0.049 A 
ATOM     12  C   UNL     1      -1.402  -1.254   4.209  0.00  0.00    +0.162 A 
ATOM     13  C   UNL     1      -0.389  -1.210   3.255  0.00  0.00    +0.165 A 
BRANCH  13  14
ATOM     14  O   UNL     1       0.666  -2.063   3.341  0.00  0.00    -0.503 OA
ATOM     15  H   UNL     1       1.408  -1.721   3.857  0.00  0.00    +0.292 HD
ENDBRANCH  13  14
BRANCH  12  16
ATOM     16  O   UNL     1      -1.339  -2.151   5.229  0.00  0.00    -0.491 OA
ATOM     17  C   UNL     1      -2.413  -2.139   6.171  0.00  0.00    +0.277 C 
ENDBRANCH  12  16
ENDBRANCH   5   8
BRANCH   3  18
ATOM     18  C   UNL     1       1.683  -2.975  -1.090  0.00  0.00    -0.002 A 
ATOM     19  C   UNL     1       2.230  -2.912  -2.373  0.00  0.00    +0.010 A 
ATOM     20  C   UNL     1       2.651  -4.068  -2.998  0.00  0.00    +0.001 A 
ATOM     21  C   UNL     1       2.522  -5.289  -2.360  0.00  0.00    +0.000 A 
ATOM     22  C   UNL     1       1.976  -5.359  -1.090  0.00  0.00    +0.001 A 
ATOM     23  C   UNL     1       1.556  -4.211  -0.452  0.00  0.00    +0.010 A 
ENDBRANCH   3  18
BRANCH   6  24
ATOM     24  O   UNL     1       0.406   1.750  -0.183  0.00  0.00    -0.309 OA
ATOM     25  H   UNL     1       1.349   1.962  -0.158  0.00  0.00    +0.237 HD
ENDBRANCH   6  24
TORSDOF 5
