REMARK  Name = ZINC38759989
REMARK  11 active torsions:
REMARK  status: ('A' for Active; 'I' for Inactive)
REMARK    1  A    between atoms: C_1  and  C_2
REMARK    2  A    between atoms: C_5  and  C_32
REMARK    3  A    between atoms: C_6  and  C_8
REMARK    4  A    between atoms: C_8  and  O_9
REMARK    5  A    between atoms: O_9  and  C_10
REMARK    6  A    between atoms: C_13  and  C_17
REMARK    7  A    between atoms: C_14  and  O_16
REMARK    8  A    between atoms: C_19  and  O_23
REMARK    9  A    between atoms: O_23  and  C_24
REMARK   10  A    between atoms: C_29  and  O_30
REMARK   11  A    between atoms: O_30  and  C_31
REMARK                            x       y       z     vdW  Elec       q    Type
REMARK                         _______ _______ _______ _____ _____    ______ ____
ROOT
ATOM      1  C   UNL     1      -0.468  -1.859   4.752  0.00  0.00    +0.124 A 
ATOM      2  C   UNL     1      -0.258  -3.229   4.823  0.00  0.00    +0.046 A 
ATOM      3  C   UNL     1      -0.071  -3.838   6.048  0.00  0.00    +0.013 A 
ATOM      4  C   UNL     1      -0.094  -3.085   7.207  0.00  0.00    +0.025 A 
ATOM      5  C   UNL     1      -0.305  -1.716   7.142  0.00  0.00    +0.126 A 
ATOM      6  C   UNL     1      -0.486  -1.101   5.912  0.00  0.00    +0.091 A 
ENDROOT
BRANCH   4   7
ATOM      7  C   UNL     1       0.108  -3.753   8.543  0.00  0.00    +0.199 C 
ATOM      8  C   UNL     1      -1.225  -4.146   9.156  0.00  0.00    +0.154 C 
ATOM      9  C   UNL     1      -1.146  -5.489   9.256  0.00  0.00    +0.176 C 
ATOM     10  N   UNL     1       0.030  -5.929   8.795  0.00  0.00    -0.182 NA
ATOM     11  N   UNL     1       0.792  -5.048   8.381  0.00  0.00    -0.294 N 
ATOM     12  H   UNL     1       1.680  -5.182   8.014  0.00  0.00    +0.184 HD
BRANCH   8  13
ATOM     13  O   UNL     1      -2.247  -3.341   9.516  0.00  0.00    -0.453 OA
BRANCH  13  14
ATOM     14  C   UNL     1      -2.049  -2.481  10.550  0.00  0.00    +0.170 A 
ATOM     15  C   UNL     1      -0.868  -2.527  11.276  0.00  0.00    +0.050 A 
ATOM     16  C   UNL     1      -0.668  -1.652  12.326  0.00  0.00    +0.004 A 
ATOM     17  C   UNL     1      -1.643  -0.729  12.656  0.00  0.00    +0.004 A 
ATOM     18  C   UNL     1      -2.822  -0.677  11.937  0.00  0.00    +0.049 A 
ATOM     19  C   UNL     1      -3.027  -1.548  10.879  0.00  0.00    +0.162 A 
BRANCH  19  20
ATOM     20  O   UNL     1      -4.185  -1.494  10.167  0.00  0.00    -0.491 OA
ATOM     21  C   UNL     1      -5.144  -0.511  10.561  0.00  0.00    +0.277 C 
ENDBRANCH  19  20
ENDBRANCH  13  14
ENDBRANCH   8  13
ENDBRANCH   4   7
BRANCH   5  22
ATOM     22  O   UNL     1      -0.327  -0.976   8.282  0.00  0.00    -0.506 OA
ATOM     23  H   UNL     1       0.537  -0.631   8.544  0.00  0.00    +0.292 HD
ENDBRANCH   5  22
BRANCH   1  24
ATOM     24  O   UNL     1      -0.652  -1.261   3.546  0.00  0.00    -0.487 OA
BRANCH  24  25
ATOM     25  C   UNL     1      -0.621  -2.103   2.392  0.00  0.00    +0.264 C 
BRANCH  25  31
ATOM     26  C   UNL     1      -1.443   2.346   0.253  0.00  0.00    +0.044 C 
ATOM     27  C   UNL     1      -1.235   0.858   0.132  0.00  0.00    -0.050 A 
ATOM     28  C   UNL     1      -1.246   0.257  -1.113  0.00  0.00    +0.003 A 
ATOM     29  C   UNL     1      -1.056  -1.107  -1.224  0.00  0.00    +0.004 A 
ATOM     30  C   UNL     1      -0.853  -1.871  -0.089  0.00  0.00    -0.044 A 
ATOM     31  C   UNL     1      -0.841  -1.270   1.155  0.00  0.00    -0.007 A 
ATOM     32  C   UNL     1      -1.028   0.095   1.266  0.00  0.00    +0.010 A 
ATOM     33  C   UNL     1      -0.646  -3.359  -0.210  0.00  0.00    +0.044 C 
ENDBRANCH  25  31
ENDBRANCH  24  25
ENDBRANCH   1  24
TORSDOF 8
