REMARK  Name = ZINC67465362
REMARK  8 active torsions:
REMARK  status: ('A' for Active; 'I' for Inactive)
REMARK    1  A    between atoms: C_1  and  C_2
REMARK    2  A    between atoms: C_4  and  O_23
REMARK    3  A    between atoms: C_7  and  N_8
REMARK    4  A    between atoms: C_9  and  C_11
REMARK    5  A    between atoms: C_11  and  N_12
REMARK    6  A    between atoms: C_13  and  C_15
REMARK    7  A    between atoms: O_23  and  C_24
REMARK    8  A    between atoms: C_24  and  C_25
REMARK                            x       y       z     vdW  Elec       q    Type
REMARK                         _______ _______ _______ _____ _____    ______ ____
ROOT
ATOM      1  N   UNL     1       0.025  -0.011   2.418  0.00  0.00    -0.284 N 
ATOM      2  C   UNL     1      -0.056  -0.689   3.580  0.00  0.00    +0.234 C 
ATOM      3  O   UNL     1      -0.040  -1.902   3.577  0.00  0.00    -0.274 OA
ATOM      4  H   UNL     1       0.079   0.957   2.424  0.00  0.00    +0.155 HD
ENDROOT
BRANCH   1  11
ATOM      5  C   UNL     1      -1.264   1.184   0.182  0.00  0.00    +0.046 C 
ATOM      6  C   UNL     1      -0.584  -0.158   0.085  0.00  0.00    -0.026 A 
ATOM      7  C   UNL     1      -0.571  -0.840  -1.116  0.00  0.00    +0.050 A 
ATOM      8  C   UNL     1       0.055  -2.074  -1.206  0.00  0.00    +0.122 A 
ATOM      9  C   UNL     1       0.668  -2.625  -0.089  0.00  0.00    +0.047 A 
ATOM     10  C   UNL     1       0.655  -1.944   1.111  0.00  0.00    +0.027 A 
ATOM     11  C   UNL     1       0.034  -0.705   1.201  0.00  0.00    +0.037 A 
BRANCH   8  12
ATOM     12  O   UNL     1       0.067  -2.745  -2.388  0.00  0.00    -0.483 OA
BRANCH  12  13
ATOM     13  C   UNL     1       0.729  -4.012  -2.409  0.00  0.00    +0.324 C 
BRANCH  13  14
ATOM     14  C   UNL     1       0.641  -4.603  -3.792  0.00  0.00    +0.248 C 
ATOM     15  O   UNL     1       0.067  -3.999  -4.674  0.00  0.00    -0.272 OA
ATOM     16  N   UNL     1       1.199  -5.802  -4.050  0.00  0.00    -0.327 N 
ATOM     17  H   UNL     1       1.658  -6.285  -3.344  0.00  0.00    +0.145 HD
ATOM     18  H   UNL     1       1.142  -6.182  -4.940  0.00  0.00    +0.145 HD
ENDBRANCH  13  14
ENDBRANCH  12  13
ENDBRANCH   8  12
ENDBRANCH   1  11
BRANCH   2  19
ATOM     19  C   UNL     1      -0.167   0.059   4.883  0.00  0.00    +0.200 C 
BRANCH  19  20
ATOM     20  N   UNL     1      -0.241  -0.896   5.990  0.00  0.00    -0.303 N 
ATOM     21  C   UNL     1      -0.345  -0.452   7.259  0.00  0.00    +0.245 C 
ATOM     22  O   UNL     1      -0.378   0.742   7.483  0.00  0.00    -0.270 OA
ATOM     23  H   UNL     1      -0.214  -1.849   5.811  0.00  0.00    +0.150 HD
BRANCH  21  24
ATOM     24  C   UNL     1      -0.419  -1.417   8.377  0.00  0.00    +0.042 A 
ATOM     25  C   UNL     1      -0.376  -2.788   8.122  0.00  0.00    +0.051 A 
ATOM     26  C   UNL     1      -0.446  -3.685   9.171  0.00  0.00    +0.127 A 
ATOM     27  C   UNL     1      -0.559  -3.226  10.473  0.00  0.00    +0.076 A 
ATOM     28  C   UNL     1      -0.602  -1.865  10.731  0.00  0.00    +0.127 A 
ATOM     29  C   UNL     1      -0.527  -0.959   9.690  0.00  0.00    +0.051 A 
ATOM     30  F   UNL     1      -0.712  -1.424  12.003  0.00  0.00    -0.205 F 
ATOM     31  F   UNL     1      -0.405  -5.013   8.926  0.00  0.00    -0.205 F 
ENDBRANCH  21  24
ENDBRANCH  19  20
ENDBRANCH   2  19
TORSDOF 7
