REMARK  Name = ZINC57857003
REMARK  11 active torsions:
REMARK  status: ('A' for Active; 'I' for Inactive)
REMARK    1  A    between atoms: C_1  and  C_2
REMARK    2  A    between atoms: C_2  and  C_4
REMARK    3  A    between atoms: C_2  and  N_16
REMARK    4  A    between atoms: C_4  and  O_5
REMARK    5  A    between atoms: O_5  and  C_6
REMARK    6  A    between atoms: C_9  and  C_12
REMARK    7  A    between atoms: C_12  and  C_13
REMARK    8  A    between atoms: C_12  and  C_14
REMARK    9  A    between atoms: C_12  and  C_15
REMARK   10  A    between atoms: N_19  and  N_20
REMARK   11  A    between atoms: C_21  and  C_23
REMARK                            x       y       z     vdW  Elec       q    Type
REMARK                         _______ _______ _______ _____ _____    ______ ____
ROOT
ATOM      1  N   UNL     1      -1.372  -0.511   0.012  0.00  0.00    -0.292 N 
ATOM      2  C   UNL     1      -2.051  -0.643  -1.145  0.00  0.00    +0.316 C 
ATOM      3  O   UNL     1      -1.522  -0.341  -2.197  0.00  0.00    -0.251 OA
ATOM      4  N   UNL     1      -3.315  -1.109  -1.135  0.00  0.00    -0.218 N 
ATOM      5  H   UNL     1      -1.794  -0.752   0.852  0.00  0.00    +0.151 HD
ATOM      6  H   UNL     1      -3.804  -1.204  -1.968  0.00  0.00    +0.174 HD
ENDROOT
BRANCH   4   7
ATOM      7  N   UNL     1      -3.924  -1.457   0.078  0.00  0.00    -0.231 N 
ATOM      8  C   UNL     1      -5.189  -1.924   0.087  0.00  0.00    +0.258 C 
ATOM      9  O   UNL     1      -5.799  -2.042  -0.954  0.00  0.00    -0.271 OA
ATOM     10  H   UNL     1      -3.436  -1.363   0.910  0.00  0.00    +0.173 HD
BRANCH   8  11
ATOM     11  C   UNL     1      -5.844  -2.298   1.392  0.00  0.00    +0.205 C 
ATOM     12  C   UNL     1      -5.111  -3.504   2.019  0.00  0.00    +0.043 C 
ATOM     13  C   UNL     1      -6.285  -4.339   2.598  0.00  0.00    +0.031 C 
ATOM     14  C   UNL     1      -7.390  -4.061   1.547  0.00  0.00    +0.161 C 
ATOM     15  O   UNL     1      -7.202  -2.689   1.159  0.00  0.00    -0.367 OA
ENDBRANCH   8  11
ENDBRANCH   4   7
BRANCH   1  17
ATOM     16  C   UNL     1      -0.019   1.526   0.010  0.00  0.00    +0.031 C 
ATOM     17  C   UNL     1       0.002  -0.004   0.002  0.00  0.00    +0.109 C 
BRANCH  17  18
ATOM     18  C   UNL     1       0.742  -0.511   1.242  0.00  0.00    +0.251 C 
BRANCH  18  19
ATOM     19  O   UNL     1       0.143   0.044   2.414  0.00  0.00    -0.490 OA
BRANCH  19  20
ATOM     20  C   UNL     1       0.685  -0.308   3.610  0.00  0.00    +0.121 A 
ATOM     21  C   UNL     1       1.775  -1.165   3.653  0.00  0.00    +0.046 A 
ATOM     22  C   UNL     1       2.324  -1.521   4.869  0.00  0.00    +0.008 A 
ATOM     23  C   UNL     1       1.789  -1.024   6.043  0.00  0.00    -0.042 A 
ATOM     24  C   UNL     1       0.703  -0.169   6.003  0.00  0.00    +0.008 A 
ATOM     25  C   UNL     1       0.153   0.195   4.788  0.00  0.00    +0.046 A 
BRANCH  23  26
ATOM     26  C   UNL     1       2.390  -1.414   7.369  0.00  0.00    -0.013 C 
ATOM     27  C   UNL     1       3.854  -0.974   7.414  0.00  0.00    +0.015 C 
ATOM     28  C   UNL     1       1.617  -0.732   8.500  0.00  0.00    +0.015 C 
ATOM     29  C   UNL     1       2.308  -2.933   7.538  0.00  0.00    +0.015 C 
ENDBRANCH  23  26
ENDBRANCH  19  20
ENDBRANCH  18  19
ENDBRANCH  17  18
ENDBRANCH   1  17
TORSDOF 7
