REMARK  Name = ZINC55370128
REMARK  12 active torsions:
REMARK  status: ('A' for Active; 'I' for Inactive)
REMARK    1  A    between atoms: C_1  and  C_2
REMARK    2  A    between atoms: C_2  and  C_3
REMARK    3  A    between atoms: C_3  and  O_4
REMARK    4  A    between atoms: O_4  and  C_5
REMARK    5  A    between atoms: C_10  and  C_11
REMARK    6  A    between atoms: C_11  and  C_13
REMARK    7  A    between atoms: C_11  and  N_14
REMARK    8  A    between atoms: N_14  and  C_15
REMARK    9  A    between atoms: C_15  and  C_16
REMARK   10  A    between atoms: C_17  and  C_29
REMARK   11  A    between atoms: N_18  and  C_25
REMARK   12  A    between atoms: C_25  and  C_26
REMARK                            x       y       z     vdW  Elec       q    Type
REMARK                         _______ _______ _______ _____ _____    ______ ____
ROOT
ATOM      1  C   UNL     1       0.865  -6.881   0.110  0.00  0.00    -0.044 C 
ENDROOT
BRANCH   1   2
ATOM      2  C   UNL     1       1.459  -8.266   0.121  0.00  0.00    -0.036 A 
ATOM      3  C   UNL     1       2.595  -8.652  -0.481  0.00  0.00    +0.019 A 
ATOM      4  N   UNL     1       2.815  -9.983  -0.252  0.00  0.00    -0.335 N 
ATOM      5  C   UNL     1       1.800 -10.499   0.522  0.00  0.00    +0.050 A 
ATOM      6  C   UNL     1       0.909  -9.445   0.795  0.00  0.00    +0.001 A 
ATOM      7  C   UNL     1      -0.226  -9.676   1.574  0.00  0.00    +0.010 A 
ATOM      8  C   UNL     1      -0.465 -10.926   2.071  0.00  0.00    +0.001 A 
ATOM      9  C   UNL     1       0.413 -11.969   1.809  0.00  0.00    +0.002 A 
ATOM     10  C   UNL     1       1.534 -11.765   1.034  0.00  0.00    +0.026 A 
ATOM     11  C   UNL     1       3.495  -7.753  -1.289  0.00  0.00    +0.064 C 
BRANCH   4  12
ATOM     12  C   UNL     1       3.960 -10.746  -0.755  0.00  0.00    +0.217 C 
BRANCH  12  13
ATOM     13  C   UNL     1       5.084 -10.685   0.246  0.00  0.00    +0.230 C 
ATOM     14  O   UNL     1       4.943 -10.065   1.279  0.00  0.00    -0.274 OA
ATOM     15  N   UNL     1       6.246 -11.319  -0.005  0.00  0.00    -0.328 N 
ATOM     16  H   UNL     1       6.359 -11.814  -0.832  0.00  0.00    +0.145 HD
ATOM     17  H   UNL     1       6.970 -11.279   0.639  0.00  0.00    +0.145 HD
ENDBRANCH  12  13
ENDBRANCH   4  12
ENDBRANCH   1   2
BRANCH   1  18
ATOM     18  N   UNL     1       1.390  -6.114   1.248  0.00  0.00    +0.386 N 
ATOM     19  H   UNL     1       2.395  -6.050   1.175  0.00  0.00    -0.085 HD
ATOM     20  H   UNL     1       1.144  -6.579   2.109  0.00  0.00    -0.085 HD
BRANCH  18  21
ATOM     21  C   UNL     1       0.811  -4.764   1.237  0.00  0.00    -0.040 C 
ATOM     22  C   UNL     1      -0.698  -4.854   1.472  0.00  0.00    -0.009 C 
BRANCH  21  28
ATOM     23  C   UNL     1       1.385  -2.554   2.273  0.00  0.00    +0.122 A 
ATOM     24  C   UNL     1       1.962  -1.797   3.283  0.00  0.00    +0.046 A 
ATOM     25  C   UNL     1       2.595  -2.424   4.339  0.00  0.00    +0.004 A 
ATOM     26  C   UNL     1       2.654  -3.804   4.390  0.00  0.00    +0.000 A 
ATOM     27  C   UNL     1       2.081  -4.561   3.384  0.00  0.00    +0.005 A 
ATOM     28  C   UNL     1       1.442  -3.939   2.329  0.00  0.00    -0.020 A 
BRANCH  23  29
ATOM     29  O   UNL     1       0.761  -1.940   1.234  0.00  0.00    -0.492 OA
BRANCH  29  30
ATOM     30  C   UNL     1       0.742  -0.511   1.242  0.00  0.00    +0.229 C 
BRANCH  30  32
ATOM     31  C   UNL     1      -0.019   1.526   0.010  0.00  0.00    +0.007 C 
ATOM     32  C   UNL     1       0.002  -0.004   0.002  0.00  0.00    +0.038 C 
ENDBRANCH  30  32
ENDBRANCH  29  30
ENDBRANCH  23  29
ENDBRANCH  21  28
ENDBRANCH  18  21
ENDBRANCH   1  18
TORSDOF 9
