REMARK  Name = ZINC65297969
REMARK  3 active torsions:
REMARK  status: ('A' for Active; 'I' for Inactive)
REMARK    1  A    between atoms: C_4  and  C_7
REMARK    2  A    between atoms: C_16  and  C_19
REMARK    3  A    between atoms: C_24  and  O_25
REMARK                            x       y       z     vdW  Elec       q    Type
REMARK                         _______ _______ _______ _____ _____    ______ ____
ROOT
ATOM      1  C   UNL     1       3.694  -0.683  -0.037  0.00  0.00    +0.047 C 
ATOM      2  N   UNL     1       4.773   0.004  -0.039  0.00  0.00    -0.266 NA
ATOM      3  C   UNL     1       6.112  -0.573  -0.044  0.00  0.00    +0.109 C 
ATOM      4  C   UNL     1       7.008   0.218  -1.004  0.00  0.00    +0.027 C 
ATOM      5  C   UNL     1       7.130   1.659  -0.505  0.00  0.00    -0.079 C 
ATOM      6  N   UNL     1       7.724   1.669   0.837  0.00  0.00    +0.379 N 
ATOM      7  C   UNL     1       6.840   0.971   1.778  0.00  0.00    -0.079 C 
ATOM      8  C   UNL     1       6.707  -0.497   1.366  0.00  0.00    +0.027 C 
ATOM      9  N   UNL     1       6.065  -1.978  -0.473  0.00  0.00    -0.286 NA
ATOM     10  C   UNL     1       5.066  -2.716   0.318  0.00  0.00    +0.095 C 
ATOM     11  C   UNL     1       3.677  -2.187  -0.045  0.00  0.00    +0.079 C 
ATOM     12  H   UNL     1       8.619   1.204   0.810  0.00  0.00    -0.086 HD
ATOM     13  H   UNL     1       5.868  -2.048  -1.460  0.00  0.00    +0.125 HD
ATOM     14  H   UNL     1       7.851   2.623   1.141  0.00  0.00    -0.086 HD
ENDROOT
BRANCH  10  15
ATOM     15  C   UNL     1       5.152  -4.187   0.000  0.00  0.00    +0.013 A 
ATOM     16  C   UNL     1       5.755  -4.607  -1.170  0.00  0.00    +0.028 A 
ATOM     17  C   UNL     1       5.833  -5.957  -1.462  0.00  0.00    +0.042 A 
ATOM     18  C   UNL     1       5.309  -6.889  -0.584  0.00  0.00    +0.023 A 
ATOM     19  C   UNL     1       4.705  -6.473   0.586  0.00  0.00    +0.047 A 
ATOM     20  C   UNL     1       4.630  -5.120   0.884  0.00  0.00    +0.122 A 
ATOM     21 CL   UNL     1       6.591  -6.482  -2.933  0.00  0.00    -0.084 Cl
BRANCH  20  22
ATOM     22  O   UNL     1       4.042  -4.709   2.038  0.00  0.00    -0.506 OA
ATOM     23  H   UNL     1       3.092  -4.545   1.959  0.00  0.00    +0.292 HD
ENDBRANCH  20  22
ENDBRANCH  10  15
BRANCH   1  27
ATOM     24  C   UNL     1      -0.017   1.379   0.010  0.00  0.00    +0.000 A 
ATOM     25  C   UNL     1       1.168   2.094   0.002  0.00  0.00    +0.001 A 
ATOM     26  C   UNL     1       2.377   1.430  -0.013  0.00  0.00    +0.010 A 
ATOM     27  C   UNL     1       2.404   0.034  -0.021  0.00  0.00    -0.004 A 
ATOM     28  C   UNL     1       1.204  -0.681  -0.013  0.00  0.00    +0.010 A 
ATOM     29  C   UNL     1       0.002  -0.004   0.002  0.00  0.00    +0.001 A 
ENDBRANCH   1  27
TORSDOF 3
