REMARK  Name = ZINC50498169
REMARK  10 active torsions:
REMARK  status: ('A' for Active; 'I' for Inactive)
REMARK    1  A    between atoms: C_1  and  C_2
REMARK    2  A    between atoms: C_2  and  C_3
REMARK    3  A    between atoms: C_3  and  C_4
REMARK    4  A    between atoms: C_4  and  C_5
REMARK    5  A    between atoms: C_4  and  C_6
REMARK    6  A    between atoms: C_4  and  N_7
REMARK    7  A    between atoms: C_8  and  C_10
REMARK    8  A    between atoms: C_12  and  S_16
REMARK    9  A    between atoms: N_14  and  C_15
REMARK   10  A    between atoms: S_16  and  N_19
REMARK                            x       y       z     vdW  Elec       q    Type
REMARK                         _______ _______ _______ _____ _____    ______ ____
ROOT
ATOM      1  C   UNL     1      -4.387  -4.403  -0.133  0.00  0.00    +0.106 A 
ATOM      2  C   UNL     1      -4.771  -5.727  -0.127  0.00  0.00    +0.061 A 
ATOM      3  C   UNL     1      -6.168  -5.750  -0.183  0.00  0.00    +0.124 A 
ATOM      4  C   UNL     1      -6.603  -4.468  -0.221  0.00  0.00    +0.114 A 
ATOM      5  N   UNL     1      -5.531  -3.640  -0.185  0.00  0.00    -0.344 N 
ATOM      6  C   UNL     1      -5.581  -2.176  -0.203  0.00  0.00    +0.149 C 
ENDROOT
BRANCH   1   8
ATOM      7  N   UNL     1      -1.975  -4.762  -0.128  0.00  0.00    -0.305 N 
ATOM      8  C   UNL     1      -3.010  -3.900  -0.085  0.00  0.00    +0.261 C 
ATOM      9  O   UNL     1      -2.802  -2.703  -0.006  0.00  0.00    -0.269 OA
ATOM     10  H   UNL     1      -2.140  -5.718  -0.127  0.00  0.00    +0.150 HD
BRANCH   7  11
ATOM     11  C   UNL     1      -0.601  -4.256  -0.177  0.00  0.00    +0.029 C 
ATOM     12  C   UNL     1      -0.325  -3.409   1.066  0.00  0.00    +0.031 C 
ATOM     13  C   UNL     1      -0.419  -3.397  -1.430  0.00  0.00    +0.031 C 
BRANCH  11  14
ATOM     14  C   UNL     1       0.375  -5.434  -0.220  0.00  0.00    +0.025 C 
BRANCH  14  16
ATOM     15  C   UNL     1       2.786  -6.082  -0.314  0.00  0.00    +0.004 C 
ATOM     16  C   UNL     1       1.810  -4.905  -0.272  0.00  0.00    -0.001 C 
ENDBRANCH  14  16
ENDBRANCH  11  14
ENDBRANCH   7  11
ENDBRANCH   1   8
BRANCH   3  17
ATOM     17  S   UNL     1      -7.182  -7.191  -0.201  0.00  0.00    +0.062 S 
ATOM     18  O   UNL     1      -8.411  -6.814  -0.808  0.00  0.00    -0.153 OA
ATOM     19  O   UNL     1      -6.377  -8.248  -0.704  0.00  0.00    -0.153 OA
BRANCH  17  20
ATOM     20  N   UNL     1      -7.527  -7.566   1.374  0.00  0.00    -0.177 NA
ATOM     21  C   UNL     1      -6.727  -8.444   2.241  0.00  0.00    +0.109 C 
ATOM     22  C   UNL     1      -7.445  -8.519   3.605  0.00  0.00    +0.018 C 
ATOM     23  C   UNL     1      -8.905  -8.134   3.251  0.00  0.00    +0.018 C 
ATOM     24  C   UNL     1      -8.685  -7.072   2.142  0.00  0.00    +0.109 C 
ENDBRANCH  17  20
ENDBRANCH   3  17
TORSDOF 6
