REMARK  Name = ZINC62359203
REMARK  8 active torsions:
REMARK  status: ('A' for Active; 'I' for Inactive)
REMARK    1  A    between atoms: C_1  and  C_2
REMARK    2  A    between atoms: C_2  and  O_3
REMARK    3  A    between atoms: O_3  and  C_4
REMARK    4  A    between atoms: C_7  and  C_10
REMARK    5  A    between atoms: C_10  and  C_12
REMARK    6  A    between atoms: C_10  and  N_24
REMARK    7  A    between atoms: C_12  and  N_13
REMARK    8  A    between atoms: C_14  and  C_16
REMARK                            x       y       z     vdW  Elec       q    Type
REMARK                         _______ _______ _______ _____ _____    ______ ____
ROOT
ATOM      1  C   UNL     1      -2.057  -5.840   0.028  0.00  0.00    -0.020 C 
ENDROOT
BRANCH   1   2
ATOM      2  N   UNL     1      -3.231  -6.046  -0.830  0.00  0.00    +0.385 N 
ATOM      3  C   UNL     1      -3.491  -7.484  -0.964  0.00  0.00    -0.078 C 
ATOM      4  C   UNL     1      -4.760  -7.703  -1.790  0.00  0.00    -0.019 C 
ATOM      5  C   UNL     1      -4.571  -7.085  -3.178  0.00  0.00    -0.004 C 
ATOM      6  C   UNL     1      -4.228  -5.601  -3.024  0.00  0.00    -0.019 C 
ATOM      7  C   UNL     1      -2.978  -5.460  -2.152  0.00  0.00    -0.078 C 
ATOM      8  H   UNL     1      -4.034  -5.599  -0.413  0.00  0.00    -0.081 HD
ENDBRANCH   1   2
BRANCH   1  12
ATOM      9  C   UNL     1      -1.214  -1.659   0.307  0.00  0.00    +0.121 A 
ATOM     10  C   UNL     1      -0.175  -2.572   0.193  0.00  0.00    +0.046 A 
ATOM     11  C   UNL     1      -0.450  -3.923   0.103  0.00  0.00    +0.005 A 
ATOM     12  C   UNL     1      -1.760  -4.366   0.127  0.00  0.00    -0.059 A 
ATOM     13  C   UNL     1      -2.797  -3.458   0.240  0.00  0.00    +0.005 A 
ATOM     14  C   UNL     1      -2.526  -2.107   0.336  0.00  0.00    +0.046 A 
BRANCH   9  15
ATOM     15  O   UNL     1      -0.946  -0.330   0.396  0.00  0.00    -0.492 OA
BRANCH  15  17
ATOM     16  C   UNL     1       0.532   1.581   0.471  0.00  0.00    +0.048 C 
ATOM     17  C   UNL     1       0.429   0.058   0.359  0.00  0.00    +0.225 C 
ENDBRANCH  15  17
ENDBRANCH   9  15
ENDBRANCH   1  12
BRANCH   1  18
ATOM     18  C   UNL     1      -2.341  -6.397   1.425  0.00  0.00    +0.094 C 
BRANCH  18  19
ATOM     19  N   UNL     1      -1.143  -6.263   2.257  0.00  0.00    -0.313 N 
ATOM     20  C   UNL     1      -1.190  -6.591   3.563  0.00  0.00    +0.245 C 
ATOM     21  O   UNL     1      -2.227  -6.998   4.051  0.00  0.00    -0.270 OA
ATOM     22  H   UNL     1      -0.316  -5.938   1.868  0.00  0.00    +0.149 HD
BRANCH  20  23
ATOM     23  C   UNL     1       0.015  -6.456   4.402  0.00  0.00    +0.053 A 
ATOM     24  C   UNL     1       1.224  -5.977   3.841  0.00  0.00    +0.020 A 
ATOM     25  C   UNL     1       2.321  -5.863   4.637  0.00  0.00    +0.071 A 
ATOM     26  C   UNL     1       2.232  -6.221   5.995  0.00  0.00    +0.249 A 
ATOM     27  O   UNL     1       3.212  -6.121   6.713  0.00  0.00    -0.268 OA
ATOM     28  N   UNL     1       1.073  -6.674   6.507  0.00  0.00    -0.328 N 
ATOM     29  H   UNL     1       1.028  -6.916   7.445  0.00  0.00    +0.168 HD
ATOM     30  C   UNL     1      -0.027  -6.790   5.740  0.00  0.00    +0.099 A 
ENDBRANCH  20  23
ENDBRANCH  18  19
ENDBRANCH   1  18
TORSDOF 7
