REMARK  Name = ZINC20923871
REMARK  9 active torsions:
REMARK  status: ('A' for Active; 'I' for Inactive)
REMARK    1  A    between atoms: C_1  and  C_2
REMARK    2  A    between atoms: C_2  and  C_25
REMARK    3  A    between atoms: N_3  and  N_4
REMARK    4  A    between atoms: C_7  and  S_10
REMARK    5  A    between atoms: S_10  and  C_11
REMARK    6  A    between atoms: C_11  and  C_12
REMARK    7  A    between atoms: N_14  and  N_15
REMARK    8  A    between atoms: C_16  and  C_18
REMARK    9  A    between atoms: C_28  and  N_31
REMARK                            x       y       z     vdW  Elec       q    Type
REMARK                         _______ _______ _______ _____ _____    ______ ____
ROOT
ATOM      1  N   UNL     1      10.896   0.355  -0.099  0.00  0.00    -0.205 N 
ATOM      2  C   UNL     1       9.565   0.475  -0.086  0.00  0.00    +0.232 A 
ATOM      3  N   UNL     1       8.855   1.650  -0.074  0.00  0.00    -0.186 NA
ATOM      4  C   UNL     1       7.535   1.296  -0.063  0.00  0.00    +0.211 A 
ATOM      5  N   UNL     1       7.479  -0.054  -0.064  0.00  0.00    -0.144 NA
ATOM      6  N   UNL     1       8.671  -0.535  -0.083  0.00  0.00    -0.245 N 
ATOM      7  H   UNL     1      11.530   1.254  -0.100  0.00  0.00    +0.177 HD
ATOM      8  H   UNL     1       9.020  -1.578  -0.096  0.00  0.00    +0.192 HD
ENDROOT
BRANCH   1  11
ATOM      9  C   UNL     1      13.615   0.297  -0.123  0.00  0.00    +0.068 C 
ATOM     10  C   UNL     1      12.746  -0.935  -0.122  0.00  0.00    +0.063 C 
ATOM     11  N   UNL     1      11.437  -0.816  -0.110  0.00  0.00    -0.184 NA
BRANCH  10  12
ATOM     12  C   UNL     1      13.361  -2.264  -0.135  0.00  0.00    -0.002 A 
ATOM     13  C   UNL     1      14.759  -2.396  -0.154  0.00  0.00    +0.012 A 
ATOM     14  C   UNL     1      15.327  -3.650  -0.160  0.00  0.00    +0.033 A 
ATOM     15  C   UNL     1      14.524  -4.780  -0.159  0.00  0.00    +0.126 A 
ATOM     16  C   UNL     1      13.144  -4.660  -0.146  0.00  0.00    +0.033 A 
ATOM     17  C   UNL     1      12.557  -3.415  -0.134  0.00  0.00    +0.012 A 
BRANCH  15  18
ATOM     18  N   UNL     1      15.146  -6.123  -0.172  0.00  0.00    +0.056 N 
ATOM     19  O   UNL     1      14.387  -7.200  -0.171  0.00  0.00    -0.126 OA
ATOM     20  O   UNL     1      16.457  -6.242  -0.184  0.00  0.00    -0.126 OA
ENDBRANCH  15  18
ENDBRANCH  10  12
ENDBRANCH   1  11
BRANCH   4  21
ATOM     21  S   UNL     1       6.199   2.366  -0.044  0.00  0.00    -0.075 S 
BRANCH  21  22
ATOM     22  C   UNL     1       4.839   1.171  -0.038  0.00  0.00    +0.174 C 
BRANCH  22  23
ATOM     23  C   UNL     1       3.524   1.907  -0.021  0.00  0.00    +0.239 C 
ATOM     24  O   UNL     1       3.508   3.120  -0.015  0.00  0.00    -0.273 OA
ATOM     25  N   UNL     1       2.366   1.217  -0.014  0.00  0.00    -0.233 N 
ATOM     26  H   UNL     1       2.381   0.117  -0.020  0.00  0.00    +0.173 HD
BRANCH  25  27
ATOM     27  N   UNL     1       1.143   1.901   0.001  0.00  0.00    -0.230 N 
ATOM     28  C   UNL     1      -0.014   1.212   0.009  0.00  0.00    +0.260 C 
ATOM     29  O   UNL     1       0.002  -0.004   0.002  0.00  0.00    -0.269 OA
ATOM     30  H   UNL     1       1.129   3.001   0.007  0.00  0.00    +0.173 HD
BRANCH  28  31
ATOM     31  C   UNL     1      -1.304   1.933   0.019  0.00  0.00    +0.038 A 
ATOM     32  C   UNL     1      -1.325   3.329   0.032  0.00  0.00    +0.016 A 
ATOM     33  C   UNL     1      -2.531   3.997   0.036  0.00  0.00    +0.039 A 
ATOM     34  C   UNL     1      -3.721   3.285   0.038  0.00  0.00    +0.123 A 
ATOM     35  C   UNL     1      -3.705   1.898   0.030  0.00  0.00    +0.039 A 
ATOM     36  C   UNL     1      -2.505   1.220   0.021  0.00  0.00    +0.016 A 
ATOM     37  F   UNL     1      -4.900   3.944   0.048  0.00  0.00    -0.205 F 
ENDBRANCH  28  31
ENDBRANCH  25  27
ENDBRANCH  22  23
ENDBRANCH  21  22
ENDBRANCH   4  21
TORSDOF 8
