REMARK  Name = ZINC42015407
REMARK  3 active torsions:
REMARK  status: ('A' for Active; 'I' for Inactive)
REMARK    1  A    between atoms: C_4  and  N_8
REMARK    2  A    between atoms: C_9  and  C_13
REMARK    3  A    between atoms: C_18  and  N_19
REMARK                            x       y       z     vdW  Elec       q    Type
REMARK                         _______ _______ _______ _____ _____    ______ ____
ROOT
ATOM      1  N   UNL     1       3.878  -0.815   0.717  0.00  0.00    -0.187 N 
ATOM      2  C   UNL     1       3.828  -2.000   0.042  0.00  0.00    +0.189 A 
ATOM      3  N   UNL     1       4.888  -2.040  -0.739  0.00  0.00    -0.108 NA
ATOM      4  N   UNL     1       5.590  -0.974  -0.601  0.00  0.00    -0.022 NA
ATOM      5  N   UNL     1       5.045  -0.181   0.256  0.00  0.00    -0.038 NA
ENDROOT
BRANCH   1   9
ATOM      6  C   UNL     1       1.148   0.621   3.526  0.00  0.00    +0.006 A 
ATOM      7  C   UNL     1       1.032   0.994   2.200  0.00  0.00    +0.041 A 
ATOM      8  C   UNL     1       1.936   0.520   1.265  0.00  0.00    +0.152 A 
ATOM      9  C   UNL     1       2.960  -0.332   1.661  0.00  0.00    +0.139 A 
ATOM     10  C   UNL     1       3.073  -0.704   2.996  0.00  0.00    +0.152 A 
ATOM     11  C   UNL     1       2.166  -0.226   3.924  0.00  0.00    +0.041 A 
ATOM     12  F   UNL     1       4.067  -1.532   3.386  0.00  0.00    -0.203 F 
ATOM     13  F   UNL     1       1.822   0.884  -0.031  0.00  0.00    -0.203 F 
ENDBRANCH   1   9
BRANCH   2  14
ATOM     14  C   UNL     1       2.784  -3.039   0.164  0.00  0.00    +0.042 A 
ATOM     15  C   UNL     1       1.435  -2.690   0.098  0.00  0.00    +0.015 A 
ATOM     16  C   UNL     1       0.466  -3.663   0.212  0.00  0.00    +0.021 A 
ATOM     17  C   UNL     1       0.825  -4.990   0.393  0.00  0.00    +0.043 A 
ATOM     18  C   UNL     1       2.158  -5.350   0.460  0.00  0.00    +0.043 A 
ATOM     19  C   UNL     1       3.145  -4.382   0.341  0.00  0.00    +0.037 A 
ATOM     20 CL   UNL     1      -0.406  -6.206   0.535  0.00  0.00    -0.083 Cl
BRANCH  19  21
ATOM     21  N   UNL     1       4.489  -4.744   0.404  0.00  0.00    -0.357 N 
ATOM     22  H   UNL     1       5.178  -4.065   0.324  0.00  0.00    +0.142 HD
ATOM     23  H   UNL     1       4.736  -5.673   0.526  0.00  0.00    +0.142 HD
ENDBRANCH  19  21
ENDBRANCH   2  14
TORSDOF 3
