REMARK  Name = ZINC09424863
REMARK  11 active torsions:
REMARK  status: ('A' for Active; 'I' for Inactive)
REMARK    1  A    between atoms: C_1  and  O_2
REMARK    2  A    between atoms: O_2  and  C_3
REMARK    3  A    between atoms: C_5  and  C_13
REMARK    4  A    between atoms: C_6  and  O_11
REMARK    5  A    between atoms: C_8  and  O_9
REMARK    6  A    between atoms: O_9  and  C_10
REMARK    7  A    between atoms: O_11  and  C_12
REMARK    8  A    between atoms: N_14  and  N_15
REMARK    9  A    between atoms: C_16  and  C_18
REMARK   10  A    between atoms: C_19  and  C_29
REMARK   11  A    between atoms: C_32  and  N_35
REMARK                            x       y       z     vdW  Elec       q    Type
REMARK                         _______ _______ _______ _____ _____    ______ ____
ROOT
ATOM      1  C   UNL     1      -5.056   8.205   0.091  0.00  0.00    +0.177 A 
ATOM      2  C   UNL     1      -5.215   9.586   0.105  0.00  0.00    +0.109 A 
ATOM      3  N   UNL     1      -6.562   9.815   0.113  0.00  0.00    -0.187 N 
ATOM      4  N   UNL     1      -7.182   8.557   0.113  0.00  0.00    -0.058 NA
ATOM      5  N   UNL     1      -6.276   7.644   0.101  0.00  0.00    -0.124 NA
ATOM      6  C   UNL     1      -7.198  11.060   0.125  0.00  0.00    +0.241 A 
ATOM      7  C   UNL     1      -8.647  11.283   0.140  0.00  0.00    +0.206 A 
ATOM      8  N   UNL     1      -8.864  12.569   0.148  0.00  0.00    -0.032 NA
ATOM      9  O   UNL     1      -7.606  13.221   0.139  0.00  0.00    -0.239 OA
ATOM     10  N   UNL     1      -6.604  12.220   0.131  0.00  0.00    -0.027 NA
ATOM     11  N   UNL     1      -9.623  10.293   0.143  0.00  0.00    -0.337 N 
ATOM     12  H   UNL     1      -9.365   9.357   0.136  0.00  0.00    +0.144 HD
ATOM     13  H   UNL     1     -10.562  10.537   0.153  0.00  0.00    +0.144 HD
ENDROOT
BRANCH   2  14
ATOM     14  C   UNL     1      -4.143  10.603   0.108  0.00  0.00    +0.003 A 
ATOM     15  C   UNL     1      -4.224  11.710  -0.738  0.00  0.00    +0.012 A 
ATOM     16  C   UNL     1      -3.222  12.658  -0.727  0.00  0.00    +0.033 A 
ATOM     17  C   UNL     1      -2.133  12.508   0.113  0.00  0.00    +0.126 A 
ATOM     18  C   UNL     1      -2.044  11.410   0.951  0.00  0.00    +0.033 A 
ATOM     19  C   UNL     1      -3.041  10.457   0.954  0.00  0.00    +0.012 A 
BRANCH  17  20
ATOM     20  N   UNL     1      -1.059  13.526   0.116  0.00  0.00    +0.056 N 
ATOM     21  O   UNL     1      -0.099  13.396   0.854  0.00  0.00    -0.126 OA
ATOM     22  O   UNL     1      -1.135  14.493  -0.620  0.00  0.00    -0.126 OA
ENDBRANCH  17  20
ENDBRANCH   2  14
BRANCH   1  24
ATOM     23  N   UNL     1      -3.759   6.135   0.069  0.00  0.00    -0.202 N 
ATOM     24  C   UNL     1      -3.773   7.483   0.076  0.00  0.00    +0.286 C 
ATOM     25  O   UNL     1      -2.726   8.103   0.069  0.00  0.00    -0.267 OA
ATOM     26  H   UNL     1      -4.594   5.641   0.074  0.00  0.00    +0.178 HD
BRANCH  23  28
ATOM     27  C   UNL     1      -2.524   4.150   0.048  0.00  0.00    +0.142 C 
ATOM     28  N   UNL     1      -2.538   5.448   0.054  0.00  0.00    -0.187 NA
BRANCH  27  31
ATOM     29  C   UNL     1      -0.016   1.357   0.009  0.00  0.00    +0.162 A 
ATOM     30  C   UNL     1      -1.223   2.030   0.019  0.00  0.00    +0.062 A 
ATOM     31  C   UNL     1      -1.241   3.427   0.032  0.00  0.00    +0.040 A 
ATOM     32  C   UNL     1      -0.033   4.139   0.024  0.00  0.00    +0.132 A 
ATOM     33  C   UNL     1       1.170   3.455   0.009  0.00  0.00    +0.095 A 
ATOM     34  C   UNL     1       1.182   2.068   0.002  0.00  0.00    +0.165 A 
BRANCH  29  36
ATOM     35  C   UNL     1      -1.262  -0.670   0.011  0.00  0.00    +0.277 C 
ATOM     36  O   UNL     1       0.002  -0.004   0.002  0.00  0.00    -0.491 OA
ENDBRANCH  29  36
BRANCH  34  37
ATOM     37  O   UNL     1       2.366   1.401  -0.012  0.00  0.00    -0.491 OA
ATOM     38  C   UNL     1       3.556   2.192  -0.019  0.00  0.00    +0.277 C 
ENDBRANCH  34  37
BRANCH  32  39
ATOM     39  O   UNL     1      -0.043   5.497   0.031  0.00  0.00    -0.494 OA
ATOM     40  C   UNL     1       1.225   6.156   0.022  0.00  0.00    +0.277 C 
ENDBRANCH  32  39
ENDBRANCH  27  31
ENDBRANCH  23  28
ENDBRANCH   1  24
TORSDOF 8
