REMARK  Name = ZINC19889359
REMARK  5 active torsions:
REMARK  status: ('A' for Active; 'I' for Inactive)
REMARK    1  A    between atoms: C_1  and  N_2
REMARK    2  A    between atoms: C_7  and  C_23
REMARK    3  A    between atoms: C_9  and  N_22
REMARK    4  A    between atoms: C_10  and  C_14
REMARK    5  A    between atoms: C_14  and  C_16
REMARK                            x       y       z     vdW  Elec       q    Type
REMARK                         _______ _______ _______ _____ _____    ______ ____
ROOT
ATOM      1  C   UNL     1      -6.713  -6.998   2.202  0.00  0.00    +0.105 C 
ATOM      2  N   UNL     1      -6.254  -5.611   2.051  0.00  0.00    -0.301 NA
ATOM      3  C   UNL     1      -7.163  -4.846   1.183  0.00  0.00    +0.090 C 
ATOM      4  C   UNL     1      -6.861  -3.357   1.355  0.00  0.00    +0.071 C 
ATOM      5  C   UNL     1      -5.382  -3.111   1.193  0.00  0.00    +0.049 A 
ATOM      6  C   UNL     1      -4.464  -4.138   1.280  0.00  0.00    -0.004 A 
ATOM      7  C   UNL     1      -3.104  -3.870   1.136  0.00  0.00    -0.000 A 
ATOM      8  C   UNL     1      -2.682  -2.530   0.895  0.00  0.00    +0.037 A 
ATOM      9  C   UNL     1      -1.335  -2.021   0.708  0.00  0.00    +0.053 A 
ATOM     10  C   UNL     1      -1.172  -0.665   0.489  0.00  0.00    +0.083 A 
ATOM     11  S   UNL     1      -2.841  -0.042   0.518  0.00  0.00    -0.064 S 
ATOM     12  C   UNL     1      -3.708  -1.562   0.822  0.00  0.00    +0.112 A 
ATOM     13  N   UNL     1      -4.976  -1.870   0.967  0.00  0.00    -0.244 NA
ATOM     14  C   UNL     1      -4.888  -5.564   1.522  0.00  0.00    +0.121 C 
ENDROOT
BRANCH   7  15
ATOM     15  C   UNL     1      -2.110  -4.964   1.233  0.00  0.00    -0.017 A 
ATOM     16  C   UNL     1      -1.839  -5.556   2.466  0.00  0.00    +0.008 A 
ATOM     17  C   UNL     1      -0.916  -6.578   2.549  0.00  0.00    +0.001 A 
ATOM     18  C   UNL     1      -0.251  -7.008   1.415  0.00  0.00    +0.000 A 
ATOM     19  C   UNL     1      -0.512  -6.421   0.189  0.00  0.00    +0.001 A 
ATOM     20  C   UNL     1      -1.438  -5.402   0.093  0.00  0.00    +0.008 A 
ENDBRANCH   7  15
BRANCH   9  21
ATOM     21  N   UNL     1      -0.241  -2.871   0.751  0.00  0.00    -0.356 N 
ATOM     22  H   UNL     1       0.773  -2.470   0.607  0.00  0.00    +0.142 HD
ATOM     23  H   UNL     1      -0.387  -3.947   0.929  0.00  0.00    +0.142 HD
ENDBRANCH   9  21
BRANCH  10  24
ATOM     24  C   UNL     1       0.029   0.052   0.286  0.00  0.00    +0.202 C 
ATOM     25  O   UNL     1       1.103  -0.512   0.401  0.00  0.00    -0.286 OA
BRANCH  24  26
ATOM     26  C   UNL     1      -0.018   1.488  -0.067  0.00  0.00    +0.023 A 
ATOM     27  C   UNL     1       1.064   2.319   0.229  0.00  0.00    +0.012 A 
ATOM     28  C   UNL     1       1.016   3.656  -0.107  0.00  0.00    +0.001 A 
ATOM     29  C   UNL     1      -0.106   4.176  -0.728  0.00  0.00    +0.000 A 
ATOM     30  C   UNL     1      -1.185   3.360  -1.019  0.00  0.00    +0.001 A 
ATOM     31  C   UNL     1      -1.147   2.020  -0.693  0.00  0.00    +0.012 A 
ENDBRANCH  24  26
ENDBRANCH  10  24
TORSDOF 4
