REMARK  Name = ZINC58634267
REMARK  9 active torsions:
REMARK  status: ('A' for Active; 'I' for Inactive)
REMARK    1  A    between atoms: C_1  and  C_2
REMARK    2  A    between atoms: C_6  and  C_9
REMARK    3  A    between atoms: C_7  and  N_8
REMARK    4  A    between atoms: C_9  and  O_11
REMARK    5  A    between atoms: O_11  and  C_12
REMARK    6  A    between atoms: C_12  and  C_14
REMARK    7  A    between atoms: C_12  and  C_20
REMARK    8  A    between atoms: N_22  and  C_23
REMARK    9  A    between atoms: C_26  and  N_30
REMARK                            x       y       z     vdW  Elec       q    Type
REMARK                         _______ _______ _______ _____ _____    ______ ____
ROOT
ATOM      1  C   UNL     1      -0.029  -5.118   3.634  0.00  0.00    +0.292 C 
ENDROOT
BRANCH   1   2
ATOM      2  C   UNL     1       1.392  -5.468   3.993  0.00  0.00    +0.002 A 
ATOM      3  C   UNL     1       2.300  -5.781   2.999  0.00  0.00    +0.008 A 
ATOM      4  C   UNL     1       3.603  -6.102   3.329  0.00  0.00    +0.000 A 
ATOM      5  C   UNL     1       3.999  -6.110   4.653  0.00  0.00    +0.000 A 
ATOM      6  C   UNL     1       3.092  -5.796   5.648  0.00  0.00    +0.000 A 
ATOM      7  C   UNL     1       1.789  -5.471   5.317  0.00  0.00    +0.008 A 
ENDBRANCH   1   2
BRANCH   1   8
ATOM      8  C   UNL     1      -0.839  -6.381   3.500  0.00  0.00    +0.263 C 
ATOM      9  O   UNL     1      -1.302  -6.694   2.423  0.00  0.00    -0.271 OA
ATOM     10  N   UNL     1      -1.050  -7.164   4.577  0.00  0.00    -0.281 N 
ATOM     11  H   UNL     1      -0.750  -6.875   5.452  0.00  0.00    +0.155 HD
BRANCH  10  12
ATOM     12  C   UNL     1      -1.701  -8.395   4.431  0.00  0.00    +0.052 A 
ATOM     13  C   UNL     1      -1.677  -9.054   3.209  0.00  0.00    +0.027 A 
ATOM     14  C   UNL     1      -2.321 -10.268   3.069  0.00  0.00    +0.034 A 
ATOM     15  C   UNL     1      -2.988 -10.828   4.143  0.00  0.00    +0.128 A 
ATOM     16  C   UNL     1      -3.015 -10.174   5.361  0.00  0.00    +0.054 A 
ATOM     17  C   UNL     1      -2.368  -8.961   5.510  0.00  0.00    +0.064 A 
ATOM     18 CL   UNL     1      -2.395  -8.144   7.042  0.00  0.00    -0.082 Cl
BRANCH  15  19
ATOM     19  N   UNL     1      -3.677 -12.129   3.988  0.00  0.00    +0.056 N 
ATOM     20  O   UNL     1      -3.655 -12.701   2.923  0.00  0.00    -0.126 OA
ATOM     21  O   UNL     1      -4.261 -12.619   4.926  0.00  0.00    -0.126 OA
ENDBRANCH  15  19
ENDBRANCH  10  12
ENDBRANCH   1   8
BRANCH   1  22
ATOM     22  O   UNL     1      -0.045  -4.408   2.393  0.00  0.00    -0.443 OA
BRANCH  22  23
ATOM     23  C   UNL     1       0.054  -3.066   2.455  0.00  0.00    +0.342 C 
ATOM     24  O   UNL     1       0.151  -2.513   3.533  0.00  0.00    -0.245 OA
BRANCH  23  30
ATOM     25  C   UNL     1       0.019   1.381   0.163  0.00  0.00    +0.045 C 
ATOM     26  C   UNL     1       0.027  -0.125   0.104  0.00  0.00    -0.029 A 
ATOM     27  C   UNL     1       0.025  -0.767  -1.117  0.00  0.00    +0.005 A 
ATOM     28  C   UNL     1       0.032  -2.151  -1.183  0.00  0.00    +0.001 A 
ATOM     29  C   UNL     1       0.041  -2.903  -0.028  0.00  0.00    +0.017 A 
ATOM     30  C   UNL     1       0.044  -2.268   1.217  0.00  0.00    +0.080 A 
ATOM     31  C   UNL     1       0.043  -0.865   1.280  0.00  0.00    +0.042 A 
BRANCH  31  32
ATOM     32  N   UNL     1       0.051  -0.222   2.510  0.00  0.00    -0.357 N 
ATOM     33  H   UNL     1      -0.028   0.744   2.552  0.00  0.00    +0.142 HD
ATOM     34  H   UNL     1       0.137  -0.738   3.327  0.00  0.00    +0.142 HD
ENDBRANCH  31  32
ENDBRANCH  23  30
ENDBRANCH  22  23
ENDBRANCH   1  22
TORSDOF 8
