REMARK  Name = ZINC42399573
REMARK  8 active torsions:
REMARK  status: ('A' for Active; 'I' for Inactive)
REMARK    1  A    between atoms: C_1  and  N_2
REMARK    2  A    between atoms: N_2  and  C_3
REMARK    3  A    between atoms: N_2  and  C_15
REMARK    4  A    between atoms: C_3  and  C_4
REMARK    5  A    between atoms: C_4  and  O_5
REMARK    6  A    between atoms: O_5  and  C_6
REMARK    7  A    between atoms: C_9  and  C_12
REMARK    8  A    between atoms: C_15  and  C_16
REMARK                            x       y       z     vdW  Elec       q    Type
REMARK                         _______ _______ _______ _____ _____    ______ ____
ROOT
ATOM      1  C   UNL     1      -2.171  -0.662   3.475  0.00  0.00    +0.121 A 
ATOM      2  C   UNL     1      -1.783   0.180   4.511  0.00  0.00    +0.046 A 
ATOM      3  C   UNL     1      -2.623   0.386   5.583  0.00  0.00    +0.015 A 
ATOM      4  C   UNL     1      -3.864  -0.252   5.629  0.00  0.00    +0.012 A 
ATOM      5  C   UNL     1      -4.250  -1.097   4.587  0.00  0.00    +0.015 A 
ATOM      6  C   UNL     1      -3.408  -1.294   3.515  0.00  0.00    +0.046 A 
ENDROOT
BRANCH   4   7
ATOM      7  C   UNL     1      -4.767  -0.034   6.778  0.00  0.00    +0.094 C 
ATOM      8  N   UNL     1      -5.951  -0.643   6.821  0.00  0.00    -0.387 N 
ATOM      9  N   UNL     1      -4.397   0.773   7.772  0.00  0.00    -0.345 N 
ATOM     10  H   UNL     1      -6.220  -1.230   6.097  0.00  0.00    +0.157 HD
ATOM     11  H   UNL     1      -3.535   1.217   7.742  0.00  0.00    +0.144 HD
ATOM     12  H   UNL     1      -4.990   0.916   8.527  0.00  0.00    +0.144 HD
ATOM     13  H   UNL     1      -6.543  -0.500   7.575  0.00  0.00    +0.157 HD
ENDBRANCH   4   7
BRANCH   1  14
ATOM     14  O   UNL     1      -1.341  -0.862   2.420  0.00  0.00    -0.491 OA
BRANCH  14  15
ATOM     15  C   UNL     1      -0.085  -0.181   2.443  0.00  0.00    +0.244 C 
BRANCH  15  16
ATOM     16  C   UNL     1       0.706  -0.527   1.180  0.00  0.00    +0.125 C 
BRANCH  16  18
ATOM     17  C   UNL     1      -0.018   1.465   0.010  0.00  0.00    +0.105 C 
ATOM     18  N   UNL     1       0.002  -0.004   0.002  0.00  0.00    -0.297 NA
BRANCH  18  19
ATOM     19  C   UNL     1       0.600  -0.516  -1.239  0.00  0.00    +0.126 C 
BRANCH  19  20
ATOM     20  C   UNL     1      -0.286  -0.163  -2.406  0.00  0.00    +0.005 A 
ATOM     21  C   UNL     1      -0.262   0.941  -3.192  0.00  0.00    +0.027 A 
ATOM     22  C   UNL     1      -1.183   1.053  -4.218  0.00  0.00    +0.025 A 
ATOM     23  C   UNL     1      -2.082   0.056  -4.406  0.00  0.00    +0.060 A 
ATOM     24  S   UNL     1      -1.634  -1.093  -3.115  0.00  0.00    -0.099 S 
ATOM     25 BR   UNL     1      -1.188   2.575  -5.340  0.00  0.00    -0.050 Br
ENDBRANCH  19  20
ENDBRANCH  18  19
ENDBRANCH  16  18
ENDBRANCH  15  16
ENDBRANCH  14  15
ENDBRANCH   1  14
TORSDOF 7
