REMARK  Name = ZINC39634875
REMARK  15 active torsions:
REMARK  status: ('A' for Active; 'I' for Inactive)
REMARK    1  A    between atoms: C_1  and  C_2
REMARK    2  A    between atoms: C_2  and  C_3
REMARK    3  A    between atoms: C_3  and  C_5
REMARK    4  A    between atoms: C_3  and  C_6
REMARK    5  A    between atoms: C_6  and  C_7
REMARK    6  A    between atoms: C_11  and  C_20
REMARK    7  A    between atoms: N_22  and  C_23
REMARK    8  A    between atoms: C_23  and  C_24
REMARK    9  A    between atoms: C_24  and  N_25
REMARK   10  A    between atoms: N_25  and  C_26
REMARK   11  A    between atoms: N_25  and  C_29
REMARK   12  A    between atoms: C_26  and  C_27
REMARK   13  A    between atoms: C_26  and  C_28
REMARK   14  A    between atoms: C_29  and  C_30
REMARK   15  A    between atoms: C_29  and  C_31
REMARK                            x       y       z     vdW  Elec       q    Type
REMARK                         _______ _______ _______ _____ _____    ______ ____
ROOT
ATOM      1  C   UNL     1      -5.854  -5.076  -2.762  0.00  0.00    +0.216 C 
ATOM      2  O   UNL     1      -6.990  -4.733  -3.015  0.00  0.00    -0.276 OA
ATOM      3  N   UNL     1      -5.622  -6.282  -2.208  0.00  0.00    -0.300 N 
ATOM      4  C   UNL     1      -4.316  -6.870  -1.825  0.00  0.00    +0.121 C 
ATOM      5  C   UNL     1      -4.593  -7.600  -0.491  0.00  0.00    +0.100 C 
ATOM      6  C   UNL     1      -6.102  -7.895  -0.512  0.00  0.00    -0.004 C 
ATOM      7  C   UNL     1      -6.615  -7.320  -1.840  0.00  0.00    +0.115 C 
ATOM      8  C   UNL     1      -6.793  -7.202   0.658  0.00  0.00    -0.010 C 
ATOM      9  C   UNL     1      -8.282  -7.557   0.650  0.00  0.00    -0.082 C 
ATOM     10  N   UNL     1      -8.440  -9.012   0.755  0.00  0.00    +0.379 N 
ATOM     11  C   UNL     1      -7.854  -9.666  -0.421  0.00  0.00    -0.082 C 
ATOM     12  C   UNL     1      -6.347  -9.400  -0.458  0.00  0.00    -0.010 C 
ATOM     13  H   UNL     1      -7.974  -9.341   1.588  0.00  0.00    -0.086 HD
ATOM     14  H   UNL     1      -9.422  -9.239   0.811  0.00  0.00    -0.086 HD
ENDROOT
BRANCH   5  15
ATOM     15  C   UNL     1      -3.806  -8.883  -0.422  0.00  0.00    +0.218 C 
ATOM     16  O   UNL     1      -3.611  -9.530  -1.429  0.00  0.00    -0.275 OA
ATOM     17  N   UNL     1      -3.318  -9.311   0.759  0.00  0.00    -0.317 N 
ATOM     18  H   UNL     1      -3.474  -8.794   1.565  0.00  0.00    +0.149 HD
BRANCH  17  19
ATOM     19  C   UNL     1      -2.552 -10.558   0.826  0.00  0.00    +0.085 C 
BRANCH  19  20
ATOM     20  C   UNL     1      -2.119 -10.813   2.271  0.00  0.00    -0.059 C 
BRANCH  20  21
ATOM     21  N   UNL     1      -1.255 -12.000   2.321  0.00  0.00    +0.384 N 
ATOM     22  H   UNL     1      -1.728 -12.779   1.887  0.00  0.00    -0.081 HD
BRANCH  21  23
ATOM     23  C   UNL     1      -0.003 -11.726   1.603  0.00  0.00    -0.074 C 
ATOM     24  C   UNL     1       0.979 -11.021   2.542  0.00  0.00    -0.014 C 
ATOM     25  C   UNL     1       0.608 -13.043   1.122  0.00  0.00    -0.014 C 
ENDBRANCH  21  23
BRANCH  21  26
ATOM     26  C   UNL     1      -0.955 -12.329   3.721  0.00  0.00    -0.074 C 
ATOM     27  C   UNL     1      -2.263 -12.477   4.502  0.00  0.00    -0.014 C 
ATOM     28  C   UNL     1      -0.174 -13.643   3.780  0.00  0.00    -0.014 C 
ENDBRANCH  21  26
ENDBRANCH  20  21
ENDBRANCH  19  20
ENDBRANCH  17  19
ENDBRANCH   5  15
BRANCH   1  29
ATOM     29  C   UNL     1      -4.703  -4.152  -3.066  0.00  0.00    +0.099 C 
BRANCH  29  30
ATOM     30  C   UNL     1      -5.237  -2.859  -3.685  0.00  0.00    -0.006 C 
ATOM     31  C   UNL     1      -5.877  -3.168  -5.040  0.00  0.00    +0.008 C 
BRANCH  30  33
ATOM     32  C   UNL     1      -4.634  -0.536  -4.381  0.00  0.00    +0.004 C 
ATOM     33  C   UNL     1      -4.083  -1.872  -3.879  0.00  0.00    +0.000 C 
ENDBRANCH  30  33
ENDBRANCH  29  30
ENDBRANCH   1  29
TORSDOF 9
