REMARK  Name = ZINC39916029
REMARK  12 active torsions:
REMARK  status: ('A' for Active; 'I' for Inactive)
REMARK    1  A    between atoms: C_8  and  S_21
REMARK    2  A    between atoms: N_9  and  C_10
REMARK    3  A    between atoms: C_10  and  C_11
REMARK    4  A    between atoms: C_11  and  C_12
REMARK    5  A    between atoms: C_12  and  O_13
REMARK    6  A    between atoms: O_13  and  C_14
REMARK    7  A    between atoms: S_21  and  C_22
REMARK    8  A    between atoms: C_24  and  O_37
REMARK    9  A    between atoms: C_26  and  O_36
REMARK   10  A    between atoms: C_28  and  O_35
REMARK   11  A    between atoms: C_30  and  C_33
REMARK   12  A    between atoms: C_33  and  O_34
REMARK                            x       y       z     vdW  Elec       q    Type
REMARK                         _______ _______ _______ _____ _____    ______ ____
ROOT
ATOM      1  C   UNL     1      -0.326   1.381   0.278  0.00  0.00    +0.002 A 
ATOM      2  C   UNL     1       0.826   2.152   0.309  0.00  0.00    +0.002 A 
ATOM      3  C   UNL     1       2.069   1.554   0.281  0.00  0.00    +0.028 A 
ATOM      4  C   UNL     1       2.169   0.173   0.220  0.00  0.00    +0.069 A 
ATOM      5  C   UNL     1       1.006  -0.614   0.188  0.00  0.00    +0.090 A 
ATOM      6  C   UNL     1      -0.246   0.007   0.217  0.00  0.00    +0.030 A 
ATOM      7  N   UNL     1       1.402  -1.912   0.131  0.00  0.00    -0.222 NA
ATOM      8  C   UNL     1       2.711  -1.973   0.126  0.00  0.00    +0.172 A 
ATOM      9  N   UNL     1       3.234  -0.712   0.180  0.00  0.00    -0.318 N 
ENDROOT
BRANCH   9  10
ATOM     10  C   UNL     1       4.656  -0.361   0.192  0.00  0.00    +0.127 C 
BRANCH  10  11
ATOM     11  C   UNL     1       5.155  -0.301   1.637  0.00  0.00    +0.063 C 
BRANCH  11  12
ATOM     12  C   UNL     1       6.640   0.066   1.649  0.00  0.00    +0.231 C 
BRANCH  12  13
ATOM     13  O   UNL     1       7.106   0.122   2.999  0.00  0.00    -0.490 OA
BRANCH  13  14
ATOM     14  C   UNL     1       8.414   0.437   3.188  0.00  0.00    +0.139 A 
ATOM     15  C   UNL     1       9.232   0.693   2.097  0.00  0.00    +0.047 A 
ATOM     16  C   UNL     1      10.561   1.013   2.292  0.00  0.00    +0.004 A 
ATOM     17  C   UNL     1      11.078   1.079   3.572  0.00  0.00    +0.002 A 
ATOM     18  C   UNL     1      10.267   0.824   4.662  0.00  0.00    +0.023 A 
ATOM     19  C   UNL     1       8.934   0.509   4.473  0.00  0.00    +0.083 A 
ATOM     20 CL   UNL     1       7.913   0.196   5.842  0.00  0.00    -0.080 Cl
ENDBRANCH  13  14
ENDBRANCH  12  13
ENDBRANCH  11  12
ENDBRANCH  10  11
ENDBRANCH   9  10
BRANCH   8  21
ATOM     21  S   UNL     1       3.655  -3.459   0.059  0.00  0.00    -0.054 S 
BRANCH  21  22
ATOM     22  C   UNL     1       2.405  -4.772   0.004  0.00  0.00    +0.214 C 
ATOM     23  C   UNL     1       3.094  -6.126  -0.181  0.00  0.00    +0.185 C 
ATOM     24  C   UNL     1       2.037  -7.235  -0.166  0.00  0.00    +0.177 C 
ATOM     25  C   UNL     1       1.250  -7.157   1.146  0.00  0.00    +0.176 C 
ATOM     26  C   UNL     1       0.632  -5.763   1.280  0.00  0.00    +0.176 C 
ATOM     27  O   UNL     1       1.666  -4.778   1.228  0.00  0.00    -0.355 OA
BRANCH  25  28
ATOM     28  O   UNL     1       0.214  -8.142   1.140  0.00  0.00    -0.386 OA
ATOM     29  H   UNL     1       0.535  -9.050   1.053  0.00  0.00    +0.210 HD
ENDBRANCH  25  28
BRANCH  24  30
ATOM     30  O   UNL     1       1.146  -7.061  -1.270  0.00  0.00    -0.386 OA
ATOM     31  H   UNL     1       1.580  -7.092  -2.134  0.00  0.00    +0.210 HD
ENDBRANCH  24  30
BRANCH  23  32
ATOM     32  O   UNL     1       3.787  -6.142  -1.431  0.00  0.00    -0.386 OA
ATOM     33  H   UNL     1       4.470  -5.462  -1.511  0.00  0.00    +0.210 HD
ENDBRANCH  23  32
BRANCH  26  34
ATOM     34  C   UNL     1      -0.354  -5.530   0.133  0.00  0.00    +0.190 C 
BRANCH  34  35
ATOM     35  O   UNL     1      -1.043  -4.295   0.342  0.00  0.00    -0.392 OA
ATOM     36  H   UNL     1      -1.685  -4.082  -0.349  0.00  0.00    +0.210 HD
ENDBRANCH  34  35
ENDBRANCH  26  34
ENDBRANCH  21  22
ENDBRANCH   8  21
TORSDOF 12
