REMARK  Name = ZINC51617583
REMARK  7 active torsions:
REMARK  status: ('A' for Active; 'I' for Inactive)
REMARK    1  A    between atoms: C_1  and  C_2
REMARK    2  A    between atoms: C_2  and  C_3
REMARK    3  A    between atoms: C_2  and  C_4
REMARK    4  A    between atoms: C_4  and  N_5
REMARK    5  A    between atoms: C_6  and  C_8
REMARK    6  A    between atoms: C_11  and  N_15
REMARK    7  A    between atoms: C_22  and  C_25
REMARK                            x       y       z     vdW  Elec       q    Type
REMARK                         _______ _______ _______ _____ _____    ______ ____
ROOT
ATOM      1  C   UNL     1       4.435  -0.201  -2.012  0.00  0.00    +0.055 A 
ATOM      2  C   UNL     1       5.056   0.184  -0.820  0.00  0.00    +0.016 A 
ATOM      3  C   UNL     1       6.355   0.639  -0.838  0.00  0.00    +0.024 A 
ATOM      4  C   UNL     1       7.051   0.717  -2.041  0.00  0.00    +0.036 A 
ATOM      5  C   UNL     1       6.438   0.336  -3.229  0.00  0.00    +0.044 A 
ATOM      6  C   UNL     1       5.139  -0.127  -3.219  0.00  0.00    +0.055 A 
ATOM      7 CL   UNL     1       4.376  -0.611  -4.701  0.00  0.00    -0.083 Cl
ENDROOT
BRANCH   4   8
ATOM      8  N   UNL     1       8.366   1.179  -2.054  0.00  0.00    -0.269 N 
ATOM      9  C   UNL     1       9.224   0.743  -2.998  0.00  0.00    +0.307 C 
ATOM     10  O   UNL     1       8.814   0.087  -3.936  0.00  0.00    -0.252 OA
ATOM     11  N   UNL     1      10.537   1.032  -2.900  0.00  0.00    -0.280 N 
ATOM     12  C   UNL     1      11.081   1.689  -1.701  0.00  0.00    +0.137 C 
ATOM     13  C   UNL     1      11.918   2.893  -2.147  0.00  0.00    +0.180 C 
ATOM     14  O   UNL     1      12.870   2.469  -3.125  0.00  0.00    -0.364 OA
ATOM     15  C   UNL     1      12.287   1.953  -4.325  0.00  0.00    +0.221 C 
ATOM     16  C   UNL     1      11.470   0.696  -3.988  0.00  0.00    +0.150 C 
ATOM     17  H   UNL     1       8.664   1.815  -1.385  0.00  0.00    +0.156 HD
BRANCH  15  18
ATOM     18  C   UNL     1      13.377   1.598  -5.302  0.00  0.00    +0.241 C 
ATOM     19  O   UNL     1      14.540   1.682  -4.970  0.00  0.00    -0.273 OA
ATOM     20  N   UNL     1      13.059   1.185  -6.545  0.00  0.00    -0.327 N 
ATOM     21  H   UNL     1      12.129   1.117  -6.811  0.00  0.00    +0.145 HD
ATOM     22  H   UNL     1      13.761   0.956  -7.175  0.00  0.00    +0.145 HD
ENDBRANCH  15  18
ENDBRANCH   4   8
BRANCH   1  24
ATOM     23  N   UNL     1       2.367  -0.759  -0.833  0.00  0.00    -0.311 N 
ATOM     24  C   UNL     1       3.043  -0.689  -1.996  0.00  0.00    +0.245 C 
ATOM     25  O   UNL     1       2.507  -1.028  -3.034  0.00  0.00    -0.270 OA
ATOM     26  H   UNL     1       2.795  -0.489  -0.006  0.00  0.00    +0.149 HD
BRANCH  23  27
ATOM     27  C   UNL     1       0.985  -1.244  -0.818  0.00  0.00    +0.107 C 
BRANCH  27  29
ATOM     28  C   UNL     1       0.381   0.221   1.114  0.00  0.00    +0.009 C 
ATOM     29  C   UNL     1       0.453  -1.224   0.617  0.00  0.00    -0.000 C 
ATOM     30  C   UNL     1      -0.945  -1.846   0.652  0.00  0.00    +0.009 C 
ENDBRANCH  27  29
ENDBRANCH  23  27
ENDBRANCH   1  24
TORSDOF 5
