REMARK  Name = ZINC50102929
REMARK  7 active torsions:
REMARK  status: ('A' for Active; 'I' for Inactive)
REMARK    1  A    between atoms: C_1  and  C_2
REMARK    2  A    between atoms: C_2  and  C_4
REMARK    3  A    between atoms: C_2  and  N_9
REMARK    4  A    between atoms: N_9  and  S_10
REMARK    5  A    between atoms: S_10  and  C_13
REMARK    6  A    between atoms: C_13  and  C_14
REMARK    7  A    between atoms: C_19  and  N_20
REMARK                            x       y       z     vdW  Elec       q    Type
REMARK                         _______ _______ _______ _____ _____    ______ ____
ROOT
ATOM      1  S   UNL     1      -2.092  -0.923   1.446  0.00  0.00    +0.034 S 
ATOM      2  O   UNL     1      -3.385  -1.388   1.082  0.00  0.00    -0.158 OA
ATOM      3  O   UNL     1      -1.163  -1.789   2.083  0.00  0.00    -0.158 OA
ENDROOT
BRANCH   1   4
ATOM      4  N   UNL     1      -1.372  -0.511   0.012  0.00  0.00    -0.184 NA
ATOM      5  H   UNL     1      -1.861  -0.606  -0.820  0.00  0.00    +0.148 HD
BRANCH   4   7
ATOM      6  C   UNL     1      -0.019   1.526   0.010  0.00  0.00    +0.034 C 
ATOM      7  C   UNL     1       0.002  -0.004   0.002  0.00  0.00    +0.144 C 
BRANCH   7   8
ATOM      8  C   UNL     1       0.707  -0.490  -1.238  0.00  0.00    +0.195 A 
ATOM      9  N   UNL     1       1.930  -0.996  -1.304  0.00  0.00    -0.109 NA
ATOM     10  N   UNL     1       2.164  -1.290  -2.538  0.00  0.00    -0.021 NA
ATOM     11  N   UNL     1       1.131  -0.987  -3.244  0.00  0.00    -0.021 NA
ATOM     12  N   UNL     1       0.222  -0.499  -2.471  0.00  0.00    -0.109 NA
ENDBRANCH   7   8
ENDBRANCH   4   7
ENDBRANCH   1   4
BRANCH   1  13
ATOM     13  C   UNL     1      -2.225   0.635   2.365  0.00  0.00    +0.222 C 
BRANCH  13  14
ATOM     14  C   UNL     1      -2.873   0.377   3.701  0.00  0.00    -0.004 A 
ATOM     15  C   UNL     1      -4.247   0.447   3.828  0.00  0.00    +0.007 A 
ATOM     16  C   UNL     1      -4.842   0.211   5.053  0.00  0.00    +0.000 A 
ATOM     17  C   UNL     1      -4.065  -0.097   6.155  0.00  0.00    +0.002 A 
ATOM     18  C   UNL     1      -2.692  -0.170   6.035  0.00  0.00    +0.023 A 
ATOM     19  C   UNL     1      -2.090   0.062   4.804  0.00  0.00    +0.029 A 
BRANCH  19  20
ATOM     20  N   UNL     1      -0.701  -0.015   4.678  0.00  0.00    -0.358 N 
ATOM     21  H   UNL     1      -0.282   0.151   3.819  0.00  0.00    +0.142 HD
ATOM     22  H   UNL     1      -0.156  -0.235   5.449  0.00  0.00    +0.142 HD
ENDBRANCH  19  20
ENDBRANCH  13  14
ENDBRANCH   1  13
TORSDOF 6
