REMARK  Name = ZINC08914079
REMARK  8 active torsions:
REMARK  status: ('A' for Active; 'I' for Inactive)
REMARK    1  A    between atoms: C_1  and  C_2
REMARK    2  A    between atoms: C_6  and  N_9
REMARK    3  A    between atoms: C_7  and  C_8
REMARK    4  A    between atoms: C_13  and  C_14
REMARK    5  A    between atoms: C_16  and  C_31
REMARK    6  A    between atoms: N_17  and  C_20
REMARK    7  A    between atoms: C_18  and  C_19
REMARK    8  A    between atoms: C_21  and  C_29
REMARK                            x       y       z     vdW  Elec       q    Type
REMARK                         _______ _______ _______ _____ _____    ______ ____
ROOT
ATOM      1  N   UNL     1      -0.252  -1.113   3.825  0.00  0.00    -0.188 N 
ATOM      2  C   UNL     1      -1.220  -2.053   3.879  0.00  0.00    +0.264 C 
ATOM      3  O   UNL     1      -2.059  -2.142   3.002  0.00  0.00    -0.269 OA
ATOM      4  C   UNL     1      -1.227  -2.967   5.034  0.00  0.00    +0.102 C 
ATOM      5  C   UNL     1      -2.185  -3.959   5.167  0.00  0.00    +0.028 C 
ATOM      6  C   UNL     1      -0.165  -2.777   6.044  0.00  0.00    +0.276 C 
ATOM      7  N   UNL     1       0.731  -1.796   5.852  0.00  0.00    -0.123 NA
ATOM      8  C   UNL     1       0.691  -1.016   4.801  0.00  0.00    +0.340 C 
ATOM      9  O   UNL     1       1.633  -0.059   4.682  0.00  0.00    -0.250 OA
ATOM     10  O   UNL     1      -0.105  -3.494   7.029  0.00  0.00    -0.268 OA
ENDROOT
BRANCH   1  16
ATOM     11  C   UNL     1      -1.601   3.162   1.803  0.00  0.00    +0.044 C 
ATOM     12  C   UNL     1      -0.859   1.852   1.734  0.00  0.00    -0.046 A 
ATOM     13  C   UNL     1      -0.139   1.525   0.600  0.00  0.00    +0.004 A 
ATOM     14  C   UNL     1       0.543   0.324   0.533  0.00  0.00    +0.002 A 
ATOM     15  C   UNL     1       0.508  -0.552   1.600  0.00  0.00    +0.024 A 
ATOM     16  C   UNL     1      -0.214  -0.226   2.740  0.00  0.00    +0.049 A 
ATOM     17  C   UNL     1      -0.893   0.983   2.807  0.00  0.00    -0.026 A 
ATOM     18  C   UNL     1      -1.672   1.343   4.045  0.00  0.00    +0.046 C 
ENDBRANCH   1  16
BRANCH   5  19
ATOM     19  C   UNL     1      -2.057  -4.934   6.184  0.00  0.00    -0.003 A 
ATOM     20  C   UNL     1      -0.835  -5.655   6.572  0.00  0.00    +0.031 A 
ATOM     21  C   UNL     1      -1.181  -6.476   7.576  0.00  0.00    +0.022 A 
ATOM     22  N   UNL     1      -2.516  -6.326   7.843  0.00  0.00    -0.310 N 
ATOM     23  C   UNL     1      -3.057  -5.404   7.024  0.00  0.00    +0.029 A 
ATOM     24  C   UNL     1      -4.497  -4.961   7.018  0.00  0.00    +0.064 C 
ATOM     25  C   UNL     1      -0.248  -7.417   8.295  0.00  0.00    +0.064 C 
BRANCH  22  26
ATOM     26  C   UNL     1      -3.213  -7.023   8.824  0.00  0.00    +0.103 A 
ATOM     27  C   UNL     1      -4.330  -7.824   8.667  0.00  0.00    +0.086 A 
ATOM     28  C   UNL     1      -4.875  -8.447   9.858  0.00  0.00    -0.018 A 
ATOM     29  C   UNL     1      -4.200  -8.154  10.993  0.00  0.00    -0.004 A 
ATOM     30  S   UNL     1      -2.887  -7.091  10.470  0.00  0.00    -0.074 S 
ATOM     31  C   UNL     1      -4.513  -8.637  12.376  0.00  0.00    +0.043 C 
ATOM     32  C   UNL     1      -5.936  -9.214  12.374  0.00  0.00    +0.005 C 
ATOM     33  C   UNL     1      -6.087 -10.160  11.180  0.00  0.00    +0.005 C 
ATOM     34  C   UNL     1      -6.094  -9.358   9.877  0.00  0.00    +0.037 C 
BRANCH  27  35
ATOM     35  C   UNL     1      -4.925  -8.030   7.380  0.00  0.00    +0.102 C 
ATOM     36  N   UNL     1      -5.397  -8.193   6.360  0.00  0.00    -0.191 NA
ENDBRANCH  27  35
ENDBRANCH  22  26
ENDBRANCH   5  19
TORSDOF 4
