REMARK  Name = ZINC66402792
REMARK  13 active torsions:
REMARK  status: ('A' for Active; 'I' for Inactive)
REMARK    1  A    between atoms: C_1  and  C_2
REMARK    2  A    between atoms: C_2  and  N_3
REMARK    3  A    between atoms: N_3  and  C_4
REMARK    4  A    between atoms: N_3  and  C_6
REMARK    5  A    between atoms: C_4  and  C_5
REMARK    6  A    between atoms: C_6  and  C_8
REMARK    7  A    between atoms: C_6  and  C_12
REMARK    8  A    between atoms: C_8  and  C_9
REMARK    9  A    between atoms: C_9  and  C_10
REMARK   10  A    between atoms: C_9  and  C_11
REMARK   11  A    between atoms: C_12  and  N_13
REMARK   12  A    between atoms: N_16  and  C_17
REMARK   13  A    between atoms: C_19  and  C_25
REMARK                            x       y       z     vdW  Elec       q    Type
REMARK                         _______ _______ _______ _____ _____    ______ ____
ROOT
ATOM      1  N   UNL     1      -3.412  -1.347  -1.357  0.00  0.00    -0.301 N 
ATOM      2  C   UNL     1      -4.688  -1.446  -1.780  0.00  0.00    +0.304 C 
ATOM      3  O   UNL     1      -5.519  -1.994  -1.081  0.00  0.00    -0.253 OA
ATOM      4  N   UNL     1      -5.043  -0.936  -2.976  0.00  0.00    -0.265 N 
ATOM      5  H   UNL     1      -2.749  -0.909  -1.914  0.00  0.00    +0.150 HD
ATOM      6  H   UNL     1      -4.368  -0.564  -3.564  0.00  0.00    +0.157 HD
ENDROOT
BRANCH   4   7
ATOM      7  C   UNL     1      -6.389  -0.946  -3.370  0.00  0.00    +0.100 A 
ATOM      8  C   UNL     1      -7.033   0.226  -3.661  0.00  0.00    +0.042 A 
ATOM      9  C   UNL     1      -8.379   0.188  -4.053  0.00  0.00    +0.073 A 
ATOM     10  C   UNL     1      -9.026  -0.997  -4.140  0.00  0.00    +0.098 A 
ATOM     11  N   UNL     1      -8.387  -2.162  -3.851  0.00  0.00    -0.327 N 
ATOM     12  H   UNL     1      -8.868  -3.002  -3.919  0.00  0.00    +0.168 HD
ATOM     13  C   UNL     1      -7.094  -2.164  -3.477  0.00  0.00    +0.270 A 
ATOM     14  O   UNL     1      -6.532  -3.219  -3.225  0.00  0.00    -0.266 OA
BRANCH   9  15
ATOM     15  C   UNL     1      -9.105   1.468  -4.377  0.00  0.00    +0.419 C 
ATOM     16  F   UNL     1     -10.424   1.177  -4.739  0.00  0.00    -0.166 F 
ATOM     17  F   UNL     1      -9.103   2.302  -3.254  0.00  0.00    -0.166 F 
ATOM     18  F   UNL     1      -8.461   2.113  -5.438  0.00  0.00    -0.166 F 
ENDBRANCH   9  15
ENDBRANCH   4   7
BRANCH   1  19
ATOM     19  C   UNL     1      -3.026  -1.900  -0.057  0.00  0.00    +0.090 C 
BRANCH  19  20
ATOM     20  C   UNL     1      -1.567  -1.544   0.236  0.00  0.00    -0.051 C 
BRANCH  20  21
ATOM     21  N   UNL     1      -1.393  -0.087   0.154  0.00  0.00    +0.382 N 
ATOM     22  H   UNL     1      -1.711   0.239  -0.746  0.00  0.00    -0.081 HD
BRANCH  21  24
ATOM     23  C   UNL     1      -2.133   2.077   1.027  0.00  0.00    -0.017 C 
ATOM     24  C   UNL     1      -2.175   0.560   1.216  0.00  0.00    -0.082 C 
ENDBRANCH  21  24
BRANCH  21  25
ATOM     25  C   UNL     1       0.028   0.246   0.321  0.00  0.00    -0.082 C 
ATOM     26  C   UNL     1       0.830  -0.342  -0.842  0.00  0.00    -0.017 C 
ENDBRANCH  21  25
ENDBRANCH  20  21
BRANCH  20  27
ATOM     27  C   UNL     1      -1.197  -2.023   1.641  0.00  0.00    -0.011 C 
BRANCH  27  28
ATOM     28  C   UNL     1      -1.279  -3.550   1.697  0.00  0.00    -0.019 C 
ATOM     29  C   UNL     1      -0.211  -4.152   0.781  0.00  0.00    +0.007 C 
ATOM     30  C   UNL     1      -1.043  -4.022   3.133  0.00  0.00    +0.007 C 
ENDBRANCH  27  28
ENDBRANCH  20  27
ENDBRANCH  19  20
ENDBRANCH   1  19
TORSDOF 9
