REMARK  Name = ZINC47729723
REMARK  10 active torsions:
REMARK  status: ('A' for Active; 'I' for Inactive)
REMARK    1  A    between atoms: C_1  and  C_2
REMARK    2  A    between atoms: C_2  and  C_3
REMARK    3  A    between atoms: C_2  and  C_4
REMARK    4  A    between atoms: C_4  and  N_5
REMARK    5  A    between atoms: C_6  and  C_8
REMARK    6  A    between atoms: C_11  and  N_14
REMARK    7  A    between atoms: N_17  and  C_18
REMARK    8  A    between atoms: C_18  and  C_19
REMARK    9  A    between atoms: C_19  and  C_21
REMARK   10  A    between atoms: C_19  and  N_26
REMARK                            x       y       z     vdW  Elec       q    Type
REMARK                         _______ _______ _______ _____ _____    ______ ____
ROOT
ATOM      1  N   UNL     1       8.351   1.395  -2.162  0.00  0.00    -0.269 N 
ATOM      2  C   UNL     1       9.209   0.897  -3.074  0.00  0.00    +0.304 C 
ATOM      3  O   UNL     1       8.792   0.221  -3.995  0.00  0.00    -0.253 OA
ATOM      4  N   UNL     1      10.529   1.149  -2.966  0.00  0.00    -0.300 N 
ATOM      5  H   UNL     1       8.674   1.992  -1.468  0.00  0.00    +0.156 HD
ATOM      6  H   UNL     1      10.861   1.688  -2.232  0.00  0.00    +0.150 HD
ENDROOT
BRANCH   1  10
ATOM      7  C   UNL     1       4.316   0.373  -2.321  0.00  0.00    +0.037 A 
ATOM      8  C   UNL     1       5.043   0.541  -3.502  0.00  0.00    +0.015 A 
ATOM      9  C   UNL     1       6.377   0.878  -3.446  0.00  0.00    +0.024 A 
ATOM     10  C   UNL     1       7.001   1.053  -2.215  0.00  0.00    +0.035 A 
ATOM     11  C   UNL     1       6.280   0.886  -1.036  0.00  0.00    +0.024 A 
ATOM     12  C   UNL     1       4.945   0.554  -1.085  0.00  0.00    +0.015 A 
BRANCH   7  14
ATOM     13  N   UNL     1       2.282  -0.163  -3.569  0.00  0.00    -0.311 N 
ATOM     14  C   UNL     1       2.887   0.011  -2.377  0.00  0.00    +0.244 C 
ATOM     15  O   UNL     1       2.254  -0.130  -1.348  0.00  0.00    -0.270 OA
ATOM     16  H   UNL     1       2.787  -0.051  -4.390  0.00  0.00    +0.149 HD
BRANCH  13  17
ATOM     17  C   UNL     1       0.863  -0.522  -3.625  0.00  0.00    +0.107 C 
BRANCH  17  19
ATOM     18  C   UNL     1       1.169  -1.832  -5.730  0.00  0.00    +0.009 C 
ATOM     19  C   UNL     1       0.428  -0.659  -5.085  0.00  0.00    -0.000 C 
ATOM     20  C   UNL     1      -1.079  -0.910  -5.148  0.00  0.00    +0.009 C 
ENDBRANCH  17  19
ENDBRANCH  13  17
ENDBRANCH   7  14
ENDBRANCH   1  10
BRANCH   4  21
ATOM     21  C   UNL     1      11.461   0.607  -3.958  0.00  0.00    +0.098 C 
BRANCH  21  22
ATOM     22  C   UNL     1      12.897   0.928  -3.537  0.00  0.00    +0.016 C 
BRANCH  22  23
ATOM     23  N   UNL     1      13.825   0.484  -4.585  0.00  0.00    +0.387 N 
ATOM     24  C   UNL     1      13.648   1.307  -5.809  0.00  0.00    -0.078 C 
ATOM     25  C   UNL     1      14.994   1.127  -6.555  0.00  0.00    -0.020 C 
ATOM     26  C   UNL     1      16.026   1.101  -5.405  0.00  0.00    -0.020 C 
ATOM     27  C   UNL     1      15.223   0.700  -4.153  0.00  0.00    -0.078 C 
ATOM     28  H   UNL     1      13.673  -0.491  -4.795  0.00  0.00    -0.081 HD
ENDBRANCH  22  23
BRANCH  22  29
ATOM     29  C   UNL     1      13.214   0.213  -2.249  0.00  0.00    +0.093 A 
ATOM     30  C   UNL     1      13.196   0.761  -1.020  0.00  0.00    +0.043 A 
ATOM     31  C   UNL     1      13.555  -0.261  -0.111  0.00  0.00    +0.041 A 
ATOM     32  C   UNL     1      13.771  -1.371  -0.839  0.00  0.00    +0.195 A 
ATOM     33  O   UNL     1      13.557  -1.080  -2.132  0.00  0.00    -0.469 OA
ENDBRANCH  22  29
ENDBRANCH  21  22
ENDBRANCH   4  21
TORSDOF 8
