REMARK  Name = ZINC06363914
REMARK  8 active torsions:
REMARK  status: ('A' for Active; 'I' for Inactive)
REMARK    1  A    between atoms: C_1  and  C_2
REMARK    2  A    between atoms: C_2  and  C_3
REMARK    3  A    between atoms: C_2  and  C_4
REMARK    4  A    between atoms: C_2  and  C_5
REMARK    5  A    between atoms: C_10  and  C_15
REMARK    6  A    between atoms: N_17  and  N_18
REMARK    7  A    between atoms: C_19  and  C_21
REMARK    8  A    between atoms: C_30  and  C_32
REMARK                            x       y       z     vdW  Elec       q    Type
REMARK                         _______ _______ _______ _____ _____    ______ ____
ROOT
ATOM      1  C   UNL     1      -0.014   0.107  -0.261  0.00  0.00    +0.261 C 
ATOM      2  O   UNL     1       1.041  -0.498  -0.283  0.00  0.00    -0.269 OA
ATOM      3  N   UNL     1      -0.017   1.453  -0.186  0.00  0.00    -0.230 N 
ATOM      4  H   UNL     1      -0.859   1.936  -0.172  0.00  0.00    +0.173 HD
ENDROOT
BRANCH   1   9
ATOM      5  C   UNL     1      -1.621  -4.894  -0.182  0.00  0.00    -0.000 C 
ATOM      6  C   UNL     1      -0.439  -4.329  -0.975  0.00  0.00    +0.009 C 
ATOM      7  C   UNL     1      -0.061  -2.948  -0.436  0.00  0.00    +0.037 C 
ATOM      8  C   UNL     1      -1.311  -2.078  -0.399  0.00  0.00    -0.025 A 
ATOM      9  C   UNL     1      -1.287  -0.630  -0.317  0.00  0.00    +0.049 A 
ATOM     10  C   UNL     1      -2.494   0.033  -0.288  0.00  0.00    +0.058 A 
ATOM     11  S   UNL     1      -3.654  -1.252  -0.378  0.00  0.00    -0.101 S 
ATOM     12  C   UNL     1      -2.545  -2.630  -0.443  0.00  0.00    -0.006 A 
ATOM     13  C   UNL     1      -2.881  -4.087  -0.528  0.00  0.00    +0.046 C 
BRANCH   5  15
ATOM     14  C   UNL     1      -0.568  -7.159  -0.219  0.00  0.00    +0.011 C 
ATOM     15  C   UNL     1      -1.832  -6.363  -0.552  0.00  0.00    -0.035 C 
ATOM     16  C   UNL     1      -3.013  -6.925   0.242  0.00  0.00    +0.011 C 
ATOM     17  C   UNL     1      -2.125  -6.475  -2.050  0.00  0.00    +0.011 C 
ENDBRANCH   5  15
ENDBRANCH   1   9
BRANCH   3  18
ATOM     18  N   UNL     1       1.194   2.154  -0.133  0.00  0.00    -0.234 N 
ATOM     19  C   UNL     1       1.191   3.500  -0.057  0.00  0.00    +0.233 C 
ATOM     20  O   UNL     1       0.139   4.104  -0.035  0.00  0.00    -0.274 OA
ATOM     21  H   UNL     1       2.035   1.672  -0.150  0.00  0.00    +0.173 HD
BRANCH  19  22
ATOM     22  C   UNL     1       2.494   4.255   0.000  0.00  0.00    +0.094 C 
ATOM     23  C   UNL     1       2.231   5.789   0.084  0.00  0.00    +0.002 C 
ATOM     24  C   UNL     1       3.636   6.438  -0.102  0.00  0.00    +0.004 C 
ATOM     25  C   UNL     1       4.397   6.100   1.200  0.00  0.00    +0.004 C 
ATOM     26  C   UNL     1       3.380   5.280   2.050  0.00  0.00    +0.004 C 
ATOM     27  C   UNL     1       2.032   5.966   1.630  0.00  0.00    +0.008 C 
ATOM     28  C   UNL     1       3.255   3.918   1.303  0.00  0.00    +0.117 C 
BRANCH  28  29
ATOM     29  C   UNL     1       4.621   3.366   0.985  0.00  0.00    +0.360 C 
ATOM     30  O   UNL     1       5.133   3.598  -0.084  0.00  0.00    -0.246 OA
ATOM     31  O   UNL     1       5.269   2.617   1.891  0.00  0.00    -0.246 OA
ENDBRANCH  28  29
ENDBRANCH  19  22
ENDBRANCH   3  18
TORSDOF 5
