REMARK  Name = ZINC52094293
REMARK  3 active torsions:
REMARK  status: ('A' for Active; 'I' for Inactive)
REMARK    1  A    between atoms: C_2  and  C_14
REMARK    2  A    between atoms: C_14  and  C_16
REMARK    3  A    between atoms: C_14  and  N_20
REMARK                            x       y       z     vdW  Elec       q    Type
REMARK                         _______ _______ _______ _____ _____    ______ ____
ROOT
ATOM      1  C   UNL     1      -0.017   1.382   0.010  0.00  0.00    +0.031 A 
ATOM      2  C   UNL     1       1.172   2.086   0.002  0.00  0.00    -0.046 A 
ATOM      3  C   UNL     1       2.382   1.413  -0.013  0.00  0.00    +0.022 A 
ATOM      4  C   UNL     1       2.410   0.031  -0.021  0.00  0.00    +0.043 A 
ATOM      5  C   UNL     1       1.222  -0.683  -0.013  0.00  0.00    +0.068 A 
ATOM      6  C   UNL     1       0.002  -0.004   0.002  0.00  0.00    +0.067 A 
ATOM      7  N   UNL     1      -0.998  -0.974   0.006  0.00  0.00    -0.306 N 
ATOM      8  H   UNL     1      -1.953  -0.804   0.016  0.00  0.00    +0.170 HD
ATOM      9  C   UNL     1      -0.413  -2.186  -0.006  0.00  0.00    +0.325 A 
ATOM     10  O   UNL     1      -1.005  -3.250  -0.005  0.00  0.00    -0.247 OA
ATOM     11  N   UNL     1       0.925  -2.044  -0.018  0.00  0.00    -0.306 N 
ATOM     12  H   UNL     1       1.573  -2.767  -0.028  0.00  0.00    +0.170 HD
ATOM     13 BR   UNL     1       4.002   2.388  -0.024  0.00  0.00    -0.050 Br
ENDROOT
BRANCH   2  14
ATOM     14  C   UNL     1       1.151   3.593   0.010  0.00  0.00    -0.040 C 
BRANCH  14  15
ATOM     15  C   UNL     1       1.257   4.112  -1.426  0.00  0.00    -0.021 C 
ATOM     16  C   UNL     1       2.699   4.166  -1.957  0.00  0.00    +0.002 C 
ATOM     17  C   UNL     1       2.322   5.503  -2.616  0.00  0.00    +0.000 C 
ATOM     18  C   UNL     1       1.245   5.646  -1.528  0.00  0.00    +0.002 C 
ENDBRANCH  14  15
BRANCH  14  19
ATOM     19  N   UNL     1      -0.105   4.062   0.609  0.00  0.00    +0.383 N 
ATOM     20  H   UNL     1      -0.118   5.071   0.615  0.00  0.00    -0.089 HD
ATOM     21  H   UNL     1      -0.885   3.718   0.069  0.00  0.00    -0.089 HD
ATOM     22  H   UNL     1      -0.174   3.720   1.556  0.00  0.00    -0.089 HD
ENDBRANCH  14  19
ENDBRANCH   2  14
TORSDOF 3
