REMARK  Name = ZINC33935981
REMARK  9 active torsions:
REMARK  status: ('A' for Active; 'I' for Inactive)
REMARK    1  A    between atoms: C_1  and  C_2
REMARK    2  A    between atoms: C_2  and  O_3
REMARK    3  A    between atoms: O_3  and  C_4
REMARK    4  A    between atoms: C_4  and  C_6
REMARK    5  A    between atoms: C_8  and  C_20
REMARK    6  A    between atoms: C_14  and  C_15
REMARK    7  A    between atoms: C_14  and  O_19
REMARK    8  A    between atoms: C_22  and  N_27
REMARK    9  A    between atoms: C_25  and  O_26
REMARK                            x       y       z     vdW  Elec       q    Type
REMARK                         _______ _______ _______ _____ _____    ______ ____
ROOT
ATOM      1  C   UNL     1      -2.899  -2.427   0.028  0.00  0.00    +0.181 C 
ATOM      2  C   UNL     1      -2.804  -3.950  -0.115  0.00  0.00    +0.127 C 
ATOM      3  N   UNL     1      -2.215  -4.275  -1.415  0.00  0.00    -0.291 N 
ATOM      4  C   UNL     1      -2.367  -3.463  -2.472  0.00  0.00    +0.302 C 
ATOM      5  O   UNL     1      -1.866  -3.785  -3.532  0.00  0.00    -0.253 OA
ATOM      6  N   UNL     1      -3.050  -2.311  -2.406  0.00  0.00    -0.264 N 
ATOM      7  C   UNL     1      -3.689  -1.870  -1.161  0.00  0.00    +0.246 C 
ATOM      8  H   UNL     1      -1.704  -5.093  -1.514  0.00  0.00    +0.151 HD
ATOM      9  H   UNL     1      -3.123  -1.756  -3.199  0.00  0.00    +0.153 HD
ENDROOT
BRANCH   2  10
ATOM     10  C   UNL     1      -4.183  -4.551  -0.021  0.00  0.00    +0.017 A 
ATOM     11  C   UNL     1      -4.856  -4.920  -1.170  0.00  0.00    +0.041 A 
ATOM     12  C   UNL     1      -6.121  -5.471  -1.085  0.00  0.00    +0.127 A 
ATOM     13  C   UNL     1      -6.716  -5.655   0.150  0.00  0.00    +0.036 A 
ATOM     14  C   UNL     1      -6.047  -5.288   1.302  0.00  0.00    +0.048 A 
ATOM     15  C   UNL     1      -4.775  -4.740   1.219  0.00  0.00    +0.122 A 
BRANCH  12  16
ATOM     16  N   UNL     1      -6.840  -5.865  -2.317  0.00  0.00    +0.056 N 
ATOM     17  O   UNL     1      -6.321  -5.704  -3.397  0.00  0.00    -0.126 OA
ATOM     18  O   UNL     1      -7.946  -6.347  -2.244  0.00  0.00    -0.126 OA
ENDBRANCH  12  16
BRANCH  15  19
ATOM     19  O   UNL     1      -4.113  -4.383   2.351  0.00  0.00    -0.506 OA
ATOM     20  H   UNL     1      -4.277  -3.472   2.631  0.00  0.00    +0.292 HD
ENDBRANCH  15  19
ENDBRANCH   2  10
BRANCH   7  21
ATOM     21  C   UNL     1      -3.698  -0.341  -1.097  0.00  0.00    +0.436 C 
ATOM     22  F   UNL     1      -2.398   0.141  -1.280  0.00  0.00    -0.166 F 
ATOM     23  F   UNL     1      -4.529   0.163  -2.103  0.00  0.00    -0.166 F 
ATOM     24  F   UNL     1      -4.176   0.071   0.152  0.00  0.00    -0.166 F 
ENDBRANCH   7  21
BRANCH   1  25
ATOM     25  C   UNL     1      -1.514  -1.833   0.038  0.00  0.00    +0.317 C 
ATOM     26  O   UNL     1      -0.650  -2.301  -0.665  0.00  0.00    -0.250 OA
BRANCH  25  27
ATOM     27  O   UNL     1      -1.239  -0.784   0.829  0.00  0.00    -0.465 OA
BRANCH  27  29
ATOM     28  C   UNL     1       0.215   0.913   1.749  0.00  0.00    +0.048 C 
ATOM     29  C   UNL     1       0.094  -0.272   0.788  0.00  0.00    +0.229 C 
ENDBRANCH  27  29
ENDBRANCH  25  27
ENDBRANCH   1  25
BRANCH   7  30
ATOM     30  O   UNL     1      -5.031  -2.359  -1.114  0.00  0.00    -0.364 OA
ATOM     31  H   UNL     1      -5.589  -2.046  -1.838  0.00  0.00    +0.212 HD
ENDBRANCH   7  30
TORSDOF 8
