REMARK  Name = ZINC62535891
REMARK  7 active torsions:
REMARK  status: ('A' for Active; 'I' for Inactive)
REMARK    1  A    between atoms: C_1  and  C_2
REMARK    2  A    between atoms: C_2  and  C_3
REMARK    3  A    between atoms: N_7  and  C_19
REMARK    4  A    between atoms: C_10  and  C_16
REMARK    5  A    between atoms: C_12  and  N_15
REMARK    6  A    between atoms: C_16  and  C_17
REMARK    7  A    between atoms: C_16  and  C_18
REMARK                            x       y       z     vdW  Elec       q    Type
REMARK                         _______ _______ _______ _____ _____    ______ ____
ROOT
ATOM      1  C   UNL     1      -1.433  -0.534   0.013  0.00  0.00    +0.259 C 
ATOM      2  C   UNL     1      -1.413  -2.037   0.130  0.00  0.00    +0.260 C 
ATOM      3  O   UNL     1      -1.479  -2.563   1.221  0.00  0.00    -0.271 OA
ATOM      4  N   UNL     1      -1.321  -2.794  -0.983  0.00  0.00    -0.268 N 
ATOM      5  C   UNL     1      -1.373  -2.173  -2.239  0.00  0.00    +0.080 A 
ATOM      6  C   UNL     1      -1.055  -2.881  -3.389  0.00  0.00    +0.031 A 
ATOM      7  C   UNL     1      -1.097  -2.255  -4.620  0.00  0.00    -0.041 A 
ATOM      8  C   UNL     1      -1.455  -0.922  -4.712  0.00  0.00    +0.030 A 
ATOM      9  C   UNL     1      -1.779  -0.207  -3.567  0.00  0.00    +0.069 A 
ATOM     10  C   UNL     1      -1.744  -0.835  -2.327  0.00  0.00    +0.163 A 
ATOM     11  O   UNL     1      -2.089  -0.156  -1.200  0.00  0.00    -0.476 OA
ATOM     12  C   UNL     1      -1.168  -4.247  -0.881  0.00  0.00    +0.138 C 
ENDROOT
BRANCH   9  13
ATOM     13  N   UNL     1      -2.140   1.142  -3.660  0.00  0.00    -0.355 N 
ATOM     14  H   UNL     1      -2.164   1.579  -4.526  0.00  0.00    +0.142 HD
ATOM     15  H   UNL     1      -2.366   1.640  -2.859  0.00  0.00    +0.142 HD
ENDBRANCH   9  13
BRANCH   7  16
ATOM     16  C   UNL     1      -0.753  -3.027  -5.868  0.00  0.00    +0.013 C 
ATOM     17  C   UNL     1      -1.954  -3.029  -6.815  0.00  0.00    +0.012 C 
ATOM     18  C   UNL     1       0.442  -2.369  -6.561  0.00  0.00    +0.012 C 
ENDBRANCH   7  16
BRANCH   1  20
ATOM     19  C   UNL     1      -0.019   1.526   0.010  0.00  0.00    +0.008 C 
ATOM     20  C   UNL     1       0.002  -0.004   0.002  0.00  0.00    +0.051 C 
ENDBRANCH   1  20
TORSDOF 3
