REMARK  Name = ZINC63627413
REMARK  7 active torsions:
REMARK  status: ('A' for Active; 'I' for Inactive)
REMARK    1  A    between atoms: C_1  and  C_2
REMARK    2  A    between atoms: C_4  and  C_30
REMARK    3  A    between atoms: C_5  and  S_9
REMARK    4  A    between atoms: C_6  and  C_8
REMARK    5  A    between atoms: S_9  and  N_12
REMARK    6  A    between atoms: N_12  and  C_13
REMARK    7  A    between atoms: C_16  and  C_19
REMARK                            x       y       z     vdW  Elec       q    Type
REMARK                         _______ _______ _______ _____ _____    ______ ____
ROOT
ATOM      1  C   UNL     1       1.917  -6.023   0.384  0.00  0.00    +0.048 A 
ATOM      2  C   UNL     1       2.384  -4.815   0.885  0.00  0.00    +0.025 A 
ATOM      3  C   UNL     1       3.500  -4.791   1.698  0.00  0.00    +0.008 A 
ATOM      4  C   UNL     1       4.153  -5.968   2.013  0.00  0.00    -0.021 A 
ATOM      5  C   UNL     1       3.691  -7.173   1.516  0.00  0.00    +0.008 A 
ATOM      6  C   UNL     1       2.572  -7.205   0.707  0.00  0.00    +0.025 A 
ENDROOT
BRANCH   4   7
ATOM      7  C   UNL     1       5.371  -5.939   2.900  0.00  0.00    +0.133 C 
ATOM      8  C   UNL     1       6.626  -6.082   2.067  0.00  0.00    +0.012 C 
ATOM      9  C   UNL     1       7.234  -7.210   2.498  0.00  0.00    -0.001 A 
ATOM     10  C   UNL     1       8.474  -7.886   2.096  0.00  0.00    +0.048 A 
ATOM     11  C   UNL     1       8.832  -9.029   2.726  0.00  0.00    +0.124 A 
ATOM     12  C   UNL     1       8.049  -9.582   3.752  0.00  0.00    +0.040 A 
ATOM     13  C   UNL     1       6.899  -9.018   4.175  0.00  0.00    +0.029 A 
ATOM     14  C   UNL     1       6.427  -7.814   3.582  0.00  0.00    +0.043 A 
ATOM     15  N   UNL     1       5.360  -7.086   3.814  0.00  0.00    -0.374 N 
ATOM     16  F   UNL     1       9.972  -9.654   2.359  0.00  0.00    -0.205 F 
ATOM     17  H   UNL     1       4.678  -7.274   4.478  0.00  0.00    +0.161 HD
ENDBRANCH   4   7
BRANCH   1  18
ATOM     18  N   UNL     1       0.788  -6.051  -0.438  0.00  0.00    -0.216 N 
ATOM     19  H   UNL     1       0.800  -6.565  -1.260  0.00  0.00    +0.174 HD
BRANCH  18  20
ATOM     20  S   UNL     1      -0.570  -5.206  -0.008  0.00  0.00    +0.073 S 
ATOM     21  O   UNL     1      -0.794  -5.472   1.369  0.00  0.00    -0.150 OA
ATOM     22  O   UNL     1      -1.547  -5.474  -1.005  0.00  0.00    -0.150 OA
BRANCH  20  27
ATOM     23  C   UNL     1       0.772   0.660  -0.439  0.00  0.00    +0.044 C 
ATOM     24  C   UNL     1       0.437  -0.805  -0.331  0.00  0.00    -0.050 A 
ATOM     25  C   UNL     1       0.457  -1.430   0.901  0.00  0.00    +0.008 A 
ATOM     26  C   UNL     1       0.149  -2.774   1.000  0.00  0.00    -0.023 A 
ATOM     27  C   UNL     1      -0.179  -3.493  -0.134  0.00  0.00    +0.114 A 
ATOM     28  C   UNL     1      -0.199  -2.868  -1.367  0.00  0.00    -0.023 A 
ATOM     29  C   UNL     1       0.104  -1.523  -1.465  0.00  0.00    +0.008 A 
ATOM     30  C   UNL     1      -0.556  -3.652  -2.603  0.00  0.00    +0.046 C 
ATOM     31  C   UNL     1       0.172  -3.455   2.344  0.00  0.00    +0.046 C 
ENDBRANCH  20  27
ENDBRANCH  18  20
ENDBRANCH   1  18
TORSDOF 4
