REMARK  Name = ZINC26991245
REMARK  4 active torsions:
REMARK  status: ('A' for Active; 'I' for Inactive)
REMARK    1  A    between atoms: N_19  and  N_20
REMARK    2  A    between atoms: C_21  and  C_23
REMARK    3  A    between atoms: C_23  and  C_24
REMARK    4  A    between atoms: C_24  and  C_25
REMARK                            x       y       z     vdW  Elec       q    Type
REMARK                         _______ _______ _______ _____ _____    ______ ____
ROOT
ATOM      1  C   UNL     1       2.469   6.078   2.778  0.00  0.00    +0.001 A 
ATOM      2  C   UNL     1       1.265   6.245   2.118  0.00  0.00    +0.004 A 
ATOM      3  C   UNL     1       0.882   5.330   1.165  0.00  0.00    +0.046 A 
ATOM      4  C   UNL     1       1.693   4.231   0.852  0.00  0.00    +0.133 A 
ATOM      5  C   UNL     1       2.888   4.062   1.513  0.00  0.00    +0.013 A 
ATOM      6  C   UNL     1       3.268   4.998   2.476  0.00  0.00    +0.009 A 
ATOM      7  C   UNL     1       3.861   2.933   1.298  0.00  0.00    +0.154 C 
ATOM      8  N   UNL     1       3.572   2.131   0.124  0.00  0.00    -0.246 N 
ATOM      9  C   UNL     1       2.388   1.395   0.036  0.00  0.00    +0.082 A 
ATOM     10  C   UNL     1       2.409   0.009   0.020  0.00  0.00    +0.047 A 
ATOM     11  C   UNL     1       1.216  -0.692  -0.001  0.00  0.00    +0.043 A 
ATOM     12  C   UNL     1       0.009  -0.015   0.009  0.00  0.00    +0.024 A 
ATOM     13  C   UNL     1      -0.014   1.369   0.015  0.00  0.00    +0.049 A 
ATOM     14  C   UNL     1       1.179   2.070   0.005  0.00  0.00    +0.150 A 
ATOM     15  O   UNL     1       1.212   3.416  -0.108  0.00  0.00    -0.454 OA
ATOM     16 CL   UNL     1       1.233  -2.427  -0.037  0.00  0.00    -0.083 Cl
ATOM     17  C   UNL     1       4.456   2.095  -0.893  0.00  0.00    +0.323 C 
ATOM     18  O   UNL     1       5.446   2.800  -0.864  0.00  0.00    -0.251 OA
ATOM     19  N   UNL     1       4.243   1.276  -1.943  0.00  0.00    -0.218 N 
ATOM     20  H   UNL     1       3.308   0.701  -2.010  0.00  0.00    +0.174 HD
ENDROOT
BRANCH  19  21
ATOM     21  N   UNL     1       5.212   1.159  -2.948  0.00  0.00    -0.233 N 
ATOM     22  C   UNL     1       4.957   0.421  -4.046  0.00  0.00    +0.229 C 
ATOM     23  O   UNL     1       3.890  -0.142  -4.164  0.00  0.00    -0.274 OA
ATOM     24  H   UNL     1       6.180   1.670  -2.841  0.00  0.00    +0.173 HD
BRANCH  22  25
ATOM     25  C   UNL     1       6.000   0.294  -5.127  0.00  0.00    +0.103 C 
BRANCH  25  26
ATOM     26  C   UNL     1       5.462  -0.591  -6.253  0.00  0.00    +0.066 C 
BRANCH  26  27
ATOM     27  C   UNL     1       6.504  -0.717  -7.334  0.00  0.00    +0.063 A 
ATOM     28  C   UNL     1       7.494  -1.676  -7.221  0.00  0.00    +0.025 A 
ATOM     29  C   UNL     1       8.445  -1.786  -8.223  0.00  0.00    +0.003 A 
ATOM     30  C   UNL     1       8.372  -0.918  -9.302  0.00  0.00    +0.021 A 
ATOM     31  C   UNL     1       7.357   0.018  -9.346  0.00  0.00    +0.133 A 
ATOM     32  N   UNL     1       6.465   0.092  -8.376  0.00  0.00    -0.144 N 
ATOM     33  O   UNL     1       5.439   1.065  -8.455  0.00  0.00    -0.164 OA
ENDBRANCH  26  27
ENDBRANCH  25  26
ENDBRANCH  22  25
ENDBRANCH  19  21
TORSDOF 4
