REMARK  Name = ZINC31820018
REMARK  5 active torsions:
REMARK  status: ('A' for Active; 'I' for Inactive)
REMARK    1  A    between atoms: C_1  and  C_2
REMARK    2  A    between atoms: C_10  and  C_12
REMARK    3  A    between atoms: C_12  and  S_13
REMARK    4  A    between atoms: S_13  and  C_14
REMARK    5  A    between atoms: C_18  and  N_20
REMARK                            x       y       z     vdW  Elec       q    Type
REMARK                         _______ _______ _______ _____ _____    ______ ____
ROOT
ATOM      1  S   UNL     1       4.800   5.620  -0.014  0.00  0.00    -0.079 S 
ENDROOT
BRANCH   1   2
ATOM      2  C   UNL     1       5.811   7.063  -0.016  0.00  0.00    +0.192 A 
ATOM      3  N   UNL     1       5.233   8.255  -0.009  0.00  0.00    -0.207 NA
ATOM      4  C   UNL     1       5.965   9.367  -0.005  0.00  0.00    +0.122 A 
ATOM      5  C   UNL     1       7.353   9.265  -0.019  0.00  0.00    +0.086 A 
ATOM      6  C   UNL     1       7.924   7.996  -0.031  0.00  0.00    +0.122 A 
ATOM      7  N   UNL     1       7.129   6.928  -0.029  0.00  0.00    -0.207 NA
ATOM      8  N   UNL     1       5.352  10.611   0.008  0.00  0.00    -0.343 N 
ATOM      9  H   UNL     1       5.964  11.525   0.011  0.00  0.00    +0.144 HD
ATOM     10  H   UNL     1       4.255  10.683   0.015  0.00  0.00    +0.144 HD
BRANCH   6  11
ATOM     11  N   UNL     1       9.302   7.846  -0.044  0.00  0.00    -0.343 N 
ATOM     12  H   UNL     1       9.745   6.839  -0.054  0.00  0.00    +0.144 HD
ATOM     13  H   UNL     1       9.951   8.733  -0.046  0.00  0.00    +0.144 HD
ENDBRANCH   6  11
ENDBRANCH   1   2
BRANCH   1  14
ATOM     14  C   UNL     1       3.160   6.384   0.006  0.00  0.00    +0.142 C 
BRANCH  14  24
ATOM     15  C   UNL     1      -2.519   0.997   0.020  0.00  0.00    +0.066 C 
ATOM     16  C   UNL     1      -1.214   1.752   0.017  0.00  0.00    +0.046 A 
ATOM     17  C   UNL     1      -0.013   1.076   0.008  0.00  0.00    +0.095 A 
ATOM     18  C   UNL     1       1.184   1.792   0.000  0.00  0.00    +0.275 A 
ATOM     19  O   UNL     1       2.252   1.200  -0.013  0.00  0.00    -0.266 OA
ATOM     20  N   UNL     1       1.160   3.158   0.007  0.00  0.00    -0.171 N 
ATOM     21  C   UNL     1      -0.074   3.747   0.022  0.00  0.00    +0.199 A 
ATOM     22  N   UNL     1      -1.202   3.082   0.029  0.00  0.00    -0.227 NA
ATOM     23  S   UNL     1       0.327   5.480   0.028  0.00  0.00    -0.032 S 
ATOM     24  C   UNL     1       2.104   5.309   0.010  0.00  0.00    +0.113 A 
ATOM     25  N   UNL     1       2.253   4.019   0.002  0.00  0.00    -0.158 NA
ENDBRANCH  14  24
ENDBRANCH   1  14
TORSDOF 4
