REMARK  Name = ZINC28912688
REMARK  10 active torsions:
REMARK  status: ('A' for Active; 'I' for Inactive)
REMARK    1  A    between atoms: C_1  and  C_2
REMARK    2  A    between atoms: C_4  and  C_7
REMARK    3  A    between atoms: C_10  and  N_13
REMARK    4  A    between atoms: N_13  and  C_14
REMARK    5  A    between atoms: C_14  and  C_16
REMARK    6  A    between atoms: C_14  and  C_17
REMARK    7  A    between atoms: N_22  and  C_23
REMARK    8  A    between atoms: C_23  and  C_24
REMARK    9  A    between atoms: C_23  and  C_25
REMARK   10  A    between atoms: C_23  and  C_26
REMARK                            x       y       z     vdW  Elec       q    Type
REMARK                         _______ _______ _______ _____ _____    ______ ____
ROOT
ATOM      1  N   UNL     1      -5.202  -5.731  -0.005  0.00  0.00    -0.333 N 
ATOM      2  H   UNL     1      -5.043  -6.688  -0.007  0.00  0.00    +0.147 HD
ENDROOT
BRANCH   1   6
ATOM      3  C   UNL     1      -1.982  -3.083  -0.006  0.00  0.00    +0.001 A 
ATOM      4  C   UNL     1      -1.755  -4.459  -0.008  0.00  0.00    +0.012 A 
ATOM      5  C   UNL     1      -2.822  -5.333  -0.007  0.00  0.00    +0.023 A 
ATOM      6  C   UNL     1      -4.123  -4.843  -0.005  0.00  0.00    +0.028 A 
ATOM      7  C   UNL     1      -4.351  -3.473  -0.003  0.00  0.00    +0.023 A 
ATOM      8  C   UNL     1      -3.288  -2.595   0.003  0.00  0.00    +0.012 A 
BRANCH   3  12
ATOM      9  C   UNL     1      -0.018   1.503   0.010  0.00  0.00    +0.073 C 
ATOM     10  C   UNL     1       0.002  -0.004   0.002  0.00  0.00    +0.076 A 
ATOM     11  N   UNL     1      -1.014  -0.828   0.002  0.00  0.00    -0.244 NA
ATOM     12  C   UNL     1      -0.837  -2.141  -0.006  0.00  0.00    +0.078 A 
ATOM     13  C   UNL     1       0.459  -2.583  -0.014  0.00  0.00    +0.075 A 
ATOM     14  S   UNL     1       1.337  -1.028  -0.017  0.00  0.00    -0.080 S 
ENDBRANCH   3  12
ENDBRANCH   1   6
BRANCH   1  15
ATOM     15  C   UNL     1      -6.573  -5.216  -0.003  0.00  0.00    +0.154 C 
ATOM     16  C   UNL     1      -7.008  -4.917  -1.438  0.00  0.00    +0.038 C 
BRANCH  15  17
ATOM     17  C   UNL     1      -7.495  -6.246   0.597  0.00  0.00    +0.240 C 
ATOM     18  O   UNL     1      -7.051  -7.305   0.984  0.00  0.00    -0.273 OA
ATOM     19  N   UNL     1      -8.814  -5.990   0.704  0.00  0.00    -0.239 N 
ATOM     20  C   UNL     1      -9.639  -6.911   1.240  0.00  0.00    +0.306 C 
ATOM     21  O   UNL     1      -9.193  -7.973   1.628  0.00  0.00    -0.252 OA
ATOM     22  N   UNL     1     -10.957  -6.655   1.346  0.00  0.00    -0.294 N 
ATOM     23  H   UNL     1      -9.170  -5.142   0.394  0.00  0.00    +0.159 HD
ATOM     24  H   UNL     1     -11.313  -5.807   1.036  0.00  0.00    +0.151 HD
BRANCH  22  25
ATOM     25  C   UNL     1     -11.854  -7.656   1.929  0.00  0.00    +0.028 C 
ATOM     26  C   UNL     1     -11.419  -7.955   3.365  0.00  0.00    +0.031 C 
ATOM     27  C   UNL     1     -13.286  -7.119   1.932  0.00  0.00    +0.031 C 
ATOM     28  C   UNL     1     -11.793  -8.940   1.100  0.00  0.00    +0.031 C 
ENDBRANCH  22  25
ENDBRANCH  15  17
ENDBRANCH   1  15
TORSDOF 5
