REMARK  Name = ZINC45166520
REMARK  5 active torsions:
REMARK  status: ('A' for Active; 'I' for Inactive)
REMARK    1  A    between atoms: C_3  and  N_19
REMARK    2  A    between atoms: C_4  and  S_8
REMARK    3  A    between atoms: S_8  and  N_11
REMARK    4  A    between atoms: N_11  and  C_12
REMARK    5  A    between atoms: C_12  and  C_13
REMARK                            x       y       z     vdW  Elec       q    Type
REMARK                         _______ _______ _______ _____ _____    ______ ____
ROOT
ATOM      1  S   UNL     1       3.764  -0.766  -1.070  0.00  0.00    +0.062 S 
ATOM      2  O   UNL     1       3.335  -2.022  -1.578  0.00  0.00    -0.153 OA
ATOM      3  O   UNL     1       4.469   0.177  -1.866  0.00  0.00    -0.153 OA
ENDROOT
BRANCH   1   7
ATOM      4  C   UNL     1       0.059   1.346   0.464  0.00  0.00    +0.003 A 
ATOM      5  C   UNL     1       0.103  -0.034   0.443  0.00  0.00    +0.025 A 
ATOM      6  C   UNL     1       1.236  -0.685  -0.026  0.00  0.00    +0.053 A 
ATOM      7  C   UNL     1       2.323   0.054  -0.474  0.00  0.00    +0.144 A 
ATOM      8  C   UNL     1       2.273   1.435  -0.451  0.00  0.00    +0.069 A 
ATOM      9  C   UNL     1       1.142   2.080   0.018  0.00  0.00    +0.022 A 
ATOM     10 CL   UNL     1       3.631   2.362  -1.010  0.00  0.00    -0.081 Cl
BRANCH   6  11
ATOM     11  N   UNL     1       1.284  -2.081  -0.048  0.00  0.00    -0.356 N 
ATOM     12  H   UNL     1       0.463  -2.595   0.016  0.00  0.00    +0.142 HD
ATOM     13  H   UNL     1       2.136  -2.537  -0.126  0.00  0.00    +0.142 HD
ENDBRANCH   6  11
ENDBRANCH   1   7
BRANCH   1  14
ATOM     14  N   UNL     1       4.722  -1.089   0.241  0.00  0.00    -0.185 NA
ATOM     15  H   UNL     1       5.589  -0.663   0.325  0.00  0.00    +0.148 HD
BRANCH  14  16
ATOM     16  C   UNL     1       4.259  -2.017   1.276  0.00  0.00    +0.144 C 
BRANCH  16  17
ATOM     17  C   UNL     1       5.423  -2.421   2.145  0.00  0.00    +0.005 A 
ATOM     18  C   UNL     1       6.245  -3.476   1.935  0.00  0.00    +0.109 A 
ATOM     19  N   UNL     1       7.153  -3.494   2.932  0.00  0.00    -0.284 N 
ATOM     20  H   UNL     1       7.869  -4.140   3.040  0.00  0.00    +0.188 HD
ATOM     21  N   UNL     1       6.881  -2.415   3.783  0.00  0.00    -0.182 NA
ATOM     22  C   UNL     1       5.847  -1.770   3.307  0.00  0.00    +0.139 A 
ENDBRANCH  16  17
ENDBRANCH  14  16
ENDBRANCH   1  14
TORSDOF 5
