REMARK  Name = ZINC40149935
REMARK  9 active torsions:
REMARK  status: ('A' for Active; 'I' for Inactive)
REMARK    1  A    between atoms: C_1  and  C_2
REMARK    2  A    between atoms: C_2  and  O_3
REMARK    3  A    between atoms: O_3  and  C_4
REMARK    4  A    between atoms: C_4  and  C_6
REMARK    5  A    between atoms: C_7  and  C_27
REMARK    6  A    between atoms: C_8  and  C_26
REMARK    7  A    between atoms: C_10  and  N_11
REMARK    8  A    between atoms: C_18  and  C_21
REMARK    9  A    between atoms: C_21  and  N_22
REMARK                            x       y       z     vdW  Elec       q    Type
REMARK                         _______ _______ _______ _____ _____    ______ ____
ROOT
ATOM      1  N   UNL     1       3.750  -2.431   1.403  0.00  0.00    -0.263 N 
ATOM      2  C   UNL     1       5.052  -2.743   1.559  0.00  0.00    +0.307 C 
ATOM      3  O   UNL     1       5.463  -3.115   2.642  0.00  0.00    -0.252 OA
ATOM      4  N   UNL     1       5.899  -2.643   0.516  0.00  0.00    -0.285 N 
ATOM      5  C   UNL     1       5.445  -2.086  -0.766  0.00  0.00    +0.109 C 
ATOM      6  C   UNL     1       5.768  -3.085  -1.881  0.00  0.00    +0.019 C 
ATOM      7  C   UNL     1       7.259  -3.427  -1.837  0.00  0.00    +0.008 C 
ATOM      8  C   UNL     1       7.596  -4.077  -0.493  0.00  0.00    +0.024 C 
ATOM      9  C   UNL     1       7.295  -3.083   0.639  0.00  0.00    +0.114 C 
ATOM     10  H   UNL     1       3.437  -2.064   0.562  0.00  0.00    +0.157 HD
ENDROOT
BRANCH   1  15
ATOM     11  C   UNL     1       1.495  -2.375   2.465  0.00  0.00    +0.091 A 
ATOM     12  C   UNL     1       0.796  -2.690   3.691  0.00  0.00    -0.025 A 
ATOM     13  C   UNL     1       1.550  -3.198   4.683  0.00  0.00    -0.008 A 
ATOM     14  S   UNL     1       3.181  -3.251   3.973  0.00  0.00    -0.078 S 
ATOM     15  C   UNL     1       2.859  -2.635   2.445  0.00  0.00    +0.087 A 
ATOM     16  C   UNL     1       1.118  -3.620   6.063  0.00  0.00    +0.052 C 
ATOM     17  C   UNL     1      -0.685  -2.463   3.848  0.00  0.00    +0.045 C 
BRANCH  11  18
ATOM     18  C   UNL     1       0.800  -1.817   1.304  0.00  0.00    +0.342 C 
ATOM     19  O   UNL     1       0.321  -2.559   0.467  0.00  0.00    -0.245 OA
BRANCH  18  20
ATOM     20  O   UNL     1       0.692  -0.481   1.161  0.00  0.00    -0.461 OA
BRANCH  20  22
ATOM     21  C   UNL     1      -0.021   1.524   0.015  0.00  0.00    +0.048 C 
ATOM     22  C   UNL     1       0.001  -0.006   0.004  0.00  0.00    +0.229 C 
ENDBRANCH  20  22
ENDBRANCH  18  20
ENDBRANCH  11  18
ENDBRANCH   1  15
BRANCH   8  23
ATOM     23  C   UNL     1       9.080  -4.449  -0.463  0.00  0.00    +0.110 C 
BRANCH  23  24
ATOM     24  N   UNL     1       9.377  -5.176   0.773  0.00  0.00    -0.299 N 
ATOM     25  C   UNL     1      10.630  -5.607   1.018  0.00  0.00    +0.297 C 
ATOM     26  O   UNL     1      11.515  -5.391   0.212  0.00  0.00    -0.253 OA
ATOM     27  N   UNL     1      10.903  -6.277   2.155  0.00  0.00    -0.313 N 
ATOM     28  H   UNL     1       8.671  -5.348   1.416  0.00  0.00    +0.150 HD
ATOM     29  H   UNL     1      10.197  -6.449   2.798  0.00  0.00    +0.146 HD
ATOM     30  H   UNL     1      11.805  -6.587   2.331  0.00  0.00    +0.146 HD
ENDBRANCH  23  24
ENDBRANCH   8  23
TORSDOF 6
