REMARK  Name = ZINC40901798
REMARK  6 active torsions:
REMARK  status: ('A' for Active; 'I' for Inactive)
REMARK    1  A    between atoms: N_9  and  C_12
REMARK    2  A    between atoms: C_12  and  C_13
REMARK    3  A    between atoms: N_15  and  C_16
REMARK    4  A    between atoms: C_16  and  N_18
REMARK    5  A    between atoms: N_18  and  C_19
REMARK    6  A    between atoms: C_20  and  C_28
REMARK                            x       y       z     vdW  Elec       q    Type
REMARK                         _______ _______ _______ _____ _____    ______ ____
ROOT
ATOM      1  C   UNL     1       3.955  -3.850  -1.479  0.00  0.00    +0.236 C 
ATOM      2  O   UNL     1       3.537  -3.172  -2.393  0.00  0.00    -0.274 OA
ATOM      3  N   UNL     1       4.640  -4.982  -1.738  0.00  0.00    -0.266 N 
ATOM      4  H   UNL     1       4.974  -5.524  -1.007  0.00  0.00    +0.157 HD
ENDROOT
BRANCH   3   5
ATOM      5  C   UNL     1       4.860  -5.359  -3.013  0.00  0.00    +0.141 C 
ATOM      6  S   UNL     1       4.270  -4.401  -4.303  0.00  0.00    -0.018 S 
BRANCH   5   7
ATOM      7  N   UNL     1       5.544  -6.491  -3.272  0.00  0.00    -0.290 N 
ATOM      8  H   UNL     1       5.879  -7.034  -2.541  0.00  0.00    +0.154 HD
BRANCH   7   9
ATOM      9  C   UNL     1       5.771  -6.879  -4.584  0.00  0.00    +0.089 A 
ATOM     10  C   UNL     1       6.443  -8.003  -5.036  0.00  0.00    +0.084 A 
ATOM     11  C   UNL     1       6.544  -8.184  -6.473  0.00  0.00    -0.018 A 
ATOM     12  C   UNL     1       5.955  -7.207  -7.196  0.00  0.00    -0.004 A 
ATOM     13  S   UNL     1       5.287  -6.099  -5.990  0.00  0.00    -0.077 S 
ATOM     14  C   UNL     1       5.889  -7.108  -8.688  0.00  0.00    +0.043 C 
ATOM     15  C   UNL     1       6.916  -8.083  -9.283  0.00  0.00    +0.005 C 
ATOM     16  C   UNL     1       6.760  -9.444  -8.598  0.00  0.00    +0.005 C 
ATOM     17  C   UNL     1       7.242  -9.356  -7.148  0.00  0.00    +0.037 C 
BRANCH  10  18
ATOM     18  C   UNL     1       7.015  -8.947  -4.123  0.00  0.00    +0.102 C 
ATOM     19  N   UNL     1       7.468  -9.696  -3.399  0.00  0.00    -0.191 NA
ENDBRANCH  10  18
ENDBRANCH   7   9
ENDBRANCH   5   7
ENDBRANCH   3   5
BRANCH   1  20
ATOM     20  C   UNL     1       3.709  -3.428  -0.053  0.00  0.00    +0.213 C 
BRANCH  20  29
ATOM     21  C   UNL     1      -0.017   1.382   0.010  0.00  0.00    +0.001 A 
ATOM     22  C   UNL     1       1.165   2.099   0.002  0.00  0.00    +0.001 A 
ATOM     23  C   UNL     1       2.385   1.442  -0.013  0.00  0.00    +0.014 A 
ATOM     24  C   UNL     1       2.420   0.056  -0.021  0.00  0.00    +0.049 A 
ATOM     25  C   UNL     1       1.215  -0.675  -0.013  0.00  0.00    +0.049 A 
ATOM     26  C   UNL     1       0.002  -0.004   0.002  0.00  0.00    +0.014 A 
ATOM     27  C   UNL     1       1.606  -2.100  -0.025  0.00  0.00    +0.254 C 
ATOM     28  O   UNL     1       0.843  -3.045  -0.023  0.00  0.00    -0.270 OA
ATOM     29  N   UNL     1       2.949  -2.175  -0.039  0.00  0.00    -0.225 N 
ATOM     30  C   UNL     1       3.503  -0.949  -0.038  0.00  0.00    +0.254 C 
ATOM     31  O   UNL     1       4.693  -0.709  -0.049  0.00  0.00    -0.270 OA
ENDBRANCH  20  29
ENDBRANCH   1  20
TORSDOF 6
