REMARK  Name = ZINC35876687
REMARK  4 active torsions:
REMARK  status: ('A' for Active; 'I' for Inactive)
REMARK    1  A    between atoms: C_4  and  O_31
REMARK    2  A    between atoms: C_5  and  C_7
REMARK    3  A    between atoms: CA_13  and  C_16
REMARK    4  A    between atoms: N_21  and  C_24
REMARK                            x       y       z     vdW  Elec       q    Type
REMARK                         _______ _______ _______ _____ _____    ______ ____
ROOT
ATOM      1  C   UNL     1       1.172  -2.215   0.013  0.00  0.00    -0.024 C 
ATOM      2  C   UNL     1       1.289  -2.704  -1.445  0.00  0.00    +0.077 C 
ATOM      3  C   UNL     1       0.429  -3.996  -1.503  0.00  0.00    +0.083 C 
ATOM      4  CA  UNL     1      -0.113  -4.174  -0.069  0.00  0.00    +0.057 C 
ATOM      5  N   UNL     1      -0.102  -2.797   0.508  0.00  0.00    +0.394 N 
ATOM      6  C   UNL     1      -0.701  -3.622  -2.435  0.00  0.00    +0.229 C 
ATOM      7  O   UNL     1      -1.612  -4.352  -2.759  0.00  0.00    -0.275 OA
ATOM      8  N   UNL     1      -0.539  -2.359  -2.845  0.00  0.00    -0.210 N 
ATOM      9  C   UNL     1       0.560  -1.740  -2.353  0.00  0.00    +0.229 C 
ATOM     10  O   UNL     1       0.907  -0.603  -2.592  0.00  0.00    -0.275 OA
ATOM     11  H1  UNL     1      -0.103  -2.840   1.516  0.00  0.00    -0.084 HD
ATOM     12  H2  UNL     1      -0.888  -2.260   0.175  0.00  0.00    -0.084 HD
ENDROOT
BRANCH   8  13
ATOM     13  C   UNL     1      -1.431  -1.726  -3.721  0.00  0.00    +0.045 A 
ATOM     14  C   UNL     1      -2.725  -1.435  -3.307  0.00  0.00    +0.024 A 
ATOM     15  C   UNL     1      -3.602  -0.811  -4.172  0.00  0.00    +0.003 A 
ATOM     16  C   UNL     1      -3.194  -0.475  -5.450  0.00  0.00    +0.015 A 
ATOM     17  C   UNL     1      -1.906  -0.763  -5.866  0.00  0.00    +0.020 A 
ATOM     18  C   UNL     1      -1.022  -1.383  -5.003  0.00  0.00    +0.039 A 
ATOM     19 BR   UNL     1      -1.353  -0.303  -7.615  0.00  0.00    -0.050 Br
ENDBRANCH   8  13
BRANCH   1  24
ATOM     20  C   UNL     1      -0.159   1.317   0.057  0.00  0.00    +0.000 A 
ATOM     21  C   UNL     1       1.007   2.055   0.144  0.00  0.00    +0.004 A 
ATOM     22  C   UNL     1       2.229   1.413   0.189  0.00  0.00    +0.045 A 
ATOM     23  C   UNL     1       2.286   0.027   0.147  0.00  0.00    +0.118 A 
ATOM     24  C   UNL     1       1.114  -0.710   0.060  0.00  0.00    -0.019 A 
ATOM     25  C   UNL     1      -0.106  -0.063   0.015  0.00  0.00    +0.005 A 
BRANCH  23  26
ATOM     26  O   UNL     1       3.487  -0.607   0.190  0.00  0.00    -0.507 OA
ATOM     27  H   UNL     1       3.788  -0.819   1.085  0.00  0.00    +0.292 HD
ENDBRANCH  23  26
ENDBRANCH   1  24
BRANCH   4  28
ATOM     28  C   UNL     1      -1.523  -4.705  -0.104  0.00  0.00    +0.343 C 
ATOM     29  O   UNL     1      -1.722  -5.907  -0.100  0.00  0.00    -0.248 OA
ATOM     30  OXT UNL     1      -2.465  -3.931  -0.135  0.00  0.00    -0.248 OA
ENDBRANCH   4  28
TORSDOF 4
