REMARK  Name = ZINC01867950
REMARK  7 active torsions:
REMARK  status: ('A' for Active; 'I' for Inactive)
REMARK    1  A    between atoms: C_4  and  C_7
REMARK    2  A    between atoms: N_9  and  C_10
REMARK    3  A    between atoms: C_10  and  C_12
REMARK    4  A    between atoms: C_10  and  C_24
REMARK    5  A    between atoms: N_26  and  N_27
REMARK    6  A    between atoms: C_28  and  C_29
REMARK    7  A    between atoms: C_34  and  O_35
REMARK                            x       y       z     vdW  Elec       q    Type
REMARK                         _______ _______ _______ _____ _____    ______ ____
ROOT
ATOM      1  C   UNL     1      -6.068  -0.974   0.057  0.00  0.00    +0.212 C 
ENDROOT
BRANCH   1   2
ATOM      2  C   UNL     1      -6.121  -1.848   1.284  0.00  0.00    +0.099 A 
ATOM      3  C   UNL     1      -5.492  -3.169   1.268  0.00  0.00    +0.013 A 
ATOM      4  C   UNL     1      -4.832  -3.658   0.139  0.00  0.00    +0.010 A 
ATOM      5  C   UNL     1      -4.260  -4.898   0.174  0.00  0.00    +0.001 A 
ATOM      6  C   UNL     1      -4.324  -5.682   1.319  0.00  0.00    +0.001 A 
ATOM      7  C   UNL     1      -4.968  -5.226   2.448  0.00  0.00    +0.014 A 
ATOM      8  C   UNL     1      -5.560  -3.963   2.435  0.00  0.00    +0.050 A 
ATOM      9  C   UNL     1      -6.260  -3.421   3.606  0.00  0.00    +0.272 A 
ATOM     10  O   UNL     1      -6.344  -4.068   4.634  0.00  0.00    -0.266 OA
ATOM     11  N   UNL     1      -6.809  -2.191   3.521  0.00  0.00    -0.242 N 
ATOM     12  H   UNL     1      -7.290  -1.816   4.313  0.00  0.00    +0.192 HD
ATOM     13  N   UNL     1      -6.722  -1.427   2.356  0.00  0.00    -0.173 NA
ENDBRANCH   1   2
BRANCH   1  16
ATOM     14  C   UNL     1      -8.396  -0.425  -0.410  0.00  0.00    +0.245 C 
ATOM     15  O   UNL     1      -8.539  -1.545  -0.860  0.00  0.00    -0.270 OA
ATOM     16  N   UNL     1      -7.197  -0.041   0.073  0.00  0.00    -0.295 N 
ATOM     17  H   UNL     1      -7.083   0.853   0.432  0.00  0.00    +0.150 HD
BRANCH  14  21
ATOM     18  C   UNL     1     -11.670   2.281  -0.363  0.00  0.00    +0.000 A 
ATOM     19  C   UNL     1     -11.837   1.006  -0.875  0.00  0.00    +0.001 A 
ATOM     20  C   UNL     1     -10.777   0.123  -0.894  0.00  0.00    +0.013 A 
ATOM     21  C   UNL     1      -9.535   0.517  -0.394  0.00  0.00    +0.037 A 
ATOM     22  C   UNL     1      -9.375   1.802   0.127  0.00  0.00    +0.013 A 
ATOM     23  C   UNL     1     -10.441   2.678   0.134  0.00  0.00    +0.001 A 
ENDBRANCH  14  21
ENDBRANCH   1  16
BRANCH   1  24
ATOM     24  C   UNL     1      -4.776  -0.199   0.048  0.00  0.00    +0.259 C 
ATOM     25  O   UNL     1      -4.796   1.014   0.055  0.00  0.00    -0.272 OA
ATOM     26  N   UNL     1      -3.598  -0.853   0.033  0.00  0.00    -0.205 N 
ATOM     27  H   UNL     1      -3.582  -1.823   0.028  0.00  0.00    +0.177 HD
BRANCH  26  28
ATOM     28  N   UNL     1      -2.396  -0.132   0.025  0.00  0.00    -0.188 NA
ATOM     29  C   UNL     1      -1.262  -0.762   0.011  0.00  0.00    +0.142 C 
BRANCH  29  30
ATOM     30  C   UNL     1       0.002  -0.004   0.002  0.00  0.00    +0.037 A 
ATOM     31  C   UNL     1       1.225  -0.678  -0.013  0.00  0.00    +0.028 A 
ATOM     32  C   UNL     1       2.405   0.038  -0.021  0.00  0.00    +0.019 A 
ATOM     33  C   UNL     1       2.381   1.423  -0.013  0.00  0.00    +0.019 A 
ATOM     34  C   UNL     1       1.176   2.101   0.002  0.00  0.00    +0.047 A 
ATOM     35  C   UNL     1      -0.017   1.397   0.010  0.00  0.00    +0.126 A 
ATOM     36 BR   UNL     1       4.061  -0.875  -0.041  0.00  0.00    -0.050 Br
BRANCH  35  37
ATOM     37  O   UNL     1      -1.201   2.063   0.019  0.00  0.00    -0.506 OA
ATOM     38  H   UNL     1      -1.539   2.251   0.905  0.00  0.00    +0.292 HD
ENDBRANCH  35  37
ENDBRANCH  29  30
ENDBRANCH  26  28
ENDBRANCH   1  24
TORSDOF 7
