REMARK  Name = ZINC04289122
REMARK  4 active torsions:
REMARK  status: ('A' for Active; 'I' for Inactive)
REMARK    1  A    between atoms: C_2  and  N_9
REMARK    2  A    between atoms: C_10  and  O_12
REMARK    3  A    between atoms: O_12  and  N_13
REMARK    4  A    between atoms: C_14  and  C_15
REMARK                            x       y       z     vdW  Elec       q    Type
REMARK                         _______ _______ _______ _____ _____    ______ ____
ROOT
ATOM      1  N   UNL     1       1.216   3.466   0.009  0.00  0.00    -0.249 N 
ATOM      2  C   UNL     1       2.390   4.120   0.103  0.00  0.00    +0.430 C 
ATOM      3  O   UNL     1       3.434   3.498   0.090  0.00  0.00    -0.224 OA
ATOM      4  H   UNL     1       0.387   3.966  -0.059  0.00  0.00    +0.158 HD
ENDROOT
BRANCH   1   6
ATOM      5  C   UNL     1       2.132   1.340   0.731  0.00  0.00    +0.063 A 
ATOM      6  C   UNL     1       1.191   2.071   0.008  0.00  0.00    +0.042 A 
ATOM      7  C   UNL     1       0.226   1.373  -0.715  0.00  0.00    +0.063 A 
ATOM      8  C   UNL     1       0.235  -0.007  -0.690  0.00  0.00    +0.133 A 
ATOM      9  N   UNL     1       1.143  -0.665   0.008  0.00  0.00    -0.224 NA
ATOM     10  C   UNL     1       2.074  -0.040   0.706  0.00  0.00    +0.133 A 
ATOM     11 CL   UNL     1       3.240  -0.963   1.602  0.00  0.00    -0.062 Cl
ATOM     12 CL   UNL     1      -0.962  -0.889  -1.586  0.00  0.00    -0.062 Cl
ENDBRANCH   1   6
BRANCH   2  13
ATOM     13  O   UNL     1       2.408   5.461   0.211  0.00  0.00    -0.297 OA
BRANCH  13  14
ATOM     14  N   UNL     1       3.708   6.015   0.301  0.00  0.00    -0.061 NA
ATOM     15  C   UNL     1       3.859   7.294   0.409  0.00  0.00    +0.147 C 
ATOM     16  N   UNL     1       2.757   8.117   0.436  0.00  0.00    -0.343 N 
ATOM     17  H   UNL     1       1.866   7.738   0.374  0.00  0.00    +0.144 HD
ATOM     18  H   UNL     1       2.870   9.077   0.517  0.00  0.00    +0.144 HD
BRANCH  15  19
ATOM     19  C   UNL     1       5.242   7.883   0.505  0.00  0.00    +0.183 C 
ATOM     20 CL   UNL     1       6.465   6.560   0.443  0.00  0.00    -0.117 Cl
ENDBRANCH  15  19
ENDBRANCH  13  14
ENDBRANCH   2  13
TORSDOF 4
