REMARK  Name = ZINC36570936
REMARK  18 active torsions:
REMARK  status: ('A' for Active; 'I' for Inactive)
REMARK    1  A    between atoms: C_1  and  C_2
REMARK    2  A    between atoms: C_2  and  C_3
REMARK    3  A    between atoms: C_3  and  N_4
REMARK    4  A    between atoms: N_4  and  C_5
REMARK    5  A    between atoms: C_5  and  C_7
REMARK    6  A    between atoms: C_5  and  C_14
REMARK    7  A    between atoms: C_10  and  O_13
REMARK    8  A    between atoms: N_16  and  C_17
REMARK    9  A    between atoms: C_17  and  C_18
REMARK   10  A    between atoms: C_17  and  C_19
REMARK   11  A    between atoms: C_17  and  C_20
REMARK   12  A    between atoms: C_20  and  C_21
REMARK   13  A    between atoms: C_21  and  C_22
REMARK   14  A    between atoms: C_21  and  C_23
REMARK   15  A    between atoms: C_21  and  C_24
REMARK   16  A    between atoms: C_25  and  C_27
REMARK   17  A    between atoms: C_28  and  O_34
REMARK   18  A    between atoms: C_32  and  O_33
REMARK                            x       y       z     vdW  Elec       q    Type
REMARK                         _______ _______ _______ _____ _____    ______ ____
ROOT
ATOM      1  C   UNL     1      -2.361  -2.817   1.704  0.00  0.00    +0.192 C 
ENDROOT
BRANCH   1   2
ATOM      2  C   UNL     1      -0.993  -3.414   1.910  0.00  0.00    -0.018 A 
ATOM      3  C   UNL     1       0.114  -2.590   1.995  0.00  0.00    +0.009 A 
ATOM      4  C   UNL     1       1.369  -3.135   2.183  0.00  0.00    +0.046 A 
ATOM      5  C   UNL     1       1.519  -4.511   2.287  0.00  0.00    +0.117 A 
ATOM      6  C   UNL     1       0.407  -5.335   2.202  0.00  0.00    +0.046 A 
ATOM      7  C   UNL     1      -0.847  -4.785   2.019  0.00  0.00    +0.009 A 
BRANCH   5   8
ATOM      8  O   UNL     1       2.753  -5.049   2.471  0.00  0.00    -0.507 OA
ATOM      9  H   UNL     1       3.003  -5.151   3.400  0.00  0.00    +0.292 HD
ENDBRANCH   5   8
ENDBRANCH   1   2
BRANCH   1  10
ATOM     10  C   UNL     1      -2.947  -2.432   3.038  0.00  0.00    +0.239 C 
ATOM     11  O   UNL     1      -3.538  -1.380   3.160  0.00  0.00    -0.273 OA
ATOM     12  N   UNL     1      -2.813  -3.257   4.096  0.00  0.00    -0.308 N 
ATOM     13  H   UNL     1      -2.341  -4.098   3.999  0.00  0.00    +0.149 HD
BRANCH  12  14
ATOM     14  C   UNL     1      -3.383  -2.882   5.393  0.00  0.00    +0.030 C 
ATOM     15  C   UNL     1      -2.643  -1.661   5.941  0.00  0.00    +0.031 C 
ATOM     16  C   UNL     1      -4.865  -2.546   5.221  0.00  0.00    +0.031 C 
BRANCH  14  17
ATOM     17  C   UNL     1      -3.235  -4.050   6.371  0.00  0.00    +0.031 C 
BRANCH  17  18
ATOM     18  C   UNL     1      -3.340  -5.371   5.607  0.00  0.00    -0.036 C 
ATOM     19  C   UNL     1      -1.976  -5.728   5.014  0.00  0.00    +0.010 C 
ATOM     20  C   UNL     1      -3.785  -6.479   6.564  0.00  0.00    +0.010 C 
ATOM     21  C   UNL     1      -4.365  -5.229   4.481  0.00  0.00    +0.010 C 
ENDBRANCH  17  18
ENDBRANCH  14  17
ENDBRANCH  12  14
ENDBRANCH   1  10
BRANCH   1  22
ATOM     22  N   UNL     1      -2.252  -1.627   0.857  0.00  0.00    -0.282 N 
ATOM     23  C   UNL     1      -1.878  -1.750  -0.432  0.00  0.00    +0.255 C 
ATOM     24  O   UNL     1      -1.630  -2.848  -0.892  0.00  0.00    -0.270 OA
BRANCH  23  25
ATOM     25  C   UNL     1      -1.768  -0.553  -1.284  0.00  0.00    +0.119 A 
ATOM     26  C   UNL     1      -0.554   0.142  -1.371  0.00  0.00    +0.133 A 
ATOM     27  C   UNL     1      -0.462   1.266  -2.176  0.00  0.00    +0.046 A 
ATOM     28  C   UNL     1      -1.562   1.702  -2.891  0.00  0.00    +0.007 A 
ATOM     29  C   UNL     1      -2.764   1.024  -2.812  0.00  0.00    +0.046 A 
ATOM     30  C   UNL     1      -2.876  -0.105  -2.018  0.00  0.00    +0.133 A 
BRANCH  30  31
ATOM     31  O   UNL     1      -4.056  -0.772  -1.946  0.00  0.00    -0.506 OA
ATOM     32  H   UNL     1      -4.643  -0.459  -1.245  0.00  0.00    +0.292 HD
ENDBRANCH  30  31
BRANCH  26  33
ATOM     33  O   UNL     1       0.527  -0.283  -0.671  0.00  0.00    -0.506 OA
ATOM     34  H   UNL     1       1.082  -0.915  -1.149  0.00  0.00    +0.292 HD
ENDBRANCH  26  33
ENDBRANCH  23  25
BRANCH  22  35
ATOM     35  C   UNL     1      -2.550  -0.304   1.411  0.00  0.00    +0.109 C 
BRANCH  35  37
ATOM     36  C   UNL     1      -1.802   1.445   3.030  0.00  0.00    +0.005 C 
ATOM     37  C   UNL     1      -1.516   0.045   2.482  0.00  0.00    +0.016 C 
ENDBRANCH  35  37
ENDBRANCH  22  35
ENDBRANCH   1  22
TORSDOF 12
