REMARK  Name = ZINC63073113
REMARK  8 active torsions:
REMARK  status: ('A' for Active; 'I' for Inactive)
REMARK    1  A    between atoms: C_4  and  C_7
REMARK    2  A    between atoms: C_7  and  N_8
REMARK    3  A    between atoms: N_11  and  C_12
REMARK    4  A    between atoms: C_12  and  C_13
REMARK    5  A    between atoms: C_13  and  C_14
REMARK    6  A    between atoms: N_16  and  C_17
REMARK    7  A    between atoms: C_17  and  C_18
REMARK    8  A    between atoms: C_18  and  C_19
REMARK                            x       y       z     vdW  Elec       q    Type
REMARK                         _______ _______ _______ _____ _____    ______ ____
ROOT
ATOM      1  C   UNL     1       8.495  -3.379   4.852  0.00  0.00    +0.215 C 
ATOM      2  O   UNL     1       9.173  -3.759   3.921  0.00  0.00    -0.276 OA
ATOM      3  N   UNL     1       8.900  -3.604   6.117  0.00  0.00    -0.315 N 
ATOM      4  H   UNL     1       8.358  -3.300   6.862  0.00  0.00    +0.149 HD
ENDROOT
BRANCH   1   5
ATOM      5  C   UNL     1       7.199  -2.654   4.594  0.00  0.00    +0.114 C 
BRANCH   5   6
ATOM      6  C   UNL     1       6.976  -2.531   3.085  0.00  0.00    +0.115 C 
BRANCH   6  10
ATOM      7  N   UNL     1       4.152  -0.952   1.338  0.00  0.00    -0.295 N 
ATOM      8  C   UNL     1       5.311  -1.601   1.569  0.00  0.00    +0.300 C 
ATOM      9  O   UNL     1       5.991  -1.982   0.636  0.00  0.00    -0.253 OA
ATOM     10  N   UNL     1       5.716  -1.826   2.834  0.00  0.00    -0.299 N 
ATOM     11  H   UNL     1       3.610  -0.648   2.082  0.00  0.00    +0.151 HD
ATOM     12  H   UNL     1       5.174  -1.522   3.579  0.00  0.00    +0.150 HD
BRANCH   7  13
ATOM     13  C   UNL     1       3.711  -0.707  -0.038  0.00  0.00    +0.141 C 
BRANCH  13  17
ATOM     14  C   UNL     1      -0.017   1.378   0.010  0.00  0.00    +0.000 A 
ATOM     15  C   UNL     1       1.171   2.086   0.002  0.00  0.00    +0.000 A 
ATOM     16  C   UNL     1       2.377   1.411  -0.013  0.00  0.00    +0.005 A 
ATOM     17  C   UNL     1       2.396   0.029  -0.020  0.00  0.00    -0.030 A 
ATOM     18  C   UNL     1       1.208  -0.679  -0.012  0.00  0.00    +0.005 A 
ATOM     19  C   UNL     1       0.002  -0.004   0.002  0.00  0.00    +0.000 A 
ENDBRANCH  13  17
ENDBRANCH   7  13
ENDBRANCH   6  10
ENDBRANCH   5   6
ENDBRANCH   1   5
BRANCH   3  20
ATOM     20  C   UNL     1      10.160  -4.309   6.368  0.00  0.00    +0.108 C 
BRANCH  20  21
ATOM     21  C   UNL     1      10.384  -4.433   7.877  0.00  0.00    +0.052 C 
BRANCH  21  22
ATOM     22  C   UNL     1      11.680  -5.157   8.135  0.00  0.00    -0.040 C 
ATOM     23  C   UNL     1      12.889  -4.601   8.372  0.00  0.00    -0.001 A 
ATOM     24  C   UNL     1      13.344  -3.207   8.455  0.00  0.00    +0.010 A 
ATOM     25  C   UNL     1      14.648  -2.957   8.711  0.00  0.00    +0.001 A 
ATOM     26  C   UNL     1      15.574  -3.992   8.898  0.00  0.00    +0.002 A 
ATOM     27  C   UNL     1      15.233  -5.296   8.836  0.00  0.00    +0.026 A 
ATOM     28  C   UNL     1      13.887  -5.675   8.573  0.00  0.00    +0.043 A 
ATOM     29  N   UNL     1      13.317  -6.851   8.465  0.00  0.00    -0.380 N 
ATOM     30  C   UNL     1      11.889  -6.654   8.188  0.00  0.00    +0.144 C 
ATOM     31  H   UNL     1      13.763  -7.707   8.556  0.00  0.00    +0.160 HD
ENDBRANCH  21  22
ENDBRANCH  20  21
ENDBRANCH   3  20
TORSDOF 8
