REMARK  Name = ZINC36788199
REMARK  10 active torsions:
REMARK  status: ('A' for Active; 'I' for Inactive)
REMARK    1  A    between atoms: C_1  and  C_2
REMARK    2  A    between atoms: C_2  and  C_4
REMARK    3  A    between atoms: C_2  and  N_7
REMARK    4  A    between atoms: C_4  and  C_5
REMARK    5  A    between atoms: C_4  and  C_6
REMARK    6  A    between atoms: N_7  and  C_8
REMARK    7  A    between atoms: N_7  and  S_9
REMARK    8  A    between atoms: S_9  and  C_12
REMARK    9  A    between atoms: C_15  and  N_21
REMARK   10  A    between atoms: C_16  and  N_18
REMARK                            x       y       z     vdW  Elec       q    Type
REMARK                         _______ _______ _______ _____ _____    ______ ____
ROOT
ATOM      1  C   UNL     1       0.070  -3.248   2.010  0.00  0.00    +0.108 A 
ATOM      2  C   UNL     1      -0.660  -3.644   0.904  0.00  0.00    +0.030 A 
ATOM      3  C   UNL     1      -0.356  -4.829   0.263  0.00  0.00    +0.027 A 
ATOM      4  C   UNL     1       0.684  -5.623   0.729  0.00  0.00    +0.055 A 
ATOM      5  C   UNL     1       1.415  -5.222   1.840  0.00  0.00    +0.149 A 
ATOM      6  C   UNL     1       1.109  -4.033   2.474  0.00  0.00    +0.063 A 
ENDROOT
BRANCH   1   7
ATOM      7  S   UNL     1      -0.320  -1.735   2.825  0.00  0.00    +0.061 S 
ATOM      8  O   UNL     1       0.161  -1.856   4.157  0.00  0.00    -0.153 OA
ATOM      9  O   UNL     1      -1.681  -1.454   2.529  0.00  0.00    -0.153 OA
BRANCH   7  10
ATOM     10  N   UNL     1       0.577  -0.545   2.104  0.00  0.00    -0.177 NA
ATOM     11  C   UNL     1       1.912  -0.222   2.614  0.00  0.00    +0.132 C 
BRANCH  10  13
ATOM     12  C   UNL     1      -0.048   1.677   1.293  0.00  0.00    +0.026 C 
ATOM     13  C   UNL     1       0.035   0.187   0.956  0.00  0.00    +0.079 C 
BRANCH  13  14
ATOM     14  C   UNL     1       0.950  -0.013  -0.254  0.00  0.00    +0.001 C 
ATOM     15  C   UNL     1       1.033  -1.503  -0.591  0.00  0.00    +0.009 C 
ATOM     16  C   UNL     1       0.385   0.751  -1.453  0.00  0.00    +0.009 C 
ENDBRANCH  13  14
ENDBRANCH  10  13
ENDBRANCH   7  10
ENDBRANCH   1   7
BRANCH   5  17
ATOM     17  N   UNL     1       2.524  -6.065   2.341  0.00  0.00    +0.058 N 
ATOM     18  O   UNL     1       2.421  -7.269   2.329  0.00  0.00    -0.126 OA
ATOM     19  O   UNL     1       3.532  -5.549   2.763  0.00  0.00    -0.126 OA
ENDBRANCH   5  17
BRANCH   4  20
ATOM     20  N   UNL     1       0.994  -6.822   0.083  0.00  0.00    -0.356 N 
ATOM     21  H   UNL     1       0.409  -7.163  -0.612  0.00  0.00    +0.142 HD
ATOM     22  H   UNL     1       1.793  -7.313   0.330  0.00  0.00    +0.142 HD
ENDBRANCH   4  20
TORSDOF 6
