REMARK  Name = ZINC64978335
REMARK  7 active torsions:
REMARK  status: ('A' for Active; 'I' for Inactive)
REMARK    1  A    between atoms: C_1  and  C_2
REMARK    2  A    between atoms: C_6  and  C_8
REMARK    3  A    between atoms: C_17  and  C_19
REMARK    4  A    between atoms: C_19  and  N_20
REMARK    5  A    between atoms: C_21  and  C_23
REMARK    6  A    between atoms: C_29  and  O_33
REMARK    7  A    between atoms: O_33  and  C_34
REMARK                            x       y       z     vdW  Elec       q    Type
REMARK                         _______ _______ _______ _____ _____    ______ ____
ROOT
ATOM      1  C   UNL     1       0.052  -2.845   2.457  0.00  0.00    +0.251 C 
ATOM      2  O   UNL     1       0.149  -2.250   3.513  0.00  0.00    -0.270 OA
ATOM      3  N   UNL     1      -0.032  -4.191   2.447  0.00  0.00    -0.267 N 
ATOM      4  C   UNL     1      -0.031  -5.023   1.242  0.00  0.00    +0.118 C 
ATOM      5  C   UNL     1      -0.144  -6.470   1.750  0.00  0.00    +0.056 C 
ATOM      6  C   UNL     1      -0.202  -6.340   3.256  0.00  0.00    -0.024 A 
ATOM      7  C   UNL     1      -0.126  -4.996   3.586  0.00  0.00    +0.040 A 
ATOM      8  C   UNL     1      -0.155  -4.625   4.932  0.00  0.00    +0.024 A 
ATOM      9  C   UNL     1      -0.254  -5.587   5.915  0.00  0.00    +0.007 A 
ATOM     10  C   UNL     1      -0.324  -6.925   5.576  0.00  0.00    -0.030 A 
ATOM     11  C   UNL     1      -0.306  -7.299   4.244  0.00  0.00    +0.010 A 
ENDROOT
BRANCH   1  17
ATOM     12  C   UNL     1      -0.169   1.499   0.013  0.00  0.00    +0.044 C 
ATOM     13  C   UNL     1      -0.080  -0.005   0.004  0.00  0.00    -0.050 A 
ATOM     14  C   UNL     1      -0.023  -0.686  -1.200  0.00  0.00    +0.003 A 
ATOM     15  C   UNL     1       0.059  -2.067  -1.217  0.00  0.00    +0.001 A 
ATOM     16  C   UNL     1       0.084  -2.775  -0.033  0.00  0.00    +0.013 A 
ATOM     17  C   UNL     1       0.026  -2.094   1.185  0.00  0.00    +0.037 A 
ATOM     18  C   UNL     1      -0.050  -0.700   1.195  0.00  0.00    +0.016 A 
ENDBRANCH   1  17
BRANCH  10  19
ATOM     19  C   UNL     1      -0.430  -7.973   6.653  0.00  0.00    +0.139 C 
BRANCH  19  20
ATOM     20  N   UNL     1      -1.843  -8.227   6.949  0.00  0.00    -0.309 N 
ATOM     21  C   UNL     1      -2.182  -9.133   7.888  0.00  0.00    +0.240 C 
ATOM     22  O   UNL     1      -1.319  -9.739   8.486  0.00  0.00    -0.273 OA
ATOM     23  H   UNL     1      -2.533  -7.743   6.471  0.00  0.00    +0.149 HD
BRANCH  21  24
ATOM     24  C   UNL     1      -3.635  -9.394   8.192  0.00  0.00    +0.190 C 
ATOM     25  C   UNL     1      -4.289  -8.139   8.724  0.00  0.00    +0.016 C 
ATOM     26  C   UNL     1      -4.724  -8.440   9.968  0.00  0.00    -0.003 A 
ATOM     27  C   UNL     1      -5.429  -7.655  10.989  0.00  0.00    +0.013 A 
ATOM     28  C   UNL     1      -5.739  -8.239  12.167  0.00  0.00    +0.046 A 
ATOM     29  C   UNL     1      -5.402  -9.578  12.439  0.00  0.00    +0.122 A 
ATOM     30  C   UNL     1      -4.750 -10.363  11.543  0.00  0.00    +0.071 A 
ATOM     31  C   UNL     1      -4.380  -9.847  10.276  0.00  0.00    +0.047 A 
ATOM     32  N   UNL     1      -3.756 -10.396   9.257  0.00  0.00    -0.370 N 
ATOM     33  H   UNL     1      -3.430 -11.309   9.216  0.00  0.00    +0.161 HD
BRANCH  29  34
ATOM     34  O   UNL     1      -5.742 -10.105  13.641  0.00  0.00    -0.495 OA
ATOM     35  C   UNL     1      -6.426  -9.247  14.556  0.00  0.00    +0.277 C 
ENDBRANCH  29  34
ENDBRANCH  21  24
ENDBRANCH  19  20
ENDBRANCH  10  19
TORSDOF 5
