REMARK  Name = ZINC16640580
REMARK  4 active torsions:
REMARK  status: ('A' for Active; 'I' for Inactive)
REMARK    1  A    between atoms: C_1  and  C_2
REMARK    2  A    between atoms: C_10  and  C_11
REMARK    3  A    between atoms: N_13  and  C_14
REMARK    4  A    between atoms: C_14  and  C_15
REMARK                            x       y       z     vdW  Elec       q    Type
REMARK                         _______ _______ _______ _____ _____    ______ ____
ROOT
ATOM      1  C   UNL     1       1.138   5.397   1.648  0.00  0.00    +0.280 C 
ATOM      2  O   UNL     1       1.118   6.192   0.727  0.00  0.00    -0.267 OA
ATOM      3  N   UNL     1       1.155   4.073   1.394  0.00  0.00    -0.305 N 
ATOM      4  H   UNL     1       1.171   3.439   2.128  0.00  0.00    +0.149 HD
ENDROOT
BRANCH   1  14
ATOM      5  C   UNL     1       1.103   8.387   2.502  0.00  0.00    +0.048 C 
ATOM      6  C   UNL     1       1.129   7.185   3.410  0.00  0.00    +0.008 A 
ATOM      7  C   UNL     1       1.143   7.188   4.872  0.00  0.00    +0.025 A 
ATOM      8  C   UNL     1       1.138   8.192   5.844  0.00  0.00    +0.032 A 
ATOM      9  C   UNL     1       1.155   7.853   7.168  0.00  0.00    +0.042 A 
ATOM     10  C   UNL     1       1.178   6.518   7.552  0.00  0.00    +0.023 A 
ATOM     11  C   UNL     1       1.183   5.514   6.609  0.00  0.00    +0.048 A 
ATOM     12  C   UNL     1       1.166   5.834   5.256  0.00  0.00    +0.136 A 
ATOM     13  O   UNL     1       1.160   5.092   4.132  0.00  0.00    -0.450 OA
ATOM     14  C   UNL     1       1.144   5.880   3.036  0.00  0.00    +0.193 A 
ATOM     15 CL   UNL     1       1.149   9.098   8.378  0.00  0.00    -0.084 Cl
ENDBRANCH   1  14
BRANCH   3  16
ATOM     16  C   UNL     1       1.149   3.593   0.010  0.00  0.00    +0.140 C 
BRANCH  16  17
ATOM     17  C   UNL     1       1.171   2.086   0.002  0.00  0.00    -0.030 A 
ATOM     18  C   UNL     1      -0.017   1.378   0.010  0.00  0.00    +0.008 A 
ATOM     19  C   UNL     1       0.002  -0.004   0.002  0.00  0.00    +0.038 A 
ATOM     20  C   UNL     1       1.211  -0.679  -0.013  0.00  0.00    +0.123 A 
ATOM     21  C   UNL     1       2.399   0.031  -0.021  0.00  0.00    +0.038 A 
ATOM     22  C   UNL     1       2.378   1.413  -0.013  0.00  0.00    +0.008 A 
ATOM     23  F   UNL     1       1.230  -2.030  -0.020  0.00  0.00    -0.205 F 
ENDBRANCH  16  17
ENDBRANCH   3  16
TORSDOF 3
