REMARK  Name = ZINC12242969
REMARK  8 active torsions:
REMARK  status: ('A' for Active; 'I' for Inactive)
REMARK    1  A    between atoms: N_9  and  C_10
REMARK    2  A    between atoms: C_10  and  C_11
REMARK    3  A    between atoms: C_11  and  C_12
REMARK    4  A    between atoms: C_12  and  N_71
REMARK    5  A    between atoms: C_13  and  N_71
REMARK    6  A    between atoms: N_16  and  C_19
REMARK    7  A    between atoms: C_22  and  C_25
REMARK    8  A    between atoms: N_27  and  C_28
REMARK                            x       y       z     vdW  Elec       q    Type
REMARK                         _______ _______ _______ _____ _____    ______ ____
ROOT
ATOM      1  C   UNL     1      -6.371   1.460   3.045  0.00  0.00    -0.069 C 
ATOM      2  C   UNL     1      -7.118   2.777   3.271  0.00  0.00    +0.003 C 
ATOM      3  C   UNL     1      -8.620   2.498   3.356  0.00  0.00    +0.103 C 
ATOM      4  N   UNL     1      -8.886   1.567   4.460  0.00  0.00    -0.330 N 
ATOM      5  C   UNL     1      -8.217   0.278   4.240  0.00  0.00    +0.103 C 
ATOM      6  C   UNL     1      -6.702   0.491   4.183  0.00  0.00    +0.003 C 
ENDROOT
BRANCH   4   7
ATOM      7  C   UNL     1     -10.252   1.393   4.648  0.00  0.00    +0.030 A 
ATOM      8  C   UNL     1     -10.802   0.114   4.605  0.00  0.00    +0.024 A 
ATOM      9  C   UNL     1     -12.154  -0.061   4.796  0.00  0.00    +0.015 A 
ATOM     10  C   UNL     1     -12.976   1.046   5.022  0.00  0.00    +0.037 A 
ATOM     11  C   UNL     1     -12.422   2.329   5.059  0.00  0.00    +0.015 A 
ATOM     12  C   UNL     1     -11.069   2.498   4.872  0.00  0.00    +0.024 A 
BRANCH  10  13
ATOM     13  C   UNL     1     -14.426   0.862   5.222  0.00  0.00    +0.245 C 
ATOM     14  O   UNL     1     -15.140   1.826   5.418  0.00  0.00    -0.270 OA
ATOM     15  N   UNL     1     -14.959  -0.376   5.186  0.00  0.00    -0.300 N 
ATOM     16  H   UNL     1     -14.389  -1.145   5.029  0.00  0.00    +0.150 HD
BRANCH  15  17
ATOM     17  C   UNL     1     -16.399  -0.559   5.384  0.00  0.00    +0.159 C 
ATOM     18  C   UNL     1     -16.812  -1.950   4.897  0.00  0.00    +0.032 C 
ATOM     19  C   UNL     1     -15.713  -2.962   5.165  0.00  0.00    +0.004 C 
ATOM     20  C   UNL     1     -15.471  -3.227   6.640  0.00  0.00    +0.019 C 
ATOM     21  C   UNL     1     -14.899  -1.986   7.330  0.00  0.00    +0.104 C 
ATOM     22  N   UNL     1     -16.016  -1.128   7.757  0.00  0.00    -0.314 N 
ATOM     23  C   UNL     1     -16.729  -0.444   6.857  0.00  0.00    +0.233 C 
ATOM     24  O   UNL     1     -17.644   0.266   7.218  0.00  0.00    -0.274 OA
ATOM     25  H   UNL     1     -16.235  -1.056   8.700  0.00  0.00    +0.149 HD
ENDBRANCH  15  17
ENDBRANCH  10  13
ENDBRANCH   4   7
BRANCH   1  26
ATOM     26  N   UNL     1      -4.918   1.714   3.030  0.00  0.00    +0.381 N 
ATOM     27  H   UNL     1      -4.698   2.463   3.697  0.00  0.00    -0.086 HD
ATOM     28  H   UNL     1      -4.422   0.857   3.303  0.00  0.00    -0.086 HD
BRANCH  26  29
ATOM     29  C   UNL     1      -4.482   2.119   1.681  0.00  0.00    -0.080 C 
BRANCH  29  30
ATOM     30  C   UNL     1      -2.973   2.374   1.697  0.00  0.00    +0.004 C 
BRANCH  30  31
ATOM     31  C   UNL     1      -2.513   2.795   0.300  0.00  0.00    +0.142 C 
BRANCH  31  40
ATOM     32  C   UNL     1       2.264   0.720  -0.354  0.00  0.00    +0.001 A 
ATOM     33  C   UNL     1       1.039   0.073  -0.466  0.00  0.00    +0.002 A 
ATOM     34  C   UNL     1      -0.130   0.749  -0.262  0.00  0.00    +0.028 A 
ATOM     35  C   UNL     1      -0.101   2.103   0.062  0.00  0.00    +0.069 A 
ATOM     36  C   UNL     1       1.140   2.760   0.175  0.00  0.00    +0.020 A 
ATOM     37  C   UNL     1       2.324   2.046  -0.038  0.00  0.00    +0.011 A 
ATOM     38  C   UNL     1       0.839   4.147   0.518  0.00  0.00    +0.143 A 
ATOM     39  N   UNL     1      -0.456   4.266   0.592  0.00  0.00    -0.179 NA
ATOM     40  N   UNL     1      -1.068   3.040   0.315  0.00  0.00    -0.264 N 
ENDBRANCH  31  40
ENDBRANCH  30  31
ENDBRANCH  29  30
ENDBRANCH  26  29
ENDBRANCH   1  26
TORSDOF 8
