REMARK  Name = ZINC37139886
REMARK  4 active torsions:
REMARK  status: ('A' for Active; 'I' for Inactive)
REMARK    1  A    between atoms: C_1  and  C_2
REMARK    2  A    between atoms: C_7  and  N_12
REMARK    3  A    between atoms: N_12  and  C_13
REMARK    4  A    between atoms: C_21  and  O_23
REMARK                            x       y       z     vdW  Elec       q    Type
REMARK                         _______ _______ _______ _____ _____    ______ ____
ROOT
ATOM      1  N   UNL     1       0.072  -5.722  -1.306  0.00  0.00    -0.334 N 
ATOM      2  H   UNL     1       0.068  -5.749  -2.276  0.00  0.00    +0.147 HD
ENDROOT
BRANCH   1   9
ATOM      3  C   UNL     1      -0.018   1.503   0.010  0.00  0.00    +0.086 C 
ATOM      4  C   UNL     1       0.002  -0.004   0.002  0.00  0.00    +0.105 A 
ATOM      5  N   UNL     1       0.007  -0.778  -1.118  0.00  0.00    -0.342 N 
ATOM      6  H   UNL     1      -0.001  -0.462  -2.035  0.00  0.00    +0.167 HD
ATOM      7  C   UNL     1       0.027  -2.096  -0.707  0.00  0.00    +0.068 A 
ATOM      8  C   UNL     1       0.040  -3.314  -1.371  0.00  0.00    +0.050 A 
ATOM      9  C   UNL     1       0.059  -4.491  -0.642  0.00  0.00    +0.030 A 
ATOM     10  C   UNL     1       0.065  -4.455   0.752  0.00  0.00    +0.025 A 
ATOM     11  C   UNL     1       0.052  -3.263   1.416  0.00  0.00    +0.031 A 
ATOM     12  C   UNL     1       0.033  -2.063   0.698  0.00  0.00    +0.089 A 
ATOM     13  N   UNL     1       0.023  -0.755   1.064  0.00  0.00    -0.233 NA
ENDBRANCH   1   9
BRANCH   1  14
ATOM     14  C   UNL     1       0.092  -6.969  -0.538  0.00  0.00    +0.142 C 
ATOM     15  C   UNL     1      -1.345  -7.451  -0.229  0.00  0.00    +0.256 C 
ATOM     16  O   UNL     1      -1.230  -8.880  -0.327  0.00  0.00    -0.489 OA
ATOM     17  C   UNL     1      -0.223  -9.192  -1.188  0.00  0.00    +0.129 A 
ATOM     18  C   UNL     1       0.633  -8.112  -1.375  0.00  0.00    +0.018 A 
ATOM     19  C   UNL     1       1.731  -8.214  -2.200  0.00  0.00    +0.013 A 
ATOM     20  C   UNL     1       1.991  -9.399  -2.864  0.00  0.00    +0.046 A 
ATOM     21  C   UNL     1       1.143 -10.483  -2.693  0.00  0.00    +0.120 A 
ATOM     22  C   UNL     1       0.039 -10.382  -1.860  0.00  0.00    +0.091 A 
BRANCH  21  23
ATOM     23  O   UNL     1       1.393 -11.649  -3.346  0.00  0.00    -0.507 OA
ATOM     24  H   UNL     1       1.955 -12.262  -2.854  0.00  0.00    +0.292 HD
ENDBRANCH  21  23
ENDBRANCH   1  14
TORSDOF 3
