REMARK  Name = ZINC17633563
REMARK  9 active torsions:
REMARK  status: ('A' for Active; 'I' for Inactive)
REMARK    1  A    between atoms: C_1  and  C_2
REMARK    2  A    between atoms: C_3  and  C_13
REMARK    3  A    between atoms: C_4  and  C_12
REMARK    4  A    between atoms: C_13  and  C_14
REMARK    5  A    between atoms: N_16  and  N_17
REMARK    6  A    between atoms: C_18  and  C_20
REMARK    7  A    between atoms: C_23  and  C_26
REMARK    8  A    between atoms: C_26  and  N_27
REMARK    9  A    between atoms: C_29  and  C_32
REMARK                            x       y       z     vdW  Elec       q    Type
REMARK                         _______ _______ _______ _____ _____    ______ ____
ROOT
ATOM      1  N   UNL     1       4.943   6.464  -2.996  0.00  0.00    -0.230 N 
ATOM      2  C   UNL     1       5.538   7.649  -3.240  0.00  0.00    +0.260 C 
ATOM      3  O   UNL     1       5.903   8.348  -2.316  0.00  0.00    -0.269 OA
ATOM      4  H   UNL     1       4.652   5.906  -3.734  0.00  0.00    +0.173 HD
ENDROOT
BRANCH   2   5
ATOM      5  C   UNL     1       5.747   8.097  -4.634  0.00  0.00    +0.038 A 
ATOM      6  C   UNL     1       5.335   7.293  -5.698  0.00  0.00    +0.013 A 
ATOM      7  C   UNL     1       5.530   7.719  -6.996  0.00  0.00    +0.006 A 
ATOM      8  C   UNL     1       6.141   8.936  -7.243  0.00  0.00    -0.024 A 
ATOM      9  C   UNL     1       6.556   9.735  -6.193  0.00  0.00    +0.006 A 
ATOM     10  C   UNL     1       6.363   9.323  -4.891  0.00  0.00    +0.013 A 
BRANCH   8  11
ATOM     11  C   UNL     1       6.354   9.393  -8.664  0.00  0.00    +0.203 C 
BRANCH  11  12
ATOM     12  N   UNL     1       7.657   8.919  -9.138  0.00  0.00    -0.158 N 
ATOM     13  N   UNL     1       7.870   7.795  -9.731  0.00  0.00    -0.130 NA
ATOM     14  C   UNL     1       9.157   7.721 -10.005  0.00  0.00    +0.205 A 
ATOM     15  N   UNL     1       9.712   8.854  -9.551  0.00  0.00    -0.108 NA
ATOM     16  N   UNL     1       8.767   9.562  -9.033  0.00  0.00    -0.045 NA
BRANCH  14  17
ATOM     17  C   UNL     1       9.857   6.602 -10.686  0.00  0.00    +0.023 A 
ATOM     18  C   UNL     1       9.143   5.480 -11.099  0.00  0.00    +0.012 A 
ATOM     19  C   UNL     1       9.797   4.444 -11.735  0.00  0.00    +0.001 A 
ATOM     20  C   UNL     1      11.161   4.515 -11.953  0.00  0.00    +0.000 A 
ATOM     21  C   UNL     1      11.876   5.625 -11.540  0.00  0.00    +0.001 A 
ATOM     22  C   UNL     1      11.230   6.668 -10.908  0.00  0.00    +0.012 A 
ENDBRANCH  14  17
ENDBRANCH  11  12
ENDBRANCH   8  11
ENDBRANCH   2   5
BRANCH   1  25
ATOM     23  C   UNL     1       4.150   4.855  -1.431  0.00  0.00    +0.234 C 
ATOM     24  O   UNL     1       3.787   4.157  -2.353  0.00  0.00    -0.274 OA
ATOM     25  N   UNL     1       4.745   6.040  -1.675  0.00  0.00    -0.234 N 
ATOM     26  H   UNL     1       5.036   6.598  -0.938  0.00  0.00    +0.173 HD
BRANCH  23  27
ATOM     27  C   UNL     1       3.937   4.399  -0.011  0.00  0.00    +0.136 C 
BRANCH  27  30
ATOM     28  C   UNL     1       5.521   1.956  -0.040  0.00  0.00    +0.066 C 
ATOM     29  C   UNL     1       4.017   1.877  -0.026  0.00  0.00    +0.047 A 
ATOM     30  C   UNL     1       3.258   3.053  -0.012  0.00  0.00    +0.004 A 
ATOM     31  C   UNL     1       1.902   2.968   0.000  0.00  0.00    +0.049 A 
ATOM     32  N   UNL     1       1.318   1.741  -0.001  0.00  0.00    -0.199 N 
ATOM     33  C   UNL     1       2.088   0.612  -0.015  0.00  0.00    +0.255 A 
ATOM     34  N   UNL     1       3.422   0.705  -0.027  0.00  0.00    -0.216 NA
ATOM     35  N   UNL     1       1.263  -0.430  -0.012  0.00  0.00    -0.176 NA
ATOM     36  C   UNL     1       0.002  -0.004   0.002  0.00  0.00    +0.234 A 
ATOM     37  N   UNL     1      -0.016   1.313   0.009  0.00  0.00    -0.128 NA
ATOM     38  N   UNL     1      -1.123  -0.824   0.008  0.00  0.00    -0.326 N 
ATOM     39  C   UNL     1       1.058   4.216   0.015  0.00  0.00    +0.066 C 
ATOM     40  H   UNL     1      -2.010  -0.430   0.018  0.00  0.00    +0.145 HD
ATOM     41  H   UNL     1      -1.021  -1.788   0.002  0.00  0.00    +0.145 HD
ENDBRANCH  27  30
ENDBRANCH  23  27
ENDBRANCH   1  25
TORSDOF 7
