REMARK  Name = ZINC20729537
REMARK  9 active torsions:
REMARK  status: ('A' for Active; 'I' for Inactive)
REMARK    1  A    between atoms: C_1  and  C_2
REMARK    2  A    between atoms: C_14  and  O_31
REMARK    3  A    between atoms: C_17  and  C_19
REMARK    4  A    between atoms: C_23  and  O_29
REMARK    5  A    between atoms: C_24  and  O_25
REMARK    6  A    between atoms: O_25  and  C_26
REMARK    7  A    between atoms: C_26  and  C_27
REMARK    8  A    between atoms: C_26  and  C_28
REMARK    9  A    between atoms: O_29  and  C_30
REMARK                            x       y       z     vdW  Elec       q    Type
REMARK                         _______ _______ _______ _____ _____    ______ ____
ROOT
ATOM      1  C   UNL     1      -0.085   1.470   0.037  0.00  0.00    +0.068 C 
ATOM      2  C   UNL     1      -0.067  -0.037   0.010  0.00  0.00    +0.067 A 
ATOM      3  C   UNL     1      -0.131  -0.834  -1.148  0.00  0.00    +0.037 A 
ATOM      4  C   UNL     1      -0.092  -2.144  -0.754  0.00  0.00    +0.167 A 
ATOM      5  N   UNL     1       0.002  -2.138   0.626  0.00  0.00    -0.179 N 
ATOM      6  N   UNL     1       0.016  -0.811   1.054  0.00  0.00    -0.167 NA
ATOM      7  C   UNL     1       0.074  -3.263   1.446  0.00  0.00    +0.253 A 
ATOM      8  N   UNL     1       0.061  -4.466   0.894  0.00  0.00    -0.219 NA
ATOM      9  C   UNL     1       0.128  -5.554   1.642  0.00  0.00    +0.116 A 
ATOM     10  C   UNL     1       0.214  -5.423   3.019  0.00  0.00    +0.039 A 
ATOM     11  C   UNL     1       0.227  -4.148   3.563  0.00  0.00    +0.116 A 
ATOM     12  N   UNL     1       0.161  -3.102   2.756  0.00  0.00    -0.219 NA
ATOM     13  N   UNL     1      -0.138  -3.292  -1.449  0.00  0.00    -0.197 NA
ATOM     14  C   UNL     1      -0.223  -3.623  -2.655  0.00  0.00    +0.199 C 
ATOM     15  C   UNL     1      -0.253  -2.781  -3.869  0.00  0.00    +0.165 C 
ATOM     16  S   UNL     1      -1.187  -1.260  -3.651  0.00  0.00    -0.138 S 
ATOM     17  C   UNL     1      -0.220  -0.248  -2.525  0.00  0.00    +0.116 C 
ENDROOT
BRANCH  17  18
ATOM     18  C   UNL     1      -0.851   1.117  -2.433  0.00  0.00    +0.015 A 
ATOM     19  C   UNL     1      -0.062   2.250  -2.501  0.00  0.00    +0.009 A 
ATOM     20  C   UNL     1      -0.638   3.504  -2.416  0.00  0.00    +0.004 A 
ATOM     21  C   UNL     1      -2.006   3.630  -2.263  0.00  0.00    +0.049 A 
ATOM     22  C   UNL     1      -2.803   2.499  -2.194  0.00  0.00    +0.162 A 
ATOM     23  C   UNL     1      -2.224   1.236  -2.285  0.00  0.00    +0.167 A 
BRANCH  22  24
ATOM     24  O   UNL     1      -4.149   2.621  -2.043  0.00  0.00    -0.491 OA
ATOM     25  C   UNL     1      -4.675   3.948  -1.963  0.00  0.00    +0.277 C 
ENDBRANCH  22  24
BRANCH  23  26
ATOM     26  O   UNL     1      -3.002   0.123  -2.224  0.00  0.00    -0.485 OA
BRANCH  26  27
ATOM     27  C   UNL     1      -3.239  -0.432  -0.928  0.00  0.00    +0.168 C 
ATOM     28  C   UNL     1      -4.497   0.198  -0.326  0.00  0.00    +0.051 C 
ATOM     29  C   UNL     1      -3.434  -1.944  -1.049  0.00  0.00    +0.051 C 
ENDBRANCH  26  27
ENDBRANCH  23  26
ENDBRANCH  17  18
BRANCH  14  30
ATOM     30  O   UNL     1      -0.298  -4.951  -2.878  0.00  0.00    -0.495 OA
ATOM     31  H   UNL     1      -0.277  -5.487  -2.074  0.00  0.00    +0.293 HD
ENDBRANCH  14  30
TORSDOF 5
