REMARK  Name = ZINC04313810
REMARK  5 active torsions:
REMARK  status: ('A' for Active; 'I' for Inactive)
REMARK    1  A    between atoms: C_7  and  N_14
REMARK    2  A    between atoms: N_14  and  CA_15
REMARK    3  A    between atoms: CA_15  and  CB_17
REMARK    4  A    between atoms: CA_15  and  C_24
REMARK    5  A    between atoms: CB_17  and  CG_18
REMARK                            x       y       z     vdW  Elec       q    Type
REMARK                         _______ _______ _______ _____ _____    ______ ____
ROOT
ATOM      1  C   UNK A   0       1.460   1.196  -1.758  0.00  0.00    +0.001 A 
ATOM      2  C   UNK A   0       0.214   1.603  -2.236  0.00  0.00    +0.002 A 
ATOM      3  C   UNK A   0      -0.850   0.758  -2.231  0.00  0.00    +0.026 A 
ATOM      4  C   UNK A   0      -0.703  -0.553  -1.734  0.00  0.00    +0.049 A 
ATOM      5  C   UNK A   0       0.566  -0.963  -1.247  0.00  0.00    +0.020 A 
ATOM      6  C   UNK A   0       1.643  -0.060  -1.270  0.00  0.00    +0.012 A 
ATOM      7  C   UNK A   0       0.727  -2.271  -0.749  0.00  0.00    +0.046 A 
ATOM      8  C   UNK A   0      -0.398  -3.120  -0.759  0.00  0.00    +0.020 A 
ATOM      9  C   UNK A   0      -0.313  -4.437  -0.278  0.00  0.00    +0.012 A 
ATOM     10  C   UNK A   0      -1.415  -5.235  -0.299  0.00  0.00    +0.001 A 
ATOM     11  C   UNK A   0      -2.631  -4.762  -0.792  0.00  0.00    +0.002 A 
ATOM     12  C   UNK A   0      -2.752  -3.494  -1.266  0.00  0.00    +0.026 A 
ATOM     13  C   UNK A   0      -1.634  -2.635  -1.262  0.00  0.00    +0.049 A 
ATOM     14  N   UNK A   0      -1.811  -1.364  -1.752  0.00  0.00    -0.354 N 
ATOM     15  H   UNK A   0      -2.717  -1.040  -2.111  0.00  0.00    +0.166 HD
ENDROOT
BRANCH   7  16
ATOM     16  N   HIS A   1       1.943  -2.706  -0.269  0.00  0.00    -0.330 N 
ATOM     17  H   HIS A   1       2.572  -1.930  -0.122  0.00  0.00    +0.147 HD
BRANCH  16  18
ATOM     18  CA  HIS A   1       2.538  -3.703  -1.168  0.00  0.00    +0.190 C 
BRANCH  18  19
ATOM     19  C   HIS A   1       3.127  -3.009  -2.369  0.00  0.00    +0.376 C 
ATOM     20  O   HIS A   1       3.549  -1.881  -2.268  0.00  0.00    -0.244 OA
ATOM     21  OXT HIS A   1       3.182  -3.644  -3.550  0.00  0.00    -0.244 OA
ENDBRANCH  18  19
BRANCH  18  22
ATOM     22  CB  HIS A   1       3.640  -4.464  -0.428  0.00  0.00    +0.090 C 
BRANCH  22  23
ATOM     23  CG  HIS A   1       3.033  -5.257   0.701  0.00  0.00    +0.061 A 
ATOM     24  CD2 HIS A   1       3.164  -6.582   0.897  0.00  0.00    +0.107 A 
ATOM     25  NE2 HIS A   1       2.460  -6.887   2.031  0.00  0.00    -0.351 N 
ATOM     26  HE2 HIS A   1       2.366  -7.791   2.446  0.00  0.00    +0.166 HD
ATOM     27  CE1 HIS A   1       1.914  -5.737   2.483  0.00  0.00    +0.196 A 
ATOM     28  ND1 HIS A   1       2.261  -4.766   1.683  0.00  0.00    -0.241 NA
ENDBRANCH  22  23
ENDBRANCH  18  22
ENDBRANCH  16  18
ENDBRANCH   7  16
TORSDOF 5
