REMARK  Name = ZINC44558341
REMARK  5 active torsions:
REMARK  status: ('A' for Active; 'I' for Inactive)
REMARK    1  A    between atoms: C_1  and  C_2
REMARK    2  A    between atoms: C_4  and  O_10
REMARK    3  A    between atoms: C_6  and  C_9
REMARK    4  A    between atoms: O_10  and  C_11
REMARK    5  A    between atoms: C_11  and  C_13
REMARK                            x       y       z     vdW  Elec       q    Type
REMARK                         _______ _______ _______ _____ _____    ______ ____
ROOT
ATOM      1  O   UNL     1       0.028  -2.749  -2.385  0.00  0.00    -0.422 OA
ENDROOT
BRANCH   1   5
ATOM      2  C   UNL     1      -0.242   1.517  -0.030  0.00  0.00    +0.045 C 
ATOM      3  C   UNL     1      -0.112   0.015  -0.025  0.00  0.00    -0.028 A 
ATOM      4  C   UNL     1      -0.102  -0.681  -1.218  0.00  0.00    +0.051 A 
ATOM      5  C   UNL     1       0.018  -2.063  -1.212  0.00  0.00    +0.133 A 
ATOM      6  C   UNL     1       0.127  -2.743  -0.008  0.00  0.00    +0.051 A 
ATOM      7  C   UNL     1       0.117  -2.043   1.183  0.00  0.00    -0.028 A 
ATOM      8  C   UNL     1       0.002  -0.665   1.175  0.00  0.00    +0.047 A 
ATOM      9 CL   UNL     1      -0.004   0.213   2.673  0.00  0.00    -0.083 Cl
ATOM     10  C   UNL     1       0.235  -2.782   2.491  0.00  0.00    +0.045 C 
ENDBRANCH   1   5
BRANCH   1  11
ATOM     11  C   UNL     1       1.101  -2.612  -3.190  0.00  0.00    +0.346 C 
ATOM     12  O   UNL     1       2.065  -1.975  -2.814  0.00  0.00    -0.244 OA
BRANCH  11  13
ATOM     13  C   UNL     1       1.104  -3.233  -4.526  0.00  0.00    +0.076 A 
ATOM     14  C   UNL     1      -0.019  -3.971  -4.973  0.00  0.00    +0.022 A 
ATOM     15  C   UNL     1       0.011  -4.534  -6.210  0.00  0.00    +0.071 A 
ATOM     16  C   UNL     1       1.153  -4.372  -7.017  0.00  0.00    +0.249 A 
ATOM     17  O   UNL     1       1.185  -4.874  -8.128  0.00  0.00    -0.268 OA
ATOM     18  N   UNL     1       2.209  -3.666  -6.573  0.00  0.00    -0.328 N 
ATOM     19  H   UNL     1       2.988  -3.563  -7.142  0.00  0.00    +0.168 HD
ATOM     20  C   UNL     1       2.200  -3.095  -5.354  0.00  0.00    +0.101 A 
ENDBRANCH  11  13
ENDBRANCH   1  11
TORSDOF 3
