REMARK  Name = ZINC50710539
REMARK  7 active torsions:
REMARK  status: ('A' for Active; 'I' for Inactive)
REMARK    1  A    between atoms: C_1  and  C_2
REMARK    2  A    between atoms: C_2  and  C_3
REMARK    3  A    between atoms: C_2  and  C_4
REMARK    4  A    between atoms: C_2  and  N_7
REMARK    5  A    between atoms: C_8  and  C_10
REMARK    6  A    between atoms: C_13  and  N_20
REMARK    7  A    between atoms: C_14  and  C_16
REMARK                            x       y       z     vdW  Elec       q    Type
REMARK                         _______ _______ _______ _____ _____    ______ ____
ROOT
ATOM      1  C   UNL     1       2.662  -0.608  -2.641  0.00  0.00    +0.037 A 
ATOM      2  C   UNL     1       1.984  -1.411  -3.563  0.00  0.00    +0.015 A 
ATOM      3  C   UNL     1       2.631  -1.853  -4.694  0.00  0.00    +0.024 A 
ATOM      4  C   UNL     1       3.959  -1.501  -4.921  0.00  0.00    +0.036 A 
ATOM      5  C   UNL     1       4.636  -0.702  -4.005  0.00  0.00    +0.076 A 
ATOM      6  C   UNL     1       3.993  -0.252  -2.874  0.00  0.00    +0.027 A 
ENDROOT
BRANCH   1   8
ATOM      7  N   UNL     1       0.688  -0.476  -1.203  0.00  0.00    -0.298 N 
ATOM      8  C   UNL     1       1.972  -0.132  -1.427  0.00  0.00    +0.245 C 
ATOM      9  O   UNL     1       2.561   0.571  -0.628  0.00  0.00    -0.270 OA
ATOM     10  H   UNL     1       0.218  -1.037  -1.840  0.00  0.00    +0.150 HD
BRANCH   7  12
ATOM     11  C   UNL     1      -0.019   1.526   0.010  0.00  0.00    +0.041 C 
ATOM     12  C   UNL     1       0.002  -0.004   0.002  0.00  0.00    +0.105 C 
ATOM     13  C   UNL     1       0.742  -0.511   1.242  0.00  0.00    +0.041 C 
BRANCH  12  14
ATOM     14  C   UNL     1      -1.412  -0.526   0.013  0.00  0.00    +0.233 C 
ATOM     15  O   UNL     1      -1.939  -0.827   1.062  0.00  0.00    -0.274 OA
ATOM     16  N   UNL     1      -2.090  -0.657  -1.144  0.00  0.00    -0.328 N 
ATOM     17  H   UNL     1      -1.669  -0.416  -1.984  0.00  0.00    +0.145 HD
ATOM     18  H   UNL     1      -3.000  -0.993  -1.137  0.00  0.00    +0.145 HD
ENDBRANCH  12  14
ENDBRANCH   7  12
ENDBRANCH   1   8
BRANCH   5  19
ATOM     19  C   UNL     1       6.074  -0.324  -4.254  0.00  0.00    +0.419 C 
ATOM     20  F   UNL     1       6.534   0.476  -3.203  0.00  0.00    -0.166 F 
ATOM     21  F   UNL     1       6.854  -1.483  -4.334  0.00  0.00    -0.166 F 
ATOM     22  F   UNL     1       6.168   0.385  -5.456  0.00  0.00    -0.166 F 
ENDBRANCH   5  19
BRANCH   4  23
ATOM     23  N   UNL     1       4.610  -1.950  -6.065  0.00  0.00    -0.358 N 
ATOM     24  H   UNL     1       4.139  -2.507  -6.704  0.00  0.00    +0.142 HD
ATOM     25  H   UNL     1       5.535  -1.705  -6.224  0.00  0.00    +0.142 HD
ENDBRANCH   4  23
TORSDOF 5
