REMARK  Name = ZINC40709572
REMARK  7 active torsions:
REMARK  status: ('A' for Active; 'I' for Inactive)
REMARK    1  A    between atoms: C_1  and  C_2
REMARK    2  A    between atoms: C_13  and  N_33
REMARK    3  A    between atoms: C_14  and  N_18
REMARK    4  A    between atoms: N_18  and  C_19
REMARK    5  A    between atoms: N_18  and  C_26
REMARK    6  A    between atoms: C_19  and  C_20
REMARK    7  A    between atoms: C_26  and  C_27
REMARK                            x       y       z     vdW  Elec       q    Type
REMARK                         _______ _______ _______ _____ _____    ______ ____
ROOT
ATOM      1  C   UNL     1      -5.331  -5.182   1.614  0.00  0.00    +0.046 C 
ATOM      2  C   UNL     1      -3.924  -4.885   1.164  0.00  0.00    -0.024 A 
ATOM      3  C   UNL     1      -3.577  -5.076  -0.149  0.00  0.00    +0.005 A 
ATOM      4  C   UNL     1      -2.294  -4.815  -0.605  0.00  0.00    +0.001 A 
ATOM      5  C   UNL     1      -1.340  -4.351   0.283  0.00  0.00    +0.017 A 
ATOM      6  C   UNL     1      -1.678  -4.158   1.599  0.00  0.00    +0.041 A 
ATOM      7  C   UNL     1      -2.976  -4.408   2.099  0.00  0.00    +0.083 A 
ATOM      8  N   UNL     1      -3.154  -4.164   3.415  0.00  0.00    -0.224 NA
ATOM      9  C   UNL     1      -2.189  -3.718   4.187  0.00  0.00    +0.165 A 
ATOM     10  S   UNL     1      -0.816  -3.598   3.049  0.00  0.00    -0.052 S 
ATOM     11  N   UNL     1      -2.223  -3.425   5.537  0.00  0.00    -0.277 N 
ATOM     12  C   UNL     1      -1.079  -2.959   6.177  0.00  0.00    +0.150 A 
ATOM     13  C   UNL     1      -1.101  -2.665   7.541  0.00  0.00    +0.106 A 
ATOM     14  C   UNL     1       0.075  -2.200   8.134  0.00  0.00    +0.148 A 
ATOM     15  N   UNL     1       1.162  -2.055   7.381  0.00  0.00    -0.219 NA
ATOM     16  C   UNL     1       1.140  -2.343   6.096  0.00  0.00    +0.225 A 
ATOM     17  N   UNL     1       0.053  -2.790   5.499  0.00  0.00    -0.219 NA
ATOM     18  H   UNL     1      -3.045  -3.546   6.038  0.00  0.00    +0.156 HD
ENDROOT
BRANCH  13  19
ATOM     19  N   UNL     1      -2.272  -2.833   8.297  0.00  0.00    -0.353 N 
ATOM     20  H   UNL     1      -3.104  -3.067   7.856  0.00  0.00    +0.143 HD
ATOM     21  H   UNL     1      -2.249  -2.715   9.259  0.00  0.00    +0.143 HD
ENDBRANCH  13  19
BRANCH  14  22
ATOM     22  N   UNL     1       0.108  -1.893   9.489  0.00  0.00    -0.305 N 
BRANCH  22  23
ATOM     23  C   UNL     1       0.336  -2.952  10.475  0.00  0.00    +0.142 C 
BRANCH  23  24
ATOM     24  C   UNL     1       1.815  -3.093  10.728  0.00  0.00    -0.030 A 
ATOM     25  C   UNL     1       2.569  -3.958   9.958  0.00  0.00    +0.005 A 
ATOM     26  C   UNL     1       3.925  -4.088  10.190  0.00  0.00    +0.000 A 
ATOM     27  C   UNL     1       4.529  -3.350  11.192  0.00  0.00    +0.000 A 
ATOM     28  C   UNL     1       3.775  -2.484  11.962  0.00  0.00    +0.000 A 
ATOM     29  C   UNL     1       2.419  -2.352  11.727  0.00  0.00    +0.005 A 
ENDBRANCH  23  24
ENDBRANCH  22  23
BRANCH  22  30
ATOM     30  C   UNL     1      -0.085  -0.509   9.931  0.00  0.00    +0.142 C 
BRANCH  30  31
ATOM     31  C   UNL     1      -1.536  -0.289  10.273  0.00  0.00    -0.030 A 
ATOM     32  C   UNL     1      -2.396   0.238   9.327  0.00  0.00    +0.005 A 
ATOM     33  C   UNL     1      -3.727   0.440   9.640  0.00  0.00    +0.000 A 
ATOM     34  C   UNL     1      -4.198   0.115  10.899  0.00  0.00    +0.000 A 
ATOM     35  C   UNL     1      -3.339  -0.413  11.844  0.00  0.00    +0.000 A 
ATOM     36  C   UNL     1      -2.008  -0.619  11.529  0.00  0.00    +0.005 A 
ENDBRANCH  30  31
ENDBRANCH  22  30
ENDBRANCH  14  22
TORSDOF 6
