REMARK  Name = ZINC20573659
REMARK  10 active torsions:
REMARK  status: ('A' for Active; 'I' for Inactive)
REMARK    1  A    between atoms: C_1  and  O_2
REMARK    2  A    between atoms: O_2  and  C_3
REMARK    3  A    between atoms: C_5  and  C_13
REMARK    4  A    between atoms: C_7  and  O_11
REMARK    5  A    between atoms: C_8  and  O_9
REMARK    6  A    between atoms: O_9  and  C_10
REMARK    7  A    between atoms: O_11  and  C_12
REMARK    8  A    between atoms: N_15  and  C_16
REMARK    9  A    between atoms: C_16  and  C_17
REMARK   10  A    between atoms: C_17  and  C_18
REMARK                            x       y       z     vdW  Elec       q    Type
REMARK                         _______ _______ _______ _____ _____    ______ ____
ROOT
ATOM      1  C   UNL     1      -9.763   0.234   0.073  0.00  0.00    +0.217 C 
ATOM      2  O   UNL     1      -9.718   1.446   0.075  0.00  0.00    -0.276 OA
ATOM      3  N   UNL     1     -10.954  -0.396   0.081  0.00  0.00    -0.301 N 
ATOM      4  C   UNL     1     -11.025  -1.864   0.085  0.00  0.00    +0.110 C 
ATOM      5  C   UNL     1     -11.913  -2.317  -1.078  0.00  0.00    +0.047 C 
ATOM      6  C   UNL     1     -13.270  -1.620  -0.982  0.00  0.00    +0.064 C 
ATOM      7  C   UNL     1     -13.083  -0.106  -1.077  0.00  0.00    +0.047 C 
ATOM      8  C   UNL     1     -12.207   0.372   0.091  0.00  0.00    +0.110 C 
ATOM      9  C   UNL     1     -14.166  -2.094  -2.095  0.00  0.00    +0.057 A 
ATOM     10  C   UNL     1     -15.171  -2.983  -1.922  0.00  0.00    +0.039 A 
ATOM     11  N   UNL     1     -15.757  -3.178  -3.103  0.00  0.00    -0.349 N 
ATOM     12  C   UNL     1     -15.156  -2.446  -4.005  0.00  0.00    +0.171 A 
ATOM     13  N   UNL     1     -14.155  -1.755  -3.411  0.00  0.00    -0.348 N 
ATOM     14  H   UNL     1     -13.546  -1.136  -3.842  0.00  0.00    +0.166 HD
ATOM     15  C   UNL     1     -15.500  -3.602  -0.586  0.00  0.00    +0.070 C 
ATOM     16  C   UNL     1     -14.305  -3.370   0.350  0.00  0.00    +0.088 C 
ATOM     17  N   UNL     1     -13.905  -1.957   0.303  0.00  0.00    -0.305 NA
ATOM     18  H   UNL     1     -13.301  -1.727   1.077  0.00  0.00    +0.123 HD
ATOM     19  H   UNL     1     -16.509  -3.768  -3.267  0.00  0.00    +0.166 HD
ENDROOT
BRANCH   1  20
ATOM     20  C   UNL     1      -8.487  -0.568   0.063  0.00  0.00    +0.114 C 
BRANCH  20  21
ATOM     21  C   UNL     1      -7.288   0.383   0.056  0.00  0.00    +0.113 C 
BRANCH  21  24
ATOM     22  C   UNL     1      -4.856   0.233   0.038  0.00  0.00    +0.244 C 
ATOM     23  O   UNL     1      -4.811   1.448   0.040  0.00  0.00    -0.270 OA
ATOM     24  N   UNL     1      -6.047  -0.397   0.045  0.00  0.00    -0.311 N 
ATOM     25  H   UNL     1      -6.083  -1.366   0.044  0.00  0.00    +0.149 HD
BRANCH  22  28
ATOM     26  C   UNL     1      -1.201  -0.638   0.010  0.00  0.00    +0.166 A 
ATOM     27  C   UNL     1      -2.370   0.100   0.019  0.00  0.00    +0.062 A 
ATOM     28  C   UNL     1      -3.606  -0.552   0.027  0.00  0.00    +0.044 A 
ATOM     29  C   UNL     1      -3.657  -1.948   0.026  0.00  0.00    +0.062 A 
ATOM     30  C   UNL     1      -2.485  -2.681   0.016  0.00  0.00    +0.166 A 
ATOM     31  C   UNL     1      -1.254  -2.029   0.003  0.00  0.00    +0.204 A 
BRANCH  26  33
ATOM     32  C   UNL     1      -0.017   1.425   0.010  0.00  0.00    +0.277 C 
ATOM     33  O   UNL     1       0.002  -0.004   0.002  0.00  0.00    -0.491 OA
ENDBRANCH  26  33
BRANCH  31  34
ATOM     34  O   UNL     1      -0.104  -2.752  -0.011  0.00  0.00    -0.488 OA
ATOM     35  C   UNL     1       0.457  -3.104   1.255  0.00  0.00    +0.277 C 
ENDBRANCH  31  34
BRANCH  30  36
ATOM     36  O   UNL     1      -2.533  -4.040   0.015  0.00  0.00    -0.491 OA
ATOM     37  C   UNL     1      -3.829  -4.643   0.024  0.00  0.00    +0.277 C 
ENDBRANCH  30  36
ENDBRANCH  22  28
ENDBRANCH  21  24
ENDBRANCH  20  21
ENDBRANCH   1  20
TORSDOF 7
