REMARK  Name = ZINC61887610
REMARK  7 active torsions:
REMARK  status: ('A' for Active; 'I' for Inactive)
REMARK    1  A    between atoms: C_1  and  C_2
REMARK    2  A    between atoms: C_4  and  C_23
REMARK    3  A    between atoms: C_5  and  C_9
REMARK    4  A    between atoms: C_6  and  C_8
REMARK    5  A    between atoms: N_11  and  C_12
REMARK    6  A    between atoms: C_17  and  C_19
REMARK    7  A    between atoms: N_20  and  O_21
REMARK                            x       y       z     vdW  Elec       q    Type
REMARK                         _______ _______ _______ _____ _____    ______ ____
ROOT
ATOM      1  C   UNL     1       0.178  -4.361  -0.451  0.00  0.00    +0.245 C 
ATOM      2  O   UNL     1       1.187  -5.010  -0.651  0.00  0.00    -0.270 OA
ATOM      3  N   UNL     1      -0.984  -4.989  -0.182  0.00  0.00    -0.308 N 
ATOM      4  H   UNL     1      -1.789  -4.472  -0.022  0.00  0.00    +0.149 HD
ENDROOT
BRANCH   1   9
ATOM      5  C   UNL     1       0.362   1.387  -0.656  0.00  0.00    +0.044 C 
ATOM      6  C   UNL     1       0.314  -0.119  -0.603  0.00  0.00    -0.050 A 
ATOM      7  C   UNL     1       0.038  -0.840  -1.751  0.00  0.00    +0.007 A 
ATOM      8  C   UNL     1      -0.007  -2.219  -1.708  0.00  0.00    -0.038 A 
ATOM      9  C   UNL     1       0.226  -2.885  -0.504  0.00  0.00    +0.043 A 
ATOM     10  C   UNL     1       0.503  -2.151   0.650  0.00  0.00    -0.038 A 
ATOM     11  C   UNL     1       0.551  -0.773   0.593  0.00  0.00    +0.007 A 
ATOM     12  C   UNL     1       0.755  -2.861   1.955  0.00  0.00    +0.044 C 
ATOM     13  C   UNL     1      -0.308  -3.003  -2.959  0.00  0.00    +0.044 C 
ENDBRANCH   1   9
BRANCH   3  14
ATOM     14  C   UNL     1      -1.031  -6.452  -0.129  0.00  0.00    +0.083 C 
ATOM     15  C   UNL     1      -0.758  -6.938   1.305  0.00  0.00    +0.023 C 
ATOM     16  C   UNL     1      -2.014  -7.712   1.755  0.00  0.00    +0.003 C 
ATOM     17  C   UNL     1      -3.148  -7.148   0.863  0.00  0.00    +0.013 C 
ATOM     18  C   UNL     1      -2.443  -6.949  -0.503  0.00  0.00    +0.076 C 
BRANCH  18  19
ATOM     19  C   UNL     1      -3.166  -5.914  -1.325  0.00  0.00    +0.136 C 
ATOM     20  N   UNL     1      -3.958  -5.071  -0.751  0.00  0.00    -0.076 NA
ATOM     21  N   UNL     1      -2.982  -5.867  -2.689  0.00  0.00    -0.344 N 
ATOM     22  H   UNL     1      -2.386  -6.500  -3.121  0.00  0.00    +0.144 HD
ATOM     23  H   UNL     1      -3.447  -5.200  -3.219  0.00  0.00    +0.144 HD
BRANCH  20  24
ATOM     24  O   UNL     1      -4.638  -4.098  -1.524  0.00  0.00    -0.408 OA
ATOM     25  H   UNL     1      -5.208  -3.513  -1.006  0.00  0.00    +0.328 HD
ENDBRANCH  20  24
ENDBRANCH  18  19
ENDBRANCH   3  14
TORSDOF 4
