REMARK  Name = ZINC17094626
REMARK  7 active torsions:
REMARK  status: ('A' for Active; 'I' for Inactive)
REMARK    1  A    between atoms: C_1  and  C_2
REMARK    2  A    between atoms: C_2  and  O_3
REMARK    3  A    between atoms: O_3  and  C_4
REMARK    4  A    between atoms: C_6  and  C_11
REMARK    5  A    between atoms: C_9  and  O_10
REMARK    6  A    between atoms: C_21  and  C_23
REMARK    7  A    between atoms: N_24  and  C_25
REMARK                            x       y       z     vdW  Elec       q    Type
REMARK                         _______ _______ _______ _____ _____    ______ ____
ROOT
ATOM      1  C   UNL     1       4.952   3.215  -0.073  0.00  0.00    +0.203 C 
ATOM      2  N   UNL     1       5.671   2.797  -1.283  0.00  0.00    -0.291 N 
ATOM      3  C   UNL     1       6.475   1.767  -1.236  0.00  0.00    +0.220 C 
ATOM      4  N   UNL     1       6.645   1.120  -0.016  0.00  0.00    -0.181 NA
ATOM      5  C   UNL     1       6.651   1.929   1.105  0.00  0.00    +0.229 C 
ATOM      6  N   UNL     1       5.816   3.013   1.094  0.00  0.00    -0.213 N 
ATOM      7  C   UNL     1       5.799   3.860   2.138  0.00  0.00    +0.249 C 
ATOM      8  O   UNL     1       5.080   4.846   2.130  0.00  0.00    -0.270 OA
ATOM      9  C   UNL     1       6.632   3.584   3.239  0.00  0.00    +0.091 C 
ATOM     10  C   UNL     1       7.429   2.478   3.204  0.00  0.00    +0.047 C 
ATOM     11  N   UNL     1       7.423   1.674   2.134  0.00  0.00    -0.219 NA
ATOM     12  C   UNL     1       8.322   2.159   4.376  0.00  0.00    +0.066 C 
ATOM     13  N   UNL     1       7.136   1.334  -2.362  0.00  0.00    -0.215 NA
ATOM     14  H   UNL     1       5.532   3.350  -2.224  0.00  0.00    +0.151 HD
ENDROOT
BRANCH  13  15
ATOM     15  C   UNL     1       7.049   2.069  -3.550  0.00  0.00    +0.068 A 
ATOM     16  C   UNL     1       7.042   1.413  -4.774  0.00  0.00    +0.029 A 
ATOM     17  C   UNL     1       6.950   2.141  -5.945  0.00  0.00    +0.022 A 
ATOM     18  C   UNL     1       6.877   3.522  -5.899  0.00  0.00    +0.041 A 
ATOM     19  C   UNL     1       6.889   4.178  -4.681  0.00  0.00    +0.022 A 
ATOM     20  C   UNL     1       6.975   3.455  -3.507  0.00  0.00    +0.029 A 
ATOM     21 CL   UNL     1       6.769   4.433  -7.373  0.00  0.00    -0.084 Cl
ENDBRANCH  13  15
BRANCH   1  24
ATOM     22  C   UNL     1       1.901   1.147  -0.904  0.00  0.00    +0.162 A 
ATOM     23  C   UNL     1       3.053   1.905  -1.042  0.00  0.00    +0.056 A 
ATOM     24  C   UNL     1       3.699   2.390   0.079  0.00  0.00    -0.005 A 
ATOM     25  C   UNL     1       3.200   2.120   1.340  0.00  0.00    +0.011 A 
ATOM     26  C   UNL     1       2.048   1.369   1.485  0.00  0.00    +0.049 A 
ATOM     27  C   UNL     1       1.398   0.875   0.365  0.00  0.00    +0.158 A 
BRANCH  27  28
ATOM     28  O   UNL     1       0.269   0.132   0.506  0.00  0.00    -0.503 OA
ATOM     29  H   UNL     1      -0.128  -0.082   1.509  0.00  0.00    +0.292 HD
ENDBRANCH  27  28
BRANCH  22  30
ATOM     30  O   UNL     1       1.264   0.669  -2.006  0.00  0.00    -0.489 OA
BRANCH  30  32
ATOM     31  C   UNL     1       0.988   0.367  -4.388  0.00  0.00    +0.048 C 
ATOM     32  C   UNL     1       1.837   0.987  -3.276  0.00  0.00    +0.226 C 
ENDBRANCH  30  32
ENDBRANCH  22  30
ENDBRANCH   1  24
TORSDOF 5
