REMARK  Name = ZINC62496506
REMARK  7 active torsions:
REMARK  status: ('A' for Active; 'I' for Inactive)
REMARK    1  A    between atoms: C_1  and  C_2
REMARK    2  A    between atoms: C_2  and  C_3
REMARK    3  A    between atoms: C_6  and  C_9
REMARK    4  A    between atoms: C_9  and  C_10
REMARK    5  A    between atoms: N_14  and  C_23
REMARK    6  A    between atoms: C_18  and  O_22
REMARK    7  A    between atoms: C_23  and  C_24
REMARK                            x       y       z     vdW  Elec       q    Type
REMARK                         _______ _______ _______ _____ _____    ______ ____
ROOT
ATOM      1  C   UNL     1       3.169  -0.668  -5.581  0.00  0.00    +0.263 C 
ATOM      2  C   UNL     1       3.763  -1.153  -6.879  0.00  0.00    +0.262 C 
ATOM      3  O   UNL     1       3.068  -1.246  -7.869  0.00  0.00    -0.271 OA
ATOM      4  N   UNL     1       5.070  -1.483  -6.935  0.00  0.00    -0.251 N 
ATOM      5  C   UNL     1       5.884  -1.248  -5.816  0.00  0.00    +0.079 A 
ATOM      6  C   UNL     1       7.163  -1.776  -5.753  0.00  0.00    +0.031 A 
ATOM      7  C   UNL     1       7.949  -1.548  -4.639  0.00  0.00    +0.047 A 
ATOM      8  C   UNL     1       7.460  -0.792  -3.584  0.00  0.00    +0.120 A 
ATOM      9  C   UNL     1       6.181  -0.258  -3.645  0.00  0.00    +0.093 A 
ATOM     10  C   UNL     1       5.394  -0.479  -4.762  0.00  0.00    +0.146 A 
ATOM     11  O   UNL     1       4.152   0.066  -4.848  0.00  0.00    -0.477 OA
ENDROOT
BRANCH   8  12
ATOM     12  O   UNL     1       8.235  -0.575  -2.488  0.00  0.00    -0.507 OA
ATOM     13  H   UNL     1       8.783   0.220  -2.546  0.00  0.00    +0.292 HD
ENDBRANCH   8  12
BRANCH   1  14
ATOM     14  C   UNL     1       2.707  -1.868  -4.752  0.00  0.00    +0.089 C 
BRANCH  14  18
ATOM     15  C   UNL     1       0.707  -0.490  -1.238  0.00  0.00    -0.048 A 
ATOM     16  C   UNL     1      -0.011  -0.719  -2.397  0.00  0.00    +0.004 A 
ATOM     17  C   UNL     1       0.636  -1.164  -3.534  0.00  0.00    +0.004 A 
ATOM     18  C   UNL     1       2.002  -1.381  -3.513  0.00  0.00    -0.043 A 
ATOM     19  C   UNL     1       2.720  -1.152  -2.354  0.00  0.00    +0.004 A 
ATOM     20  C   UNL     1       2.073  -0.702  -1.218  0.00  0.00    +0.004 A 
BRANCH  15  22
ATOM     21  C   UNL     1      -0.019   1.526   0.010  0.00  0.00    +0.009 C 
ATOM     22  C   UNL     1       0.002  -0.004   0.002  0.00  0.00    +0.032 C 
ENDBRANCH  15  22
ENDBRANCH  14  18
ENDBRANCH   1  14
BRANCH   4  23
ATOM     23  C   UNL     1       5.633  -2.079  -8.149  0.00  0.00    +0.232 C 
BRANCH  23  24
ATOM     24  C   UNL     1       6.120  -1.013  -9.039  0.00  0.00    +0.082 C 
ATOM     25  N   UNL     1       6.496  -0.190  -9.726  0.00  0.00    -0.195 NA
ENDBRANCH  23  24
ENDBRANCH   4  23
TORSDOF 6
