REMARK  Name = ZINC16655602
REMARK  8 active torsions:
REMARK  status: ('A' for Active; 'I' for Inactive)
REMARK    1  A    between atoms: C_4  and  C_7
REMARK    2  A    between atoms: C_7  and  N_8
REMARK    3  A    between atoms: C_14  and  S_15
REMARK    4  A    between atoms: S_15  and  C_16
REMARK    5  A    between atoms: C_16  and  C_17
REMARK    6  A    between atoms: C_17  and  C_19
REMARK    7  A    between atoms: C_20  and  N_31
REMARK    8  A    between atoms: N_21  and  C_28
REMARK                            x       y       z     vdW  Elec       q    Type
REMARK                         _______ _______ _______ _____ _____    ______ ____
ROOT
ATOM      1  C   UNL     1      -5.532   5.280   3.177  0.00  0.00    +0.182 C 
ATOM      2  O   UNL     1      -5.526   5.773   2.067  0.00  0.00    -0.291 OA
ENDROOT
BRANCH   1   3
ATOM      3  C   UNL     1      -6.537   5.636   4.102  0.00  0.00    +0.120 A 
ATOM      4  C   UNL     1      -7.457   6.659   3.814  0.00  0.00    +0.116 A 
ATOM      5  N   UNL     1      -8.416   6.963   4.739  0.00  0.00    -0.278 N 
ATOM      6  C   UNL     1      -8.485   6.314   5.911  0.00  0.00    +0.331 A 
ATOM      7  O   UNL     1      -9.354   6.626   6.702  0.00  0.00    -0.246 OA
ATOM      8  N   UNL     1      -7.631   5.333   6.243  0.00  0.00    -0.274 N 
ATOM      9  H   UNL     1      -7.721   4.878   7.129  0.00  0.00    +0.173 HD
ATOM     10  C   UNL     1      -6.651   4.953   5.397  0.00  0.00    +0.266 A 
ATOM     11  O   UNL     1      -5.878   4.063   5.700  0.00  0.00    -0.267 OA
BRANCH   5  12
ATOM     12  C   UNL     1      -9.383   8.024   4.446  0.00  0.00    +0.094 C 
ATOM     13  C   UNL     1     -10.860   7.725   4.712  0.00  0.00    +0.027 C 
ATOM     14  C   UNL     1     -10.341   7.802   3.274  0.00  0.00    +0.027 C 
ENDBRANCH   5  12
BRANCH   4  15
ATOM     15  N   UNL     1      -7.398   7.331   2.633  0.00  0.00    -0.344 N 
ATOM     16  H   UNL     1      -7.021   6.901   1.849  0.00  0.00    +0.144 HD
ATOM     17  H   UNL     1      -7.732   8.239   2.574  0.00  0.00    +0.144 HD
ENDBRANCH   4  15
ENDBRANCH   1   3
BRANCH   1  18
ATOM     18  C   UNL     1      -4.466   4.289   3.567  0.00  0.00    +0.157 C 
BRANCH  18  19
ATOM     19  S   UNL     1      -3.332   4.043   2.178  0.00  0.00    -0.078 S 
BRANCH  19  26
ATOM     20  N   UNL     1      -1.131   2.318   2.264  0.00  0.00    -0.266 N 
ATOM     21  C   UNL     1      -0.535   1.469   3.124  0.00  0.00    +0.345 A 
ATOM     22  O   UNL     1       0.458   0.799   2.902  0.00  0.00    -0.245 OA
ATOM     23  N   UNL     1      -1.237   1.497   4.276  0.00  0.00    -0.226 N 
ATOM     24  H   UNL     1      -1.043   0.988   5.079  0.00  0.00    +0.194 HD
ATOM     25  N   UNL     1      -2.300   2.392   4.097  0.00  0.00    -0.145 NA
ATOM     26  C   UNL     1      -2.223   2.874   2.890  0.00  0.00    +0.193 A 
BRANCH  20  27
ATOM     27  C   UNL     1      -0.694   2.598   0.894  0.00  0.00    +0.164 C 
BRANCH  27  31
ATOM     28  C   UNL     1       2.039   5.881   0.906  0.00  0.00    +0.000 A 
ATOM     29  C   UNL     1       2.511   4.589   1.040  0.00  0.00    +0.000 A 
ATOM     30  C   UNL     1       1.626   3.527   1.039  0.00  0.00    +0.005 A 
ATOM     31  C   UNL     1       0.270   3.756   0.900  0.00  0.00    -0.028 A 
ATOM     32  C   UNL     1      -0.202   5.049   0.772  0.00  0.00    +0.005 A 
ATOM     33  C   UNL     1       0.682   6.112   0.772  0.00  0.00    +0.000 A 
ENDBRANCH  27  31
ENDBRANCH  20  27
ENDBRANCH  19  26
ENDBRANCH  18  19
ENDBRANCH   1  18
TORSDOF 8
