REMARK  Name = ZINC10017226
REMARK  7 active torsions:
REMARK  status: ('A' for Active; 'I' for Inactive)
REMARK    1  A    between atoms: C_1  and  C_2
REMARK    2  A    between atoms: C_4  and  N_22
REMARK    3  A    between atoms: C_7  and  N_8
REMARK    4  A    between atoms: C_9  and  C_11
REMARK    5  A    between atoms: N_13  and  C_14
REMARK    6  A    between atoms: C_14  and  C_15
REMARK    7  A    between atoms: C_15  and  C_16
REMARK                            x       y       z     vdW  Elec       q    Type
REMARK                         _______ _______ _______ _____ _____    ______ ____
ROOT
ATOM      1  N   UNL     1      -1.191   1.867   0.018  0.00  0.00    -0.278 N 
ATOM      2  C   UNL     1      -0.014   1.210   0.006  0.00  0.00    +0.303 C 
ATOM      3  O   UNL     1       0.003  -0.004   0.006  0.00  0.00    -0.265 OA
ATOM      4  H   UNL     1      -1.205   2.834   0.099  0.00  0.00    +0.155 HD
ENDROOT
BRANCH   1  11
ATOM      5  C   UNL     1      -3.545   3.042   1.100  0.00  0.00    +0.046 C 
ATOM      6  C   UNL     1      -3.563   1.693   0.429  0.00  0.00    -0.027 A 
ATOM      7  C   UNL     1      -4.747   0.991   0.320  0.00  0.00    +0.038 A 
ATOM      8  C   UNL     1      -4.763  -0.250  -0.291  0.00  0.00    +0.127 A 
ATOM      9  C   UNL     1      -3.595  -0.789  -0.799  0.00  0.00    +0.034 A 
ATOM     10  C   UNL     1      -2.409  -0.090  -0.699  0.00  0.00    +0.026 A 
ATOM     11  C   UNL     1      -2.389   1.157  -0.086  0.00  0.00    +0.037 A 
BRANCH   8  12
ATOM     12  N   UNL     1      -6.033  -1.002  -0.401  0.00  0.00    +0.056 N 
ATOM     13  O   UNL     1      -6.049  -2.095  -0.939  0.00  0.00    -0.126 OA
ATOM     14  O   UNL     1      -7.062  -0.529   0.046  0.00  0.00    -0.126 OA
ENDBRANCH   8  12
ENDBRANCH   1  11
BRANCH   2  15
ATOM     15  C   UNL     1       1.269   1.974  -0.014  0.00  0.00    +0.299 C 
ATOM     16  O   UNL     1       1.252   3.188  -0.014  0.00  0.00    -0.265 OA
ATOM     17  N   UNL     1       2.445   1.317  -0.032  0.00  0.00    -0.307 N 
ATOM     18  H   UNL     1       2.458   0.347  -0.032  0.00  0.00    +0.149 HD
BRANCH  17  19
ATOM     19  C   UNL     1       3.703   2.067  -0.051  0.00  0.00    +0.109 C 
BRANCH  19  20
ATOM     20  C   UNL     1       4.880   1.089  -0.069  0.00  0.00    +0.049 C 
BRANCH  20  21
ATOM     21  C   UNL     1       6.174   1.860  -0.089  0.00  0.00    -0.072 C 
ATOM     22  C   UNL     1       6.764   2.086   1.041  0.00  0.00    -0.028 C 
ATOM     23  C   UNL     1       8.050   2.846   1.181  0.00  0.00    +0.027 C 
ATOM     24  C   UNL     1       8.760   2.934  -0.172  0.00  0.00    +0.004 C 
ATOM     25  C   UNL     1       7.749   3.414  -1.220  0.00  0.00    +0.005 C 
ATOM     26  C   UNL     1       6.702   2.314  -1.419  0.00  0.00    +0.030 C 
ENDBRANCH  20  21
ENDBRANCH  19  20
ENDBRANCH  17  19
ENDBRANCH   2  15
TORSDOF 6
