REMARK  Name = ZINC64541634
REMARK  8 active torsions:
REMARK  status: ('A' for Active; 'I' for Inactive)
REMARK    1  A    between atoms: C_1  and  C_2
REMARK    2  A    between atoms: C_6  and  C_8
REMARK    3  A    between atoms: N_10  and  C_11
REMARK    4  A    between atoms: C_19  and  C_21
REMARK    5  A    between atoms: N_23  and  C_24
REMARK    6  A    between atoms: C_24  and  C_25
REMARK    7  A    between atoms: C_25  and  C_26
REMARK    8  A    between atoms: C_25  and  C_27
REMARK                            x       y       z     vdW  Elec       q    Type
REMARK                         _______ _______ _______ _____ _____    ______ ____
ROOT
ATOM      1  C   UNL     1       0.186  -4.883   3.611  0.00  0.00    +0.051 C 
ATOM      2  C   UNL     1       0.194  -4.360   4.894  0.00  0.00    +0.018 A 
ATOM      3  C   UNL     1       0.093  -3.037   5.386  0.00  0.00    +0.011 A 
ATOM      4  C   UNL     1       0.132  -2.813   6.723  0.00  0.00    +0.001 A 
ATOM      5  C   UNL     1       0.271  -3.860   7.638  0.00  0.00    +0.002 A 
ATOM      6  C   UNL     1       0.373  -5.151   7.238  0.00  0.00    +0.026 A 
ATOM      7  C   UNL     1       0.341  -5.466   5.855  0.00  0.00    +0.045 A 
ATOM      8  N   UNL     1       0.420  -6.619   5.221  0.00  0.00    -0.369 N 
ATOM      9  C   UNL     1       0.327  -6.379   3.777  0.00  0.00    +0.211 C 
ATOM     10  H   UNL     1       0.520  -7.487   5.642  0.00  0.00    +0.161 HD
ENDROOT
BRANCH   1  13
ATOM     11  C   UNL     1       0.561  -2.942   2.348  0.00  0.00    +0.248 C 
ATOM     12  O   UNL     1       1.079  -2.417   3.313  0.00  0.00    -0.270 OA
ATOM     13  N   UNL     1       0.069  -4.193   2.444  0.00  0.00    -0.282 N 
ATOM     14  H   UNL     1      -0.369  -4.602   1.681  0.00  0.00    +0.155 HD
BRANCH  11  20
ATOM     15  C   UNL     1       1.437   1.167  -0.344  0.00  0.00    +0.044 C 
ATOM     16  C   UNL     1       0.890  -0.233  -0.232  0.00  0.00    -0.050 A 
ATOM     17  C   UNL     1       0.299  -0.834  -1.329  0.00  0.00    +0.003 A 
ATOM     18  C   UNL     1      -0.207  -2.118  -1.235  0.00  0.00    +0.001 A 
ATOM     19  C   UNL     1      -0.125  -2.808  -0.043  0.00  0.00    +0.013 A 
ATOM     20  C   UNL     1       0.470  -2.209   1.068  0.00  0.00    +0.037 A 
ATOM     21  C   UNL     1       0.983  -0.914   0.964  0.00  0.00    +0.016 A 
ENDBRANCH  11  20
ENDBRANCH   1  13
BRANCH   9  22
ATOM     22  C   UNL     1       1.580  -6.861   3.092  0.00  0.00    +0.241 C 
ATOM     23  O   UNL     1       2.581  -7.079   3.742  0.00  0.00    -0.273 OA
ATOM     24  N   UNL     1       1.589  -7.051   1.758  0.00  0.00    -0.313 N 
ATOM     25  H   UNL     1       0.788  -6.877   1.238  0.00  0.00    +0.149 HD
BRANCH  24  26
ATOM     26  C   UNL     1       2.807  -7.520   1.092  0.00  0.00    +0.107 C 
BRANCH  26  27
ATOM     27  C   UNL     1       2.549  -7.651  -0.410  0.00  0.00    -0.000 C 
ATOM     28  C   UNL     1       2.270  -6.268  -1.002  0.00  0.00    +0.009 C 
ATOM     29  C   UNL     1       3.779  -8.257  -1.088  0.00  0.00    +0.009 C 
ENDBRANCH  26  27
ENDBRANCH  24  26
ENDBRANCH   9  22
TORSDOF 5
