REMARK  Name = ZINC03088710
REMARK  8 active torsions:
REMARK  status: ('A' for Active; 'I' for Inactive)
REMARK    1  A    between atoms: C_1  and  C_2
REMARK    2  A    between atoms: C_5  and  O_9
REMARK    3  A    between atoms: C_7  and  C_8
REMARK    4  A    between atoms: O_9  and  C_10
REMARK    5  A    between atoms: C_10  and  C_11
REMARK    6  A    between atoms: N_13  and  N_14
REMARK    7  A    between atoms: C_15  and  C_16
REMARK    8  A    between atoms: C_19  and  C_21
REMARK                            x       y       z     vdW  Elec       q    Type
REMARK                         _______ _______ _______ _____ _____    ______ ____
ROOT
ATOM      1  N   UNL     1      -7.177   4.222   0.092  0.00  0.00    -0.185 NA
ATOM      2  C   UNL     1      -8.373   3.710   0.101  0.00  0.00    +0.176 C 
ENDROOT
BRANCH   2   3
ATOM      3  C   UNL     1      -9.545   4.588   0.116  0.00  0.00    +0.148 A 
ATOM      4  C   UNL     1     -10.861   4.180   0.121  0.00  0.00    +0.051 A 
ATOM      5  C   UNL     1     -11.644   5.342   0.140  0.00  0.00    +0.050 A 
ATOM      6  C   UNL     1     -10.787   6.403   0.136  0.00  0.00    +0.137 A 
ATOM      7  O   UNL     1      -9.524   5.936   0.122  0.00  0.00    -0.454 OA
BRANCH   6   8
ATOM      8  C   UNL     1     -11.180   7.826   0.146  0.00  0.00    +0.037 A 
ATOM      9  C   UNL     1     -10.608   8.704   1.069  0.00  0.00    +0.033 A 
ATOM     10  C   UNL     1     -10.979  10.034   1.073  0.00  0.00    +0.042 A 
ATOM     11  C   UNL     1     -11.916  10.497   0.164  0.00  0.00    +0.021 A 
ATOM     12  C   UNL     1     -12.486   9.633  -0.754  0.00  0.00    +0.022 A 
ATOM     13  C   UNL     1     -12.120   8.301  -0.772  0.00  0.00    +0.052 A 
ATOM     14 CL   UNL     1     -12.832   7.219  -1.928  0.00  0.00    -0.083 Cl
ATOM     15 CL   UNL     1     -10.270  11.128   2.219  0.00  0.00    -0.084 Cl
ENDBRANCH   6   8
ENDBRANCH   2   3
BRANCH   1  18
ATOM     16  C   UNL     1      -4.816   3.913   0.068  0.00  0.00    +0.270 C 
ATOM     17  O   UNL     1      -4.672   5.117   0.072  0.00  0.00    -0.270 OA
ATOM     18  N   UNL     1      -6.056   3.382   0.077  0.00  0.00    -0.204 N 
ATOM     19  H   UNL     1      -6.171   2.419   0.074  0.00  0.00    +0.177 HD
BRANCH  16  20
ATOM     20  C   UNL     1      -3.610   3.009   0.052  0.00  0.00    +0.326 C 
BRANCH  20  21
ATOM     21  O   UNL     1      -2.421   3.802   0.045  0.00  0.00    -0.483 OA
BRANCH  21  26
ATOM     22  C   UNL     1       2.490   1.045  -0.016  0.00  0.00    +0.044 C 
ATOM     23  C   UNL     1       1.176   1.783   0.000  0.00  0.00    -0.047 A 
ATOM     24  C   UNL     1      -0.013   1.076   0.008  0.00  0.00    +0.007 A 
ATOM     25  C   UNL     1      -1.218   1.750   0.017  0.00  0.00    +0.046 A 
ATOM     26  C   UNL     1      -1.236   3.137   0.030  0.00  0.00    +0.121 A 
ATOM     27  C   UNL     1      -0.043   3.844   0.022  0.00  0.00    +0.049 A 
ATOM     28  C   UNL     1       1.161   3.165   0.007  0.00  0.00    -0.044 A 
ATOM     29  C   UNL     1       2.457   3.933  -0.002  0.00  0.00    +0.044 C 
ENDBRANCH  21  26
ENDBRANCH  20  21
ENDBRANCH  16  20
ENDBRANCH   1  18
TORSDOF 6
