REMARK  Name = ZINC39670359
REMARK  5 active torsions:
REMARK  status: ('A' for Active; 'I' for Inactive)
REMARK    1  A    between atoms: C_1  and  C_2
REMARK    2  A    between atoms: C_7  and  C_11
REMARK    3  A    between atoms: C_11  and  N_12
REMARK    4  A    between atoms: C_13  and  C_15
REMARK    5  A    between atoms: C_26  and  C_28
REMARK                            x       y       z     vdW  Elec       q    Type
REMARK                         _______ _______ _______ _____ _____    ______ ____
ROOT
ATOM      1  C   UNL     1       2.596  -7.666   3.466  0.00  0.00    +0.100 C 
ATOM      2  C   UNL     1       3.582  -6.613   4.021  0.00  0.00    +0.121 C 
ATOM      3  N   UNL     1       3.800  -7.012   5.431  0.00  0.00    -0.296 N 
ATOM      4  C   UNL     1       3.864  -8.493   5.390  0.00  0.00    +0.115 C 
ATOM      5  C   UNL     1       2.787  -8.899   4.365  0.00  0.00    -0.004 C 
ATOM      6  C   UNL     1       3.267 -10.087   3.537  0.00  0.00    -0.010 C 
ATOM      7  C   UNL     1       3.393 -11.316   4.441  0.00  0.00    -0.082 C 
ATOM      8  N   UNL     1       2.092 -11.613   5.051  0.00  0.00    +0.379 N 
ATOM      9  C   UNL     1       1.681 -10.503   5.920  0.00  0.00    -0.082 C 
ATOM     10  C   UNL     1       1.482  -9.240   5.078  0.00  0.00    -0.010 C 
ATOM     11  C   UNL     1       3.915  -6.210   6.508  0.00  0.00    +0.249 C 
ATOM     12  O   UNL     1       4.186  -6.685   7.594  0.00  0.00    -0.270 OA
ATOM     13  H   UNL     1       1.403 -11.742   4.325  0.00  0.00    -0.086 HD
ATOM     14  H   UNL     1       2.163 -12.458   5.598  0.00  0.00    -0.086 HD
ENDROOT
BRANCH  11  15
ATOM     15  C   UNL     1       3.710  -4.754   6.370  0.00  0.00    +0.072 A 
ATOM     16  C   UNL     1       4.110  -4.097   5.204  0.00  0.00    +0.016 A 
ATOM     17  C   UNL     1       3.916  -2.738   5.081  0.00  0.00    +0.001 A 
ATOM     18  C   UNL     1       3.326  -2.022   6.109  0.00  0.00    +0.003 A 
ATOM     19  C   UNL     1       2.927  -2.663   7.266  0.00  0.00    +0.039 A 
ATOM     20  C   UNL     1       3.109  -4.027   7.402  0.00  0.00    +0.135 A 
ATOM     21  F   UNL     1       2.714  -4.655   8.532  0.00  0.00    -0.205 F 
ENDBRANCH  11  15
BRANCH   1  23
ATOM     22  N   UNL     1       0.247  -7.599   2.694  0.00  0.00    -0.309 N 
ATOM     23  C   UNL     1       1.180  -7.160   3.562  0.00  0.00    +0.219 C 
ATOM     24  O   UNL     1       0.879  -6.359   4.421  0.00  0.00    -0.275 OA
ATOM     25  H   UNL     1       0.487  -8.240   2.007  0.00  0.00    +0.149 HD
BRANCH  22  26
ATOM     26  C   UNL     1      -1.130  -7.107   2.788  0.00  0.00    +0.159 C 
BRANCH  26  33
ATOM     27  C   UNL     1      -4.946  -9.097  -3.221  0.00  0.00    +0.045 C 
ATOM     28  C   UNL     1      -4.335  -9.131  -1.843  0.00  0.00    -0.034 A 
ATOM     29  C   UNL     1      -4.551 -10.241  -1.010  0.00  0.00    +0.008 A 
ATOM     30  C   UNL     1      -3.997 -10.269   0.232  0.00  0.00    +0.045 A 
ATOM     31  C   UNL     1      -3.214  -9.179   0.663  0.00  0.00    +0.115 A 
ATOM     32  N   UNL     1      -2.567  -8.938   1.795  0.00  0.00    -0.342 N 
ATOM     33  C   UNL     1      -1.966  -7.748   1.710  0.00  0.00    +0.051 A 
ATOM     34  C   UNL     1      -2.234  -7.215   0.498  0.00  0.00    +0.115 A 
ATOM     35  N   UNL     1      -3.021  -8.110  -0.173  0.00  0.00    -0.308 N 
ATOM     36  C   UNL     1      -3.579  -8.098  -1.419  0.00  0.00    +0.096 A 
ATOM     37  H   UNL     1      -2.535  -9.530   2.562  0.00  0.00    +0.167 HD
ENDBRANCH  26  33
ENDBRANCH  22  26
ENDBRANCH   1  23
TORSDOF 4
