REMARK  Name = ZINC17420931
REMARK  0 active torsions:
REMARK  status: ('A' for Active; 'I' for Inactive)
REMARK                            x       y       z     vdW  Elec       q    Type
REMARK                         _______ _______ _______ _____ _____    ______ ____
ROOT
ATOM      1  C   UNL     1      -0.017   1.413   0.010  0.00  0.00    +0.018 A 
ATOM      2  C   UNL     1       1.163   2.088   0.002  0.00  0.00    +0.071 A 
ATOM      3  C   UNL     1       2.370   1.362  -0.013  0.00  0.00    +0.249 A 
ATOM      4  O   UNL     1       3.432   1.960  -0.015  0.00  0.00    -0.268 OA
ATOM      5  N   UNL     1       2.363   0.019  -0.025  0.00  0.00    -0.326 N 
ATOM      6  H   UNL     1       3.206  -0.460  -0.036  0.00  0.00    +0.169 HD
ATOM      7  C   UNL     1       1.207  -0.679  -0.020  0.00  0.00    +0.030 A 
ATOM      8  C   UNL     1       0.002  -0.004   0.002  0.00  0.00    +0.037 A 
ATOM      9  C   UNL     1      -1.267  -0.747   0.025  0.00  0.00    +0.165 C 
ATOM     10  O   UNL     1      -2.318  -0.185   0.254  0.00  0.00    -0.292 OA
ATOM     11  C   UNL     1      -1.218  -2.236  -0.248  0.00  0.00    +0.080 C 
ATOM     12  C   UNL     1      -0.010  -2.800   0.511  0.00  0.00    +0.014 C 
ATOM     13  C   UNL     1       1.269  -2.183  -0.046  0.00  0.00    +0.054 C 
ENDROOT
TORSDOF 0
