REMARK  Name = ZINC12896400
REMARK  15 active torsions:
REMARK  status: ('A' for Active; 'I' for Inactive)
REMARK    1  A    between atoms: C_1  and  N_2
REMARK    2  A    between atoms: N_2  and  C_3
REMARK    3  A    between atoms: C_3  and  C_4
REMARK    4  A    between atoms: C_4  and  C_6
REMARK    5  A    between atoms: C_4  and  O_17
REMARK    6  A    between atoms: C_6  and  C_8
REMARK    7  A    between atoms: C_6  and  O_16
REMARK    8  A    between atoms: C_8  and  C_10
REMARK    9  A    between atoms: C_8  and  O_15
REMARK   10  A    between atoms: C_10  and  C_12
REMARK   11  A    between atoms: C_10  and  O_14
REMARK   12  A    between atoms: C_12  and  O_13
REMARK   13  A    between atoms: C_18  and  C_20
REMARK   14  A    between atoms: C_20  and  O_21
REMARK   15  A    between atoms: O_21  and  C_22
REMARK                            x       y       z     vdW  Elec       q    Type
REMARK                         _______ _______ _______ _____ _____    ______ ____
ROOT
ATOM      1  C   UNL     1       0.962   0.419   2.584  0.00  0.00    +0.132 C 
ATOM      2  N   UNL     1      -0.242   1.246   2.466  0.00  0.00    -0.299 N 
ATOM      3  C   UNL     1      -0.718   1.572   1.248  0.00  0.00    +0.253 C 
ATOM      4  O   UNL     1      -1.714   2.256   1.150  0.00  0.00    -0.272 OA
ENDROOT
BRANCH   2   5
ATOM      5  C   UNL     1      -0.927   1.718   3.671  0.00  0.00    +0.141 C 
BRANCH   5   6
ATOM      6  C   UNL     1      -1.983   0.694   4.092  0.00  0.00    +0.163 C 
BRANCH   6   7
ATOM      7  O   UNL     1      -2.933   0.528   3.038  0.00  0.00    -0.388 OA
ATOM      8  H   UNL     1      -3.402   1.339   2.800  0.00  0.00    +0.210 HD
ENDBRANCH   6   7
BRANCH   6   9
ATOM      9  C   UNL     1      -2.699   1.187   5.351  0.00  0.00    +0.175 C 
BRANCH   9  10
ATOM     10  O   UNL     1      -3.233   2.491   5.115  0.00  0.00    -0.387 OA
ATOM     11  H   UNL     1      -3.872   2.530   4.390  0.00  0.00    +0.210 HD
ENDBRANCH   9  10
BRANCH   9  12
ATOM     12  C   UNL     1      -3.837   0.226   5.700  0.00  0.00    +0.176 C 
BRANCH  12  13
ATOM     13  O   UNL     1      -3.302  -1.078   5.937  0.00  0.00    -0.387 OA
ATOM     14  H   UNL     1      -2.664  -1.116   6.662  0.00  0.00    +0.210 HD
ENDBRANCH  12  13
BRANCH  12  15
ATOM     15  C   UNL     1      -4.553   0.719   6.959  0.00  0.00    +0.171 C 
BRANCH  15  16
ATOM     16  O   UNL     1      -5.087   2.023   6.723  0.00  0.00    -0.387 OA
ATOM     17  H   UNL     1      -5.726   2.061   5.998  0.00  0.00    +0.210 HD
ENDBRANCH  15  16
BRANCH  15  18
ATOM     18  C   UNL     1      -5.690  -0.242   7.309  0.00  0.00    +0.189 C 
BRANCH  18  19
ATOM     19  O   UNL     1      -6.284   0.153   8.547  0.00  0.00    -0.392 OA
ATOM     20  H   UNL     1      -7.015  -0.414   8.831  0.00  0.00    +0.210 HD
ENDBRANCH  18  19
ENDBRANCH  15  18
ENDBRANCH  12  15
ENDBRANCH   9  12
ENDBRANCH   6   9
ENDBRANCH   5   6
ENDBRANCH   2   5
BRANCH   3  21
ATOM     21  C   UNL     1      -0.013   1.086   0.008  0.00  0.00    +0.324 C 
BRANCH  21  22
ATOM     22  O   UNL     1      -0.704   1.559  -1.150  0.00  0.00    -0.483 OA
BRANCH  22  23
ATOM     23  C   UNL     1      -0.194   1.208  -2.359  0.00  0.00    +0.125 A 
ATOM     24  C   UNL     1       0.954   0.426  -2.424  0.00  0.00    +0.046 A 
ATOM     25  C   UNL     1       1.473   0.061  -3.646  0.00  0.00    +0.016 A 
ATOM     26  C   UNL     1       0.851   0.486  -4.820  0.00  0.00    +0.026 A 
ATOM     27  C   UNL     1       1.395   0.112  -6.139  0.00  0.00    -0.000 A 
ATOM     28  C   UNL     1       2.536  -0.670  -6.271  0.00  0.00    +0.009 A 
ATOM     29  C   UNL     1       3.001  -0.990  -7.531  0.00  0.00    +0.001 A 
ATOM     30  C   UNL     1       2.340  -0.538  -8.664  0.00  0.00    +0.001 A 
ATOM     31  C   UNL     1       1.206   0.238  -8.553  0.00  0.00    +0.015 A 
ATOM     32  C   UNL     1       0.721   0.572  -7.290  0.00  0.00    +0.067 A 
ATOM     33  C   UNL     1      -0.482   1.398  -7.116  0.00  0.00    +0.345 A 
ATOM     34  O   UNL     1      -1.082   1.807  -8.091  0.00  0.00    -0.245 OA
ATOM     35  O   UNL     1      -0.922   1.702  -5.884  0.00  0.00    -0.422 OA
ATOM     36  C   UNL     1      -0.304   1.280  -4.759  0.00  0.00    +0.143 A 
ATOM     37  C   UNL     1      -0.818   1.635  -3.518  0.00  0.00    +0.092 A 
ENDBRANCH  22  23
ENDBRANCH  21  22
ENDBRANCH   3  21
TORSDOF 14
