REMARK  Name = ZINC10154567
REMARK  11 active torsions:
REMARK  status: ('A' for Active; 'I' for Inactive)
REMARK    1  A    between atoms: C_1  and  S_2
REMARK    2  A    between atoms: S_2  and  C_3
REMARK    3  A    between atoms: C_6  and  C_12
REMARK    4  A    between atoms: C_8  and  N_9
REMARK    5  A    between atoms: C_12  and  C_14
REMARK    6  A    between atoms: C_19  and  C_20
REMARK    7  A    between atoms: C_20  and  O_22
REMARK    8  A    between atoms: O_22  and  C_23
REMARK    9  A    between atoms: C_23  and  C_24
REMARK   10  A    between atoms: N_26  and  C_27
REMARK   11  A    between atoms: C_28  and  C_32
REMARK                            x       y       z     vdW  Elec       q    Type
REMARK                         _______ _______ _______ _____ _____    ______ ____
ROOT
ATOM      1  C   UNL     1       3.687   1.926   0.019  0.00  0.00    +0.036 A 
ATOM      2  C   UNL     1       3.568   3.312   0.086  0.00  0.00    +0.012 A 
ATOM      3  C   UNL     1       4.702   4.103   0.093  0.00  0.00    +0.001 A 
ATOM      4  C   UNL     1       5.958   3.527   0.023  0.00  0.00    +0.001 A 
ATOM      5  C   UNL     1       6.095   2.153  -0.050  0.00  0.00    +0.016 A 
ATOM      6  C   UNL     1       4.965   1.340  -0.053  0.00  0.00    +0.070 A 
ENDROOT
BRANCH   1   7
ATOM      7  C   UNL     1       2.477   1.075   0.017  0.00  0.00    +0.194 C 
ATOM      8  O   UNL     1       1.807   0.973  -0.992  0.00  0.00    -0.287 OA
BRANCH   7  12
ATOM      9  C   UNL     1       1.348  -1.008   3.528  0.00  0.00    +0.038 A 
ATOM     10  C   UNL     1       2.541  -0.286   3.501  0.00  0.00    +0.017 A 
ATOM     11  C   UNL     1       2.907   0.386   2.370  0.00  0.00    +0.013 A 
ATOM     12  C   UNL     1       2.085   0.350   1.238  0.00  0.00    +0.024 A 
ATOM     13  C   UNL     1       0.889  -0.377   1.268  0.00  0.00    +0.045 A 
ATOM     14  C   UNL     1       0.525  -1.042   2.404  0.00  0.00    +0.140 A 
BRANCH  14  15
ATOM     15  N   UNL     1      -0.743  -1.806   2.439  0.00  0.00    +0.058 N 
ATOM     16  O   UNL     1      -1.461  -1.839   1.456  0.00  0.00    -0.126 OA
ATOM     17  O   UNL     1      -1.068  -2.400   3.451  0.00  0.00    -0.126 OA
ENDBRANCH  14  15
BRANCH   9  19
ATOM     18  C   UNL     1       2.228  -1.536   6.152  0.00  0.00    +0.090 C 
ATOM     19  S   UNL     1       0.878  -1.875   4.988  0.00  0.00    -0.126 S 
ENDBRANCH   9  19
ENDBRANCH   7  12
ENDBRANCH   1   7
BRANCH   6  20
ATOM     20  C   UNL     1       5.107  -0.129  -0.130  0.00  0.00    +0.340 C 
ATOM     21  O   UNL     1       4.120  -0.830  -0.238  0.00  0.00    -0.245 OA
BRANCH  20  22
ATOM     22  O   UNL     1       6.330  -0.692  -0.082  0.00  0.00    -0.452 OA
BRANCH  22  23
ATOM     23  C   UNL     1       6.393  -2.140  -0.163  0.00  0.00    +0.328 C 
BRANCH  23  24
ATOM     24  C   UNL     1       7.831  -2.585  -0.093  0.00  0.00    +0.255 C 
ATOM     25  O   UNL     1       8.716  -1.762   0.015  0.00  0.00    -0.272 OA
ATOM     26  N   UNL     1       8.134  -3.897  -0.151  0.00  0.00    -0.277 N 
ATOM     27  H   UNL     1       7.427  -4.555  -0.237  0.00  0.00    +0.155 HD
BRANCH  26  28
ATOM     28  C   UNL     1       9.458  -4.306  -0.086  0.00  0.00    +0.084 A 
ATOM     29  C   UNL     1       9.964  -5.600  -0.123  0.00  0.00    +0.065 A 
ATOM     30  C   UNL     1      11.399  -5.738  -0.041  0.00  0.00    +0.022 A 
ATOM     31  C   UNL     1      12.119  -4.608   0.075  0.00  0.00    +0.048 A 
ATOM     32  S   UNL     1      10.879  -3.329   0.067  0.00  0.00    -0.081 S 
BRANCH  29  33
ATOM     33  C   UNL     1       9.085  -6.767  -0.244  0.00  0.00    +0.244 C 
ATOM     34  O   UNL     1       7.879  -6.615  -0.314  0.00  0.00    -0.270 OA
ATOM     35  N   UNL     1       9.611  -8.007  -0.277  0.00  0.00    -0.325 N 
ATOM     36  H   UNL     1      10.572  -8.127  -0.220  0.00  0.00    +0.145 HD
ATOM     37  H   UNL     1       9.030  -8.779  -0.356  0.00  0.00    +0.145 HD
ENDBRANCH  29  33
ENDBRANCH  26  28
ENDBRANCH  23  24
ENDBRANCH  22  23
ENDBRANCH  20  22
ENDBRANCH   6  20
TORSDOF 10
