REMARK  Name = ZINC00528638
REMARK  4 active torsions:
REMARK  status: ('A' for Active; 'I' for Inactive)
REMARK    1  A    between atoms: C_1  and  N_2
REMARK    2  A    between atoms: C_6  and  C_7
REMARK    3  A    between atoms: N_8  and  N_9
REMARK    4  A    between atoms: C_10  and  C_12
REMARK                            x       y       z     vdW  Elec       q    Type
REMARK                         _______ _______ _______ _____ _____    ______ ____
ROOT
ATOM      1  N   UNL     1       0.059  -0.808   4.808  0.00  0.00    -0.204 N 
ATOM      2  C   UNL     1       0.081  -1.714   5.806  0.00  0.00    +0.276 C 
ATOM      3  O   UNL     1       0.094  -2.899   5.550  0.00  0.00    -0.270 OA
ATOM      4  H   UNL     1       0.048   0.140   5.013  0.00  0.00    +0.177 HD
ENDROOT
BRANCH   2   5
ATOM      5  C   UNL     1       0.088  -1.253   7.241  0.00  0.00    +0.297 C 
ATOM      6  C   UNL     1       1.396  -0.508   7.538  0.00  0.00    +0.283 C 
ATOM      7  O   UNL     1       1.376  -0.098   8.910  0.00  0.00    -0.484 OA
ATOM      8  C   UNL     1       0.988  -1.030   9.822  0.00  0.00    +0.162 A 
ATOM      9  C   UNL     1       1.284  -0.836  11.163  0.00  0.00    +0.049 A 
ATOM     10  C   UNL     1       0.893  -1.772  12.101  0.00  0.00    +0.004 A 
ATOM     11  C   UNL     1       0.207  -2.906  11.706  0.00  0.00    +0.004 A 
ATOM     12  C   UNL     1      -0.090  -3.106  10.371  0.00  0.00    +0.049 A 
ATOM     13  C   UNL     1       0.300  -2.171   9.424  0.00  0.00    +0.163 A 
ATOM     14  O   UNL     1       0.008  -2.386   8.112  0.00  0.00    -0.472 OA
ENDBRANCH   2   5
BRANCH   1  16
ATOM     15  C   UNL     1       0.031  -0.363   2.510  0.00  0.00    +0.156 C 
ATOM     16  N   UNL     1       0.052  -1.237   3.474  0.00  0.00    -0.186 NA
BRANCH  15  22
ATOM     17  C   UNL     1      -0.018   1.461   0.010  0.00  0.00    +0.149 C 
ATOM     18  N   UNL     1       0.002  -0.004   0.002  0.00  0.00    -0.349 N 
ATOM     19  C   UNL     1       0.008  -0.792  -1.109  0.00  0.00    +0.086 A 
ATOM     20  C   UNL     1       0.027  -2.088  -0.723  0.00  0.00    +0.020 A 
ATOM     21  C   UNL     1       0.034  -2.119   0.679  0.00  0.00    +0.029 A 
ATOM     22  C   UNL     1       0.024  -0.812   1.114  0.00  0.00    +0.061 A 
ENDBRANCH  15  22
ENDBRANCH   1  16
TORSDOF 3
