REMARK  Name = ZINC67271018
REMARK  4 active torsions:
REMARK  status: ('A' for Active; 'I' for Inactive)
REMARK    1  A    between atoms: C_2  and  C_3
REMARK    2  A    between atoms: C_3  and  N_4
REMARK    3  A    between atoms: N_4  and  C_5
REMARK    4  A    between atoms: C_11  and  C_13
REMARK                            x       y       z     vdW  Elec       q    Type
REMARK                         _______ _______ _______ _____ _____    ______ ____
ROOT
ATOM      1  C   UNL     1       1.420   1.794   2.517  0.00  0.00    +0.075 C 
ATOM      2  C   UNL     1       0.251   2.746   2.778  0.00  0.00    +0.015 C 
ATOM      3  C   UNL     1      -0.402   2.395   4.117  0.00  0.00    +0.036 C 
ATOM      4  C   UNL     1       0.628   2.511   5.235  0.00  0.00    +0.112 C 
ATOM      5  C   UNL     1       1.812   1.585   4.976  0.00  0.00    +0.036 C 
ATOM      6  C   UNL     1       2.457   1.940   3.633  0.00  0.00    +0.015 C 
ATOM      7  C   UNL     1       1.097   3.941   5.375  0.00  0.00    +0.244 C 
ATOM      8  O   UNL     1       1.666   4.612   4.541  0.00  0.00    -0.273 OA
ATOM      9  N   UNL     1       0.748   4.313   6.624  0.00  0.00    -0.238 N 
ATOM     10  C   UNL     1       0.132   3.322   7.280  0.00  0.00    +0.307 C 
ATOM     11  O   UNL     1      -0.276   3.418   8.421  0.00  0.00    -0.252 OA
ATOM     12  N   UNL     1       0.014   2.208   6.534  0.00  0.00    -0.285 N 
ATOM     13  H   UNL     1       0.923   5.190   7.001  0.00  0.00    +0.159 HD
ATOM     14  H   UNL     1      -0.396   1.370   6.801  0.00  0.00    +0.151 HD
ENDROOT
BRANCH   1  16
ATOM     15  N   UNL     1       1.441   1.792   0.044  0.00  0.00    -0.287 N 
ATOM     16  C   UNL     1       2.057   2.131   1.194  0.00  0.00    +0.220 C 
ATOM     17  O   UNL     1       3.123   2.708   1.163  0.00  0.00    -0.275 OA
BRANCH  15  18
ATOM     18  C   UNL     1       0.100   1.204   0.077  0.00  0.00    +0.077 C 
ATOM     19  C   UNL     1       0.159  -0.232  -0.447  0.00  0.00    +0.022 C 
ATOM     20  C   UNL     1      -1.242  -0.846  -0.412  0.00  0.00    +0.002 C 
ATOM     21  C   UNL     1      -2.183  -0.020  -1.292  0.00  0.00    +0.000 C 
ATOM     22  C   UNL     1      -2.242   1.416  -0.768  0.00  0.00    +0.002 C 
ATOM     23  C   UNL     1      -0.841   2.030  -0.803  0.00  0.00    +0.022 C 
ENDBRANCH  15  18
BRANCH  15  24
ATOM     24  C   UNL     1       2.114   2.010  -1.240  0.00  0.00    +0.197 C 
BRANCH  24  26
ATOM     25  C   UNL     1       1.704   4.500  -2.037  0.00  0.00    +0.005 C 
ATOM     26  C   UNL     1       1.886   3.395  -1.683  0.00  0.00    -0.086 C 
ENDBRANCH  24  26
ENDBRANCH  15  24
ENDBRANCH   1  16
TORSDOF 4
