REMARK  Name = ZINC31589784
REMARK  9 active torsions:
REMARK  status: ('A' for Active; 'I' for Inactive)
REMARK    1  A    between atoms: C_4  and  N_7
REMARK    2  A    between atoms: N_10  and  C_13
REMARK    3  A    between atoms: C_13  and  C_14
REMARK    4  A    between atoms: C_14  and  N_15
REMARK    5  A    between atoms: C_16  and  C_18
REMARK    6  A    between atoms: C_18  and  C_19
REMARK    7  A    between atoms: C_19  and  C_20
REMARK    8  A    between atoms: C_20  and  N_21
REMARK    9  A    between atoms: C_25  and  N_31
REMARK                            x       y       z     vdW  Elec       q    Type
REMARK                         _______ _______ _______ _____ _____    ______ ____
ROOT
ATOM      1  N   UNL     1      -4.437   8.558  -3.019  0.00  0.00    -0.317 N 
ATOM      2  C   UNL     1      -3.979   7.313  -2.784  0.00  0.00    +0.213 C 
ATOM      3  O   UNL     1      -3.717   6.577  -3.712  0.00  0.00    -0.276 OA
ATOM      4  H   UNL     1      -4.675   9.225  -2.178  0.00  0.00    +0.149 HD
ENDROOT
BRANCH   1   5
ATOM      5  C   UNL     1      -4.619   9.024  -4.397  0.00  0.00    +0.085 C 
BRANCH   5   6
ATOM      6  C   UNL     1      -5.145  10.460  -4.384  0.00  0.00    -0.060 C 
BRANCH   6  10
ATOM      7  N   UNL     1      -4.998  12.728  -7.946  0.00  0.00    -0.333 N 
ATOM      8  C   UNL     1      -6.289  12.618  -7.252  0.00  0.00    +0.086 C 
ATOM      9  C   UNL     1      -6.050  12.207  -5.798  0.00  0.00    -0.060 C 
ATOM     10  N   UNL     1      -5.327  10.927  -5.765  0.00  0.00    +0.383 N 
ATOM     11  C   UNL     1      -4.036  11.037  -6.458  0.00  0.00    -0.060 C 
ATOM     12  C   UNL     1      -4.275  11.448  -7.913  0.00  0.00    +0.086 C 
ATOM     13  H   UNL     1      -5.936  10.180  -6.296  0.00  0.00    -0.082 HD
BRANCH   7  17
ATOM     14  C   UNL     1      -5.514  14.050 -11.860  0.00  0.00    +0.000 A 
ATOM     15  C   UNL     1      -4.244  13.781 -11.385  0.00  0.00    +0.002 A 
ATOM     16  C   UNL     1      -4.069  13.342 -10.087  0.00  0.00    +0.023 A 
ATOM     17  C   UNL     1      -5.171  13.171  -9.259  0.00  0.00    +0.030 A 
ATOM     18  C   UNL     1      -6.446  13.437  -9.741  0.00  0.00    +0.023 A 
ATOM     19  C   UNL     1      -6.614  13.881 -11.038  0.00  0.00    +0.002 A 
ENDBRANCH   7  17
ENDBRANCH   6  10
ENDBRANCH   5   6
ENDBRANCH   1   5
BRANCH   2  20
ATOM     20  C   UNL     1      -3.792   6.834  -1.367  0.00  0.00    +0.097 C 
BRANCH  20  21
ATOM     21  C   UNL     1      -3.266   5.397  -1.380  0.00  0.00    +0.031 C 
BRANCH  21  22
ATOM     22  C   UNL     1      -3.076   4.911   0.058  0.00  0.00    +0.129 C 
BRANCH  22  23
ATOM     23  N   UNL     1      -2.573   3.536   0.046  0.00  0.00    -0.274 N 
ATOM     24  C   UNL     1      -1.233   3.148   0.031  0.00  0.00    +0.090 A 
ATOM     25  C   UNL     1      -0.039   3.851   0.023  0.00  0.00    +0.032 A 
ATOM     26  C   UNL     1       1.161   3.167   0.008  0.00  0.00    +0.035 A 
ATOM     27  C   UNL     1       1.174   1.784   0.000  0.00  0.00    +0.130 A 
ATOM     28  C   UNL     1      -0.013   1.076   0.008  0.00  0.00    +0.081 A 
ATOM     29  C   UNL     1      -1.222   1.753   0.017  0.00  0.00    +0.159 A 
ATOM     30  O   UNL     1      -2.513   1.340   0.034  0.00  0.00    -0.407 OA
ATOM     31  C   UNL     1      -3.319   2.413   0.048  0.00  0.00    +0.421 A 
ATOM     32  O   UNL     1      -4.534   2.378   0.060  0.00  0.00    -0.223 OA
BRANCH  27  33
ATOM     33  N   UNL     1       2.464   1.058  -0.016  0.00  0.00    +0.057 N 
ATOM     34  O   UNL     1       2.478  -0.160  -0.023  0.00  0.00    -0.126 OA
ATOM     35  O   UNL     1       3.511   1.679  -0.023  0.00  0.00    -0.126 OA
ENDBRANCH  27  33
ENDBRANCH  22  23
ENDBRANCH  21  22
ENDBRANCH  20  21
ENDBRANCH   2  20
TORSDOF 9
