REMARK  Name = ZINC25974933
REMARK  7 active torsions:
REMARK  status: ('A' for Active; 'I' for Inactive)
REMARK    1  A    between atoms: C_1  and  C_2
REMARK    2  A    between atoms: C_10  and  C_11
REMARK    3  A    between atoms: N_13  and  C_14
REMARK    4  A    between atoms: C_14  and  C_16
REMARK    5  A    between atoms: C_14  and  C_17
REMARK    6  A    between atoms: C_17  and  C_18
REMARK    7  A    between atoms: C_17  and  C_19
REMARK                            x       y       z     vdW  Elec       q    Type
REMARK                         _______ _______ _______ _____ _____    ______ ____
ROOT
ATOM      1  C   UNL     1      -0.232  -3.105  -0.012  0.00  0.00    +0.048 C 
ATOM      2  C   UNL     1      -1.364  -2.110   0.004  0.00  0.00    +0.008 A 
ATOM      3  C   UNL     1      -2.796  -2.408   0.016  0.00  0.00    +0.024 A 
ATOM      4  C   UNL     1      -3.546  -3.586   0.018  0.00  0.00    +0.012 A 
ATOM      5  C   UNL     1      -4.910  -3.521   0.032  0.00  0.00    +0.001 A 
ATOM      6  C   UNL     1      -5.555  -2.291   0.045  0.00  0.00    +0.004 A 
ATOM      7  C   UNL     1      -4.834  -1.117   0.044  0.00  0.00    +0.047 A 
ATOM      8  C   UNL     1      -3.444  -1.159   0.029  0.00  0.00    +0.136 A 
ATOM      9  O   UNL     1      -2.492  -0.205   0.031  0.00  0.00    -0.450 OA
ATOM     10  C   UNL     1      -1.261  -0.756   0.010  0.00  0.00    +0.193 A 
ENDROOT
BRANCH  10  11
ATOM     11  C   UNL     1       0.002  -0.004   0.002  0.00  0.00    +0.280 C 
ATOM     12  O   UNL     1       1.064  -0.598  -0.011  0.00  0.00    -0.267 OA
ATOM     13  N   UNL     1      -0.016   1.344   0.009  0.00  0.00    -0.306 N 
ATOM     14  H   UNL     1      -0.976   1.881   0.021  0.00  0.00    +0.149 HD
BRANCH  13  15
ATOM     15  C   UNL     1       1.242   2.093   0.001  0.00  0.00    +0.073 C 
ATOM     16  C   UNL     1       1.731   2.254  -1.440  0.00  0.00    +0.028 C 
BRANCH  15  17
ATOM     17  C   UNL     1       1.018   3.474   0.621  0.00  0.00    +0.003 C 
ATOM     18  C   UNL     1       0.529   3.313   2.062  0.00  0.00    +0.009 C 
ATOM     19  C   UNL     1       2.332   4.257   0.612  0.00  0.00    +0.009 C 
ENDBRANCH  15  17
ENDBRANCH  13  15
ENDBRANCH  10  11
TORSDOF 3
