REMARK  Name = ZINC13063092
REMARK  12 active torsions:
REMARK  status: ('A' for Active; 'I' for Inactive)
REMARK    1  A    between atoms: C_1  and  C_2
REMARK    2  A    between atoms: C_2  and  N_3
REMARK    3  A    between atoms: C_4  and  N_35
REMARK    4  A    between atoms: C_5  and  C_12
REMARK    5  A    between atoms: C_12  and  C_14
REMARK    6  A    between atoms: C_14  and  O_15
REMARK    7  A    between atoms: O_15  and  C_16
REMARK    8  A    between atoms: C_16  and  C_18
REMARK    9  A    between atoms: C_19  and  C_20
REMARK   10  A    between atoms: C_21  and  C_34
REMARK   11  A    between atoms: N_23  and  C_26
REMARK   12  A    between atoms: C_26  and  C_27
REMARK                            x       y       z     vdW  Elec       q    Type
REMARK                         _______ _______ _______ _____ _____    ______ ____
ROOT
ATOM      1  C   UNL     1       0.268  -3.586   7.998  0.00  0.00    +0.332 C 
ATOM      2  O   UNL     1       1.221  -3.042   8.524  0.00  0.00    -0.246 OA
ENDROOT
BRANCH   1   3
ATOM      3  C   UNL     1      -0.320  -4.722   8.601  0.00  0.00    +0.092 C 
ATOM      4  C   UNL     1       0.178  -5.205   9.762  0.00  0.00    +0.020 C 
BRANCH   4   5
ATOM      5  C   UNL     1      -0.432  -6.385  10.388  0.00  0.00    +0.034 A 
ATOM      6  C   UNL     1       0.246  -7.542  10.839  0.00  0.00    +0.069 A 
ATOM      7  N   UNL     1      -0.639  -8.360  11.337  0.00  0.00    -0.174 NA
ATOM      8  N   UNL     1      -1.909  -7.784  11.222  0.00  0.00    -0.248 N 
ATOM      9  C   UNL     1      -1.780  -6.578  10.642  0.00  0.00    +0.135 A 
ATOM     10 CL   UNL     1      -3.065  -5.468  10.280  0.00  0.00    -0.062 Cl
ATOM     11  C   UNL     1       1.731  -7.784  10.763  0.00  0.00    +0.068 C 
BRANCH   8  12
ATOM     12  C   UNL     1      -3.167  -8.392  11.661  0.00  0.00    +0.180 C 
BRANCH  12  13
ATOM     13  C   UNL     1      -3.756  -9.199  10.532  0.00  0.00    -0.026 A 
ATOM     14  C   UNL     1      -4.628  -8.605   9.640  0.00  0.00    +0.007 A 
ATOM     15  C   UNL     1      -5.164  -9.342   8.601  0.00  0.00    +0.020 A 
ATOM     16  C   UNL     1      -4.835 -10.679   8.461  0.00  0.00    +0.041 A 
ATOM     17  C   UNL     1      -3.966 -11.275   9.357  0.00  0.00    +0.020 A 
ATOM     18  C   UNL     1      -3.427 -10.534  10.392  0.00  0.00    +0.007 A 
ATOM     19 CL   UNL     1      -5.513 -11.608   7.160  0.00  0.00    -0.084 Cl
ENDBRANCH  12  13
ENDBRANCH   8  12
ENDBRANCH   4   5
ENDBRANCH   1   3
BRANCH   1  20
ATOM     20  O   UNL     1      -0.229  -3.104   6.839  0.00  0.00    -0.453 OA
BRANCH  20  21
ATOM     21  C   UNL     1       0.413  -1.953   6.286  0.00  0.00    +0.312 C 
BRANCH  21  22
ATOM     22  C   UNL     1      -0.273  -1.562   5.003  0.00  0.00    +0.209 C 
ATOM     23  O   UNL     1      -1.221  -2.207   4.601  0.00  0.00    -0.288 OA
BRANCH  22  26
ATOM     24  N   UNL     1      -0.026   1.091   2.456  0.00  0.00    -0.282 N 
ATOM     25  C   UNL     1      -0.511   0.011   3.137  0.00  0.00    +0.116 A 
ATOM     26  C   UNL     1       0.185  -0.448   4.269  0.00  0.00    +0.123 A 
ATOM     27  C   UNL     1       1.401   0.273   4.665  0.00  0.00    +0.266 A 
ATOM     28  O   UNL     1       2.042  -0.078   5.639  0.00  0.00    -0.267 OA
ATOM     29  N   UNL     1       1.794   1.332   3.928  0.00  0.00    -0.274 N 
ATOM     30  H   UNL     1       2.621   1.833   4.185  0.00  0.00    +0.173 HD
ATOM     31  C   UNL     1       1.090   1.722   2.853  0.00  0.00    +0.331 A 
ATOM     32  O   UNL     1       1.478   2.682   2.216  0.00  0.00    -0.246 OA
BRANCH  25  33
ATOM     33  N   UNL     1      -1.648  -0.613   2.724  0.00  0.00    -0.344 N 
ATOM     34  H   UNL     1      -1.924  -0.554   1.796  0.00  0.00    +0.144 HD
ATOM     35  H   UNL     1      -2.182  -1.117   3.358  0.00  0.00    +0.144 HD
ENDBRANCH  25  33
BRANCH  24  37
ATOM     36  C   UNL     1      -0.202   0.870   0.027  0.00  0.00    +0.027 C 
ATOM     37  C   UNL     1      -0.742   1.575   1.273  0.00  0.00    +0.125 C 
ENDBRANCH  24  37
ENDBRANCH  22  26
ENDBRANCH  21  22
ENDBRANCH  20  21
ENDBRANCH   1  20
TORSDOF 10
