REMARK  Name = ZINC37312919
REMARK  5 active torsions:
REMARK  status: ('A' for Active; 'I' for Inactive)
REMARK    1  A    between atoms: C_1  and  C_2
REMARK    2  A    between atoms: C_2  and  C_4
REMARK    3  A    between atoms: C_2  and  N_10
REMARK    4  A    between atoms: N_10  and  C_11
REMARK    5  A    between atoms: C_15  and  C_17
REMARK                            x       y       z     vdW  Elec       q    Type
REMARK                         _______ _______ _______ _____ _____    ______ ____
ROOT
ATOM      1  C   UNL     1       2.103  -0.604   1.173  0.00  0.00    +0.028 A 
ATOM      2  C   UNL     1       2.817  -0.252   0.033  0.00  0.00    +0.023 A 
ATOM      3  C   UNL     1       4.194  -0.363   0.013  0.00  0.00    +0.002 A 
ATOM      4  C   UNL     1       4.870  -0.824   1.125  0.00  0.00    +0.012 A 
ATOM      5  C   UNL     1       4.162  -1.181   2.274  0.00  0.00    +0.024 A 
ATOM      6  C   UNL     1       2.774  -1.063   2.296  0.00  0.00    +0.034 A 
ENDROOT
BRANCH   5   7
ATOM      7  C   UNL     1       4.885  -1.676   3.467  0.00  0.00    +0.207 A 
ATOM      8  N   UNL     1       4.345  -2.056   4.626  0.00  0.00    -0.106 NA
ATOM      9  N   UNL     1       5.309  -2.418   5.402  0.00  0.00    -0.021 NA
ATOM     10  N   UNL     1       6.428  -2.282   4.781  0.00  0.00    -0.021 NA
ATOM     11  N   UNL     1       6.204  -1.835   3.593  0.00  0.00    -0.106 NA
ENDBRANCH   5   7
BRANCH   1  12
ATOM     12  N   UNL     1       0.711  -0.489   1.189  0.00  0.00    -0.337 N 
ATOM     13  H   UNL     1       0.213  -0.731   1.986  0.00  0.00    +0.147 HD
BRANCH  12  15
ATOM     14  C   UNL     1      -0.019   1.526   0.010  0.00  0.00    +0.033 C 
ATOM     15  C   UNL     1       0.002  -0.004   0.002  0.00  0.00    +0.105 C 
BRANCH  15  16
ATOM     16  C   UNL     1      -1.412  -0.526   0.013  0.00  0.00    +0.024 A 
ATOM     17  C   UNL     1      -2.126  -1.077  -0.999  0.00  0.00    +0.030 A 
ATOM     18  C   UNL     1      -3.423  -1.490  -0.757  0.00  0.00    +0.023 A 
ATOM     19  C   UNL     1      -3.942  -1.332   0.486  0.00  0.00    +0.046 A 
ATOM     20  S   UNL     1      -2.578  -0.586   1.363  0.00  0.00    -0.099 S 
ATOM     21 BR   UNL     1      -1.361  -1.276  -2.717  0.00  0.00    -0.049 Br
ENDBRANCH  15  16
ENDBRANCH  12  15
ENDBRANCH   1  12
TORSDOF 4
