REMARK  Name = ZINC28290762
REMARK  10 active torsions:
REMARK  status: ('A' for Active; 'I' for Inactive)
REMARK    1  A    between atoms: C_1  and  C_2
REMARK    2  A    between atoms: C_5  and  C_8
REMARK    3  A    between atoms: C_8  and  C_10
REMARK    4  A    between atoms: C_8  and  N_26
REMARK    5  A    between atoms: C_10  and  N_11
REMARK    6  A    between atoms: C_12  and  C_14
REMARK    7  A    between atoms: C_15  and  C_25
REMARK    8  A    between atoms: C_19  and  C_23
REMARK    9  A    between atoms: N_26  and  C_27
REMARK   10  A    between atoms: N_26  and  C_28
REMARK                            x       y       z     vdW  Elec       q    Type
REMARK                         _______ _______ _______ _____ _____    ______ ____
ROOT
ATOM      1  N   UNL     1       5.701  -2.658   0.544  0.00  0.00    -0.310 N 
ATOM      2  C   UNL     1       4.378  -2.477   0.727  0.00  0.00    +0.280 C 
ATOM      3  O   UNL     1       3.619  -3.425   0.659  0.00  0.00    -0.267 OA
ATOM      4  H   UNL     1       6.388  -1.800   0.606  0.00  0.00    +0.149 HD
ENDROOT
BRANCH   2   5
ATOM      5  C   UNL     1       3.853  -1.133   1.008  0.00  0.00    +0.193 A 
ATOM      6  C   UNL     1       2.544  -0.832   1.208  0.00  0.00    +0.008 A 
ATOM      7  C   UNL     1       2.492   0.609   1.451  0.00  0.00    +0.025 A 
ATOM      8  C   UNL     1       1.462   1.514   1.719  0.00  0.00    +0.032 A 
ATOM      9  C   UNL     1       1.754   2.837   1.903  0.00  0.00    +0.045 A 
ATOM     10  C   UNL     1       3.067   3.285   1.826  0.00  0.00    -0.029 A 
ATOM     11  C   UNL     1       4.096   2.407   1.562  0.00  0.00    +0.051 A 
ATOM     12  C   UNL     1       3.823   1.057   1.372  0.00  0.00    +0.136 A 
ATOM     13  O   UNL     1       4.598  -0.013   1.107  0.00  0.00    -0.450 OA
ATOM     14  C   UNL     1       3.369   4.747   2.031  0.00  0.00    +0.045 C 
ATOM     15 CL   UNL     1       0.476   3.966   2.229  0.00  0.00    -0.083 Cl
ATOM     16  C   UNL     1       1.380  -1.790   1.186  0.00  0.00    +0.048 C 
ENDBRANCH   2   5
BRANCH   1  17
ATOM     17  C   UNL     1       6.225  -3.997   0.264  0.00  0.00    +0.094 C 
BRANCH  17  18
ATOM     18  C   UNL     1       7.724  -3.907  -0.028  0.00  0.00    -0.021 C 
BRANCH  18  23
ATOM     19  C   UNL     1       8.573  -0.763  -4.802  0.00  0.00    +0.044 C 
ATOM     20  C   UNL     1       8.351  -1.583  -3.557  0.00  0.00    -0.050 A 
ATOM     21  C   UNL     1       8.524  -1.009  -2.311  0.00  0.00    +0.003 A 
ATOM     22  C   UNL     1       8.321  -1.761  -1.169  0.00  0.00    +0.002 A 
ATOM     23  C   UNL     1       7.945  -3.087  -1.273  0.00  0.00    -0.059 A 
ATOM     24  C   UNL     1       7.777  -3.662  -2.519  0.00  0.00    +0.002 A 
ATOM     25  C   UNL     1       7.975  -2.909  -3.661  0.00  0.00    +0.003 A 
ENDBRANCH  18  23
BRANCH  18  26
ATOM     26  N   UNL     1       8.266  -5.258  -0.229  0.00  0.00    +0.382 N 
ATOM     27  C   UNL     1       9.716  -5.214  -0.462  0.00  0.00    -0.096 C 
ATOM     28  C   UNL     1       7.941  -6.130   0.907  0.00  0.00    -0.096 C 
ATOM     29  H   UNL     1       7.792  -5.682  -1.127  0.00  0.00    -0.082 HD
ENDBRANCH  18  26
ENDBRANCH  17  18
ENDBRANCH   1  17
TORSDOF 5
