REMARK  Name = ZINC00519818
REMARK  4 active torsions:
REMARK  status: ('A' for Active; 'I' for Inactive)
REMARK    1  A    between atoms: C_1  and  C_2
REMARK    2  A    between atoms: C_6  and  C_20
REMARK    3  A    between atoms: N_8  and  C_19
REMARK    4  A    between atoms: N_14  and  C_18
REMARK                            x       y       z     vdW  Elec       q    Type
REMARK                         _______ _______ _______ _____ _____    ______ ____
ROOT
ATOM      1  C   UNL     1      -0.019   1.516  -0.161  0.00  0.00    +0.028 C 
ATOM      2  C   UNL     1       0.002  -0.004   0.015  0.00  0.00    +0.080 C 
ATOM      3  C   UNL     1       0.688  -0.651  -1.188  0.00  0.00    +0.068 C 
ATOM      4  C   UNL     1       0.016  -0.226  -2.495  0.00  0.00    +0.082 C 
ATOM      5  N   UNL     1       0.797  -0.762  -3.615  0.00  0.00    -0.285 N 
ATOM      6  C   UNL     1       2.110  -1.013  -3.504  0.00  0.00    +0.304 C 
ATOM      7  O   UNL     1       2.696  -1.483  -4.460  0.00  0.00    -0.253 OA
ATOM      8  N   UNL     1       2.807  -0.766  -2.379  0.00  0.00    -0.280 N 
ATOM      9  C   UNL     1       2.151  -0.184  -1.211  0.00  0.00    +0.172 C 
ATOM     10  N   UNL     1       2.787  -0.583   0.042  0.00  0.00    -0.270 N 
ATOM     11  C   UNL     1       2.070  -0.628   1.179  0.00  0.00    +0.304 C 
ATOM     12  O   UNL     1       2.635  -0.935   2.211  0.00  0.00    -0.253 OA
ATOM     13  N   UNL     1       0.754  -0.349   1.226  0.00  0.00    -0.296 N 
ATOM     14  C   UNL     1       4.208  -0.936   0.059  0.00  0.00    +0.135 C 
ATOM     15  C   UNL     1       0.125  -1.030  -4.889  0.00  0.00    +0.134 C 
ATOM     16  C   UNL     1      -1.409  -0.780  -2.545  0.00  0.00    +0.028 C 
ATOM     17  H   UNL     1       3.750  -0.987  -2.337  0.00  0.00    +0.152 HD
ATOM     18  H   UNL     1       0.291  -0.377   2.078  0.00  0.00    +0.151 HD
ENDROOT
TORSDOF 0
