REMARK  Name = ZINC14074948
REMARK  10 active torsions:
REMARK  status: ('A' for Active; 'I' for Inactive)
REMARK    1  A    between atoms: C_1  and  C_2
REMARK    2  A    between atoms: C_2  and  O_3
REMARK    3  A    between atoms: O_3  and  C_4
REMARK    4  A    between atoms: C_4  and  C_6
REMARK    5  A    between atoms: C_10  and  N_11
REMARK    6  A    between atoms: C_12  and  C_14
REMARK    7  A    between atoms: C_14  and  C_16
REMARK    8  A    between atoms: C_14  and  S_17
REMARK    9  A    between atoms: S_17  and  C_18
REMARK   10  A    between atoms: C_26  and  C_30
REMARK                            x       y       z     vdW  Elec       q    Type
REMARK                         _______ _______ _______ _____ _____    ______ ____
ROOT
ATOM      1  N   UNL     1      -6.116   3.298   0.585  0.00  0.00    -0.278 N 
ATOM      2  C   UNL     1      -5.239   2.368   0.156  0.00  0.00    +0.231 C 
ATOM      3  O   UNL     1      -5.627   1.254  -0.127  0.00  0.00    -0.274 OA
ATOM      4  H   UNL     1      -5.765   4.308   0.842  0.00  0.00    +0.155 HD
ENDROOT
BRANCH   1   9
ATOM      5  C   UNL     1      -8.504   3.792   1.126  0.00  0.00    +0.091 A 
ATOM      6  C   UNL     1      -9.837   3.212   1.153  0.00  0.00    -0.021 A 
ATOM      7  C   UNL     1      -9.910   1.921   0.765  0.00  0.00    -0.004 A 
ATOM      8  S   UNL     1      -8.245   1.475   0.360  0.00  0.00    -0.077 S 
ATOM      9  C   UNL     1      -7.460   2.981   0.702  0.00  0.00    +0.086 A 
ATOM     10  C   UNL     1     -11.138   1.067   0.696  0.00  0.00    +0.046 C 
ATOM     11  C   UNL     1     -12.369   1.982   0.775  0.00  0.00    -0.009 C 
ATOM     12  C   UNL     1     -12.180   2.964   1.935  0.00  0.00    +0.008 C 
ATOM     13  C   UNL     1     -11.083   3.973   1.589  0.00  0.00    +0.037 C 
ATOM     14  C   UNL     1     -13.622   1.137   1.014  0.00  0.00    +0.008 C 
BRANCH   5  15
ATOM     15  C   UNL     1      -8.272   5.181   1.528  0.00  0.00    +0.342 C 
ATOM     16  O   UNL     1      -8.336   6.072   0.702  0.00  0.00    -0.245 OA
BRANCH  15  17
ATOM     17  O   UNL     1      -7.987   5.473   2.814  0.00  0.00    -0.461 OA
BRANCH  17  19
ATOM     18  C   UNL     1      -7.461   7.004   4.633  0.00  0.00    +0.048 C 
ATOM     19  C   UNL     1      -7.769   6.871   3.140  0.00  0.00    +0.229 C 
ENDBRANCH  17  19
ENDBRANCH  15  17
ENDBRANCH   5  15
ENDBRANCH   1   9
BRANCH   2  20
ATOM     20  C   UNL     1      -3.778   2.712   0.029  0.00  0.00    +0.137 C 
ATOM     21  C   UNL     1      -3.545   3.478  -1.275  0.00  0.00    +0.029 C 
BRANCH  20  22
ATOM     22  S   UNL     1      -2.796   1.187   0.019  0.00  0.00    -0.072 S 
BRANCH  22  23
ATOM     23  C   UNL     1      -1.128   1.754   0.016  0.00  0.00    +0.211 A 
ATOM     24  N   UNL     1      -0.011   0.966   0.007  0.00  0.00    -0.188 NA
ATOM     25  H   UNL     1       1.199   3.984   0.010  0.00  0.00    +0.192 HD
ATOM     26  C   UNL     1       1.083   1.784   0.001  0.00  0.00    +0.209 A 
ATOM     27  N   UNL     1       0.662   3.024   0.010  0.00  0.00    -0.246 N 
ATOM     28  N   UNL     1      -0.739   3.006   0.023  0.00  0.00    -0.144 NA
ATOM     29  N   UNL     1       2.410   1.372  -0.012  0.00  0.00    -0.328 N 
ATOM     30  H   UNL     1       3.217   2.119  -0.016  0.00  0.00    +0.145 HD
ATOM     31  H   UNL     1       2.653   0.299  -0.019  0.00  0.00    +0.145 HD
ENDBRANCH  22  23
ENDBRANCH  20  22
ENDBRANCH   2  20
TORSDOF 7
