REMARK  Name = ZINC65202978
REMARK  10 active torsions:
REMARK  status: ('A' for Active; 'I' for Inactive)
REMARK    1  A    between atoms: C_1  and  C_2
REMARK    2  A    between atoms: C_5  and  C_8
REMARK    3  A    between atoms: C_8  and  C_9
REMARK    4  A    between atoms: C_8  and  N_24
REMARK    5  A    between atoms: C_9  and  C_10
REMARK    6  A    between atoms: N_12  and  N_13
REMARK    7  A    between atoms: N_16  and  C_17
REMARK    8  A    between atoms: C_17  and  C_18
REMARK    9  A    between atoms: C_18  and  C_19
REMARK   10  A    between atoms: C_25  and  C_27
REMARK                            x       y       z     vdW  Elec       q    Type
REMARK                         _______ _______ _______ _____ _____    ______ ____
ROOT
ATOM      1  C   UNL     1       1.691  -6.137   0.128  0.00  0.00    +0.231 C 
ATOM      2  O   UNL     1       0.720  -6.844  -0.040  0.00  0.00    -0.274 OA
ATOM      3  N   UNL     1       2.911  -6.690   0.277  0.00  0.00    -0.233 N 
ATOM      4  H   UNL     1       3.687  -6.125   0.411  0.00  0.00    +0.173 HD
ENDROOT
BRANCH   3   5
ATOM      5  N   UNL     1       3.058  -8.083   0.236  0.00  0.00    -0.218 N 
ATOM      6  C   UNL     1       4.277  -8.637   0.385  0.00  0.00    +0.316 C 
ATOM      7  O   UNL     1       4.405  -9.845   0.350  0.00  0.00    -0.251 OA
ATOM      8  N   UNL     1       5.356  -7.851   0.572  0.00  0.00    -0.298 N 
ATOM      9  H   UNL     1       2.281  -8.649   0.102  0.00  0.00    +0.174 HD
ATOM     10  H   UNL     1       5.254  -6.886   0.600  0.00  0.00    +0.150 HD
BRANCH   8  11
ATOM     11  C   UNL     1       6.682  -8.452   0.734  0.00  0.00    +0.111 C 
BRANCH  11  12
ATOM     12  C   UNL     1       7.723  -7.348   0.929  0.00  0.00    +0.061 C 
BRANCH  12  13
ATOM     13  C   UNL     1       9.087  -7.967   1.095  0.00  0.00    -0.009 A 
ATOM     14  C   UNL     1      10.009  -8.267   0.148  0.00  0.00    +0.011 A 
ATOM     15  C   UNL     1      11.207  -8.837   0.536  0.00  0.00    +0.008 A 
ATOM     16  C   UNL     1      11.424  -9.079   1.852  0.00  0.00    +0.045 A 
ATOM     17  S   UNL     1       9.910  -8.488   2.591  0.00  0.00    -0.102 S 
ENDBRANCH  12  13
ENDBRANCH  11  12
ENDBRANCH   8  11
ENDBRANCH   3   5
BRANCH   1  18
ATOM     18  C   UNL     1       1.533  -4.639   0.171  0.00  0.00    +0.124 C 
BRANCH  18  19
ATOM     19  C   UNL     1       0.059  -4.275  -0.021  0.00  0.00    +0.112 C 
BRANCH  19  24
ATOM     20  C   UNL     1      -0.487   1.469  -0.327  0.00  0.00    +0.044 C 
ATOM     21  C   UNL     1      -0.345  -0.029  -0.247  0.00  0.00    -0.050 A 
ATOM     22  C   UNL     1      -0.390  -0.790  -1.401  0.00  0.00    +0.004 A 
ATOM     23  C   UNL     1      -0.259  -2.164  -1.327  0.00  0.00    +0.006 A 
ATOM     24  C   UNL     1      -0.082  -2.777  -0.101  0.00  0.00    -0.027 A 
ATOM     25  C   UNL     1      -0.036  -2.016   1.052  0.00  0.00    +0.006 A 
ATOM     26  C   UNL     1      -0.163  -0.641   0.978  0.00  0.00    +0.004 A 
ENDBRANCH  19  24
BRANCH  19  27
ATOM     27  N   UNL     1      -0.720  -4.780   1.112  0.00  0.00    -0.308 N 
ATOM     28  C   UNL     1      -2.038  -5.021   0.969  0.00  0.00    +0.210 C 
ATOM     29  O   UNL     1      -2.561  -4.907  -0.120  0.00  0.00    -0.276 OA
ATOM     30  C   UNL     1      -2.863  -5.432   2.161  0.00  0.00    +0.109 C 
ATOM     31  H   UNL     1      -0.287  -4.941   1.965  0.00  0.00    +0.149 HD
ENDBRANCH  19  27
ENDBRANCH  18  19
ENDBRANCH   1  18
TORSDOF 8
