REMARK  Name = ZINC39661155
REMARK  9 active torsions:
REMARK  status: ('A' for Active; 'I' for Inactive)
REMARK    1  A    between atoms: C_1  and  O_2
REMARK    2  A    between atoms: O_2  and  C_3
REMARK    3  A    between atoms: C_5  and  C_13
REMARK    4  A    between atoms: C_7  and  O_11
REMARK    5  A    between atoms: C_8  and  O_9
REMARK    6  A    between atoms: O_9  and  C_10
REMARK    7  A    between atoms: O_11  and  C_12
REMARK    8  A    between atoms: C_17  and  C_26
REMARK    9  A    between atoms: N_28  and  C_29
REMARK                            x       y       z     vdW  Elec       q    Type
REMARK                         _______ _______ _______ _____ _____    ______ ____
ROOT
ATOM      1  C   UNL     1      -4.860   0.239   0.040  0.00  0.00    +0.247 C 
ATOM      2  O   UNL     1      -4.819   1.449   0.153  0.00  0.00    -0.270 OA
ATOM      3  N   UNL     1      -6.049  -0.389  -0.055  0.00  0.00    -0.296 N 
ATOM      4  C   UNL     1      -6.306  -1.849  -0.068  0.00  0.00    +0.121 C 
ATOM      5  C   UNL     1      -7.587  -2.026   0.778  0.00  0.00    +0.100 C 
ATOM      6  C   UNL     1      -8.297  -0.664   0.705  0.00  0.00    -0.004 C 
ATOM      7  C   UNL     1      -7.394   0.224  -0.164  0.00  0.00    +0.115 C 
ATOM      8  C   UNL     1      -9.670  -0.818   0.057  0.00  0.00    -0.010 C 
ATOM      9  C   UNL     1     -10.380   0.539   0.049  0.00  0.00    -0.082 C 
ATOM     10  N   UNL     1     -10.519   1.029   1.425  0.00  0.00    +0.379 N 
ATOM     11  C   UNL     1      -9.193   1.262   2.010  0.00  0.00    -0.082 C 
ATOM     12  C   UNL     1      -8.433  -0.064   2.101  0.00  0.00    -0.010 C 
ATOM     13  H   UNL     1     -11.041   1.893   1.422  0.00  0.00    -0.086 HD
ATOM     14  H   UNL     1     -11.012   0.343   1.977  0.00  0.00    -0.086 HD
ENDROOT
BRANCH   1  17
ATOM     15  C   UNL     1      -2.405  -2.522  -0.642  0.00  0.00    +0.166 A 
ATOM     16  C   UNL     1      -3.579  -1.793  -0.612  0.00  0.00    +0.062 A 
ATOM     17  C   UNL     1      -3.608  -0.541   0.008  0.00  0.00    +0.044 A 
ATOM     18  C   UNL     1      -2.449  -0.030   0.596  0.00  0.00    +0.062 A 
ATOM     19  C   UNL     1      -1.277  -0.763   0.564  0.00  0.00    +0.166 A 
ATOM     20  C   UNL     1      -1.253  -2.012  -0.050  0.00  0.00    +0.204 A 
BRANCH  15  22
ATOM     21  C   UNL     1      -3.596  -4.202  -1.832  0.00  0.00    +0.277 C 
ATOM     22  O   UNL     1      -2.377  -3.741  -1.245  0.00  0.00    -0.491 OA
ENDBRANCH  15  22
BRANCH  20  23
ATOM     23  O   UNL     1      -0.101  -2.733  -0.076  0.00  0.00    -0.488 OA
ATOM     24  C   UNL     1       0.770  -2.524  -1.189  0.00  0.00    +0.277 C 
ENDBRANCH  20  23
BRANCH  19  25
ATOM     25  O   UNL     1      -0.148  -0.265   1.136  0.00  0.00    -0.491 OA
ATOM     26  C   UNL     1      -0.246   1.021   1.753  0.00  0.00    +0.277 C 
ENDBRANCH  19  25
ENDBRANCH   1  17
BRANCH   5  27
ATOM     27  C   UNL     1      -7.233  -2.361   2.204  0.00  0.00    +0.219 C 
ATOM     28  O   UNL     1      -6.245  -1.875   2.713  0.00  0.00    -0.275 OA
ATOM     29  N   UNL     1      -8.014  -3.199   2.914  0.00  0.00    -0.304 N 
ATOM     30  H   UNL     1      -8.804  -3.587   2.506  0.00  0.00    +0.149 HD
BRANCH  29  31
ATOM     31  C   UNL     1      -7.669  -3.524   4.300  0.00  0.00    +0.151 C 
ATOM     32  C   UNL     1      -8.947  -3.887   5.058  0.00  0.00    +0.042 C 
ATOM     33  C   UNL     1      -8.543  -4.756   6.273  0.00  0.00    +0.079 C 
ATOM     34  S   UNL     1      -7.034  -5.590   5.648  0.00  0.00    -0.086 S 
ATOM     35  C   UNL     1      -6.669  -4.655   4.305  0.00  0.00    +0.209 C 
ATOM     36  O   UNL     1      -5.780  -4.848   3.502  0.00  0.00    -0.283 OA
ENDBRANCH  29  31
ENDBRANCH   5  27
TORSDOF 6
