REMARK  Name = ZINC20729537
REMARK  8 active torsions:
REMARK  status: ('A' for Active; 'I' for Inactive)
REMARK    1  A    between atoms: C_1  and  C_2
REMARK    2  A    between atoms: C_18  and  C_20
REMARK    3  A    between atoms: C_24  and  O_30
REMARK    4  A    between atoms: C_25  and  O_26
REMARK    5  A    between atoms: O_26  and  C_27
REMARK    6  A    between atoms: C_27  and  C_28
REMARK    7  A    between atoms: C_27  and  C_29
REMARK    8  A    between atoms: O_30  and  C_31
REMARK                            x       y       z     vdW  Elec       q    Type
REMARK                         _______ _______ _______ _____ _____    ______ ____
ROOT
ATOM      1  C   UNL     1      -0.056   1.472   0.035  0.00  0.00    +0.068 C 
ATOM      2  C   UNL     1      -0.055  -0.035   0.011  0.00  0.00    +0.067 A 
ATOM      3  C   UNL     1      -0.144  -0.837  -1.148  0.00  0.00    +0.033 A 
ATOM      4  C   UNL     1      -0.109  -2.130  -0.758  0.00  0.00    +0.137 A 
ATOM      5  N   UNL     1      -0.003  -2.133   0.617  0.00  0.00    -0.183 N 
ATOM      6  N   UNL     1       0.034  -0.809   1.053  0.00  0.00    -0.167 NA
ATOM      7  C   UNL     1       0.060  -3.264   1.429  0.00  0.00    +0.253 A 
ATOM      8  N   UNL     1       0.035  -3.117   2.744  0.00  0.00    -0.219 NA
ATOM      9  C   UNL     1       0.094  -4.169   3.544  0.00  0.00    +0.116 A 
ATOM     10  C   UNL     1       0.183  -5.436   2.989  0.00  0.00    +0.039 A 
ATOM     11  C   UNL     1       0.207  -5.553   1.608  0.00  0.00    +0.116 A 
ATOM     12  N   UNL     1       0.139  -4.460   0.866  0.00  0.00    -0.219 NA
ATOM     13  N   UNL     1      -0.156  -3.304  -1.470  0.00  0.00    -0.269 N 
ATOM     14  C   UNL     1      -0.298  -3.612  -2.724  0.00  0.00    +0.228 C 
ATOM     15  O   UNL     1      -0.395  -4.800  -2.950  0.00  0.00    -0.275 OA
ATOM     16  C   UNL     1      -0.359  -2.745  -3.920  0.00  0.00    +0.166 C 
ATOM     17  S   UNL     1      -1.267  -1.219  -3.634  0.00  0.00    -0.138 S 
ATOM     18  C   UNL     1      -0.256  -0.243  -2.517  0.00  0.00    +0.115 C 
ATOM     19  H   UNL     1      -0.062  -4.085  -0.903  0.00  0.00    +0.156 HD
ENDROOT
BRANCH  18  20
ATOM     20  C   UNL     1      -0.857   1.134  -2.399  0.00  0.00    +0.015 A 
ATOM     21  C   UNL     1      -0.046   2.251  -2.481  0.00  0.00    +0.009 A 
ATOM     22  C   UNL     1      -0.594   3.516  -2.373  0.00  0.00    +0.004 A 
ATOM     23  C   UNL     1      -1.955   3.669  -2.183  0.00  0.00    +0.049 A 
ATOM     24  C   UNL     1      -2.772   2.554  -2.100  0.00  0.00    +0.162 A 
ATOM     25  C   UNL     1      -2.222   1.281  -2.215  0.00  0.00    +0.167 A 
BRANCH  24  26
ATOM     26  O   UNL     1      -4.111   2.703  -1.913  0.00  0.00    -0.491 OA
ATOM     27  C   UNL     1      -4.607   4.039  -1.809  0.00  0.00    +0.277 C 
ENDBRANCH  24  26
BRANCH  25  28
ATOM     28  O   UNL     1      -3.021   0.183  -2.140  0.00  0.00    -0.485 OA
BRANCH  28  29
ATOM     29  C   UNL     1      -3.236  -0.376  -0.842  0.00  0.00    +0.168 C 
ATOM     30  C   UNL     1      -4.464   0.275  -0.203  0.00  0.00    +0.051 C 
ATOM     31  C   UNL     1      -3.465  -1.883  -0.968  0.00  0.00    +0.051 C 
ENDBRANCH  28  29
ENDBRANCH  25  28
ENDBRANCH  18  20
TORSDOF 4
