REMARK  Name = ZINC39736967
REMARK  6 active torsions:
REMARK  status: ('A' for Active; 'I' for Inactive)
REMARK    1  A    between atoms: C_1  and  C_2
REMARK    2  A    between atoms: C_5  and  C_8
REMARK    3  A    between atoms: C_9  and  C_10
REMARK    4  A    between atoms: C_9  and  N_17
REMARK    5  A    between atoms: C_18  and  C_20
REMARK    6  A    between atoms: C_23  and  C_26
REMARK                            x       y       z     vdW  Elec       q    Type
REMARK                         _______ _______ _______ _____ _____    ______ ____
ROOT
ATOM      1  C   UNL     1       0.408  -4.206   0.022  0.00  0.00    +0.030 C 
ATOM      2  C   UNL     1       0.180  -4.920   1.129  0.00  0.00    +0.055 C 
ENDROOT
BRANCH   2   3
ATOM      3  C   UNL     1       0.110  -6.424   1.054  0.00  0.00    +0.254 C 
ATOM      4  N   UNL     1      -1.171  -6.910   1.601  0.00  0.00    -0.298 N 
ATOM      5  C   UNL     1      -0.819  -7.685   2.650  0.00  0.00    +0.152 C 
ATOM      6  N   UNL     1       0.536  -7.709   2.781  0.00  0.00    -0.221 N 
ATOM      7  N   UNL     1       1.124  -7.032   1.928  0.00  0.00    -0.190 NA
ATOM      8  S   UNL     1      -1.916  -8.517   3.667  0.00  0.00    -0.017 S 
ATOM      9  H   UNL     1      -2.065  -6.716   1.280  0.00  0.00    +0.150 HD
ATOM     10  H   UNL     1       0.996  -8.208   3.474  0.00  0.00    +0.176 HD
ENDBRANCH   2   3
BRANCH   1  15
ATOM     11  C   UNL     1       1.501   1.428   0.410  0.00  0.00    +0.044 C 
ATOM     12  C   UNL     1       1.215  -0.048   0.308  0.00  0.00    -0.050 A 
ATOM     13  C   UNL     1       1.154  -0.819   1.456  0.00  0.00    +0.004 A 
ATOM     14  C   UNL     1       0.892  -2.170   1.371  0.00  0.00    +0.008 A 
ATOM     15  C   UNL     1       0.688  -2.761   0.122  0.00  0.00    -0.023 A 
ATOM     16  C   UNL     1       0.751  -1.977  -1.033  0.00  0.00    +0.008 A 
ATOM     17  C   UNL     1       1.008  -0.626  -0.932  0.00  0.00    +0.004 A 
ENDBRANCH   1  15
BRANCH   2  18
ATOM     18  N   UNL     1       0.009  -4.278   2.345  0.00  0.00    -0.282 N 
ATOM     19  C   UNL     1       0.842  -4.543   3.370  0.00  0.00    +0.248 C 
ATOM     20  O   UNL     1       1.797  -5.278   3.204  0.00  0.00    -0.270 OA
ATOM     21  H   UNL     1      -0.711  -3.638   2.458  0.00  0.00    +0.155 HD
BRANCH  19  22
ATOM     22  C   UNL     1       0.596  -3.942   4.698  0.00  0.00    +0.037 A 
ATOM     23  C   UNL     1      -0.502  -3.103   4.894  0.00  0.00    +0.013 A 
ATOM     24  C   UNL     1      -0.727  -2.545   6.135  0.00  0.00    +0.004 A 
ATOM     25  C   UNL     1       0.134  -2.814   7.184  0.00  0.00    -0.050 A 
ATOM     26  C   UNL     1       1.225  -3.645   6.997  0.00  0.00    +0.004 A 
ATOM     27  C   UNL     1       1.457  -4.215   5.762  0.00  0.00    +0.013 A 
ATOM     28  C   UNL     1      -0.117  -2.200   8.537  0.00  0.00    +0.044 C 
ENDBRANCH  19  22
ENDBRANCH   2  18
TORSDOF 4
