REMARK  Name = ZINC08809505
REMARK  7 active torsions:
REMARK  status: ('A' for Active; 'I' for Inactive)
REMARK    1  A    between atoms: C_9  and  C_11
REMARK    2  A    between atoms: C_11  and  C_32
REMARK    3  A    between atoms: C_12  and  C_13
REMARK    4  A    between atoms: C_15  and  N_29
REMARK    5  A    between atoms: C_18  and  O_19
REMARK    6  A    between atoms: O_19  and  C_20
REMARK    7  A    between atoms: C_20  and  C_21
REMARK                            x       y       z     vdW  Elec       q    Type
REMARK                         _______ _______ _______ _____ _____    ______ ____
ROOT
ATOM      1  C   UNL     1       4.594   5.130  -0.098  0.00  0.00    +0.020 A 
ATOM      2  C   UNL     1       3.212   5.080   0.126  0.00  0.00    +0.044 A 
ATOM      3  C   UNL     1       2.476   6.244   0.138  0.00  0.00    +0.127 A 
ATOM      4  C   UNL     1       3.096   7.466  -0.070  0.00  0.00    +0.036 A 
ATOM      5  C   UNL     1       4.458   7.532  -0.291  0.00  0.00    +0.048 A 
ATOM      6  C   UNL     1       5.218   6.373  -0.303  0.00  0.00    +0.128 A 
ENDROOT
BRANCH   3   7
ATOM      7  N   UNL     1       1.016   6.190   0.374  0.00  0.00    +0.056 N 
ATOM      8  O   UNL     1       0.453   5.114   0.465  0.00  0.00    -0.126 OA
ATOM      9  O   UNL     1       0.378   7.222   0.479  0.00  0.00    -0.126 OA
ENDBRANCH   3   7
BRANCH   1  11
ATOM     10  C   UNL     1       4.945   2.812  -0.814  0.00  0.00    +0.095 C 
ATOM     11  C   UNL     1       5.385   3.897  -0.112  0.00  0.00    +0.034 C 
BRANCH  10  20
ATOM     12  C   UNL     1       0.266   2.720  -4.570  0.00  0.00    +0.002 A 
ATOM     13  C   UNL     1       0.298   4.090  -4.350  0.00  0.00    +0.002 A 
ATOM     14  C   UNL     1       1.236   4.642  -3.526  0.00  0.00    +0.030 A 
ATOM     15  C   UNL     1       2.174   3.822  -2.889  0.00  0.00    +0.089 A 
ATOM     16  C   UNL     1       2.138   2.433  -3.107  0.00  0.00    +0.066 A 
ATOM     17  C   UNL     1       1.177   1.891  -3.949  0.00  0.00    +0.028 A 
ATOM     18  N   UNL     1       3.168   1.897  -2.358  0.00  0.00    -0.337 N 
ATOM     19  H   UNL     1       3.414   0.930  -2.293  0.00  0.00    +0.167 HD
ATOM     20  C   UNL     1       3.788   2.939  -1.719  0.00  0.00    +0.150 A 
ATOM     21  N   UNL     1       3.198   4.068  -2.037  0.00  0.00    -0.227 NA
ENDBRANCH  10  20
BRANCH  10  22
ATOM     22  C   UNL     1       5.606   1.549  -0.670  0.00  0.00    +0.103 C 
ATOM     23  N   UNL     1       6.130   0.548  -0.556  0.00  0.00    -0.191 NA
ENDBRANCH  10  22
ENDBRANCH   1  11
BRANCH   6  24
ATOM     24  O   UNL     1       6.557   6.437  -0.516  0.00  0.00    -0.487 OA
BRANCH  24  25
ATOM     25  C   UNL     1       7.120   7.735  -0.717  0.00  0.00    +0.266 C 
BRANCH  25  26
ATOM     26  C   UNL     1       8.606   7.609  -0.936  0.00  0.00    +0.008 A 
ATOM     27  C   UNL     1       9.204   6.363  -0.919  0.00  0.00    +0.010 A 
ATOM     28  C   UNL     1      10.566   6.247  -1.120  0.00  0.00    +0.020 A 
ATOM     29  C   UNL     1      11.332   7.378  -1.338  0.00  0.00    +0.042 A 
ATOM     30  C   UNL     1      10.735   8.625  -1.355  0.00  0.00    +0.040 A 
ATOM     31  C   UNL     1       9.370   8.740  -1.159  0.00  0.00    +0.049 A 
ATOM     32 CL   UNL     1       8.618  10.305  -1.186  0.00  0.00    -0.083 Cl
ATOM     33 CL   UNL     1      13.044   7.232  -1.591  0.00  0.00    -0.083 Cl
ENDBRANCH  25  26
ENDBRANCH  24  25
ENDBRANCH   6  24
TORSDOF 7
