REMARK  Name = ZINC05487191
REMARK  13 active torsions:
REMARK  status: ('A' for Active; 'I' for Inactive)
REMARK    1  A    between atoms: C_1  and  N_2
REMARK    2  A    between atoms: C_3  and  O_5
REMARK    3  A    between atoms: O_5  and  C_6
REMARK    4  A    between atoms: C_6  and  C_7
REMARK    5  A    between atoms: C_10  and  N_27
REMARK    6  A    between atoms: C_17  and  O_22
REMARK    7  A    between atoms: O_22  and  C_23
REMARK    8  A    between atoms: N_25  and  C_26
REMARK    9  A    between atoms: N_27  and  C_28
REMARK   10  A    between atoms: C_28  and  C_29
REMARK   11  A    between atoms: C_29  and  N_58
REMARK   12  A    between atoms: C_30  and  N_58
REMARK   13  A    between atoms: C_31  and  N_58
REMARK                            x       y       z     vdW  Elec       q    Type
REMARK                         _______ _______ _______ _____ _____    ______ ____
ROOT
ATOM      1  C   UNL     1      -2.059  -4.599   0.014  0.00  0.00    +0.033 A 
ATOM      2  C   UNL     1      -0.775  -4.101  -0.085  0.00  0.00    +0.012 A 
ATOM      3  C   UNL     1      -0.540  -2.738  -0.067  0.00  0.00    +0.024 A 
ATOM      4  C   UNL     1      -1.600  -1.851   0.053  0.00  0.00    +0.042 A 
ATOM      5  C   UNL     1      -2.907  -2.350   0.160  0.00  0.00    +0.086 A 
ATOM      6  C   UNL     1      -3.140  -3.735   0.135  0.00  0.00    +0.147 A 
ATOM      7  O   UNL     1      -4.390  -4.230   0.232  0.00  0.00    -0.454 OA
ATOM      8  C   UNL     1      -5.491  -3.459   0.352  0.00  0.00    +0.140 A 
ATOM      9  C   UNL     1      -6.746  -4.052   0.447  0.00  0.00    +0.050 A 
ATOM     10  C   UNL     1      -7.874  -3.271   0.569  0.00  0.00    +0.050 A 
ATOM     11  C   UNL     1      -7.776  -1.883   0.600  0.00  0.00    +0.134 A 
ATOM     12  C   UNL     1      -6.539  -1.275   0.507  0.00  0.00    +0.061 A 
ATOM     13  C   UNL     1      -5.393  -2.060   0.383  0.00  0.00    +0.068 A 
ATOM     14  C   UNL     1      -4.056  -1.437   0.282  0.00  0.00    +0.202 A 
ATOM     15  O   UNL     1      -3.912  -0.228   0.303  0.00  0.00    -0.286 OA
ENDROOT
BRANCH   4  16
ATOM     16  N   UNL     1      -1.369  -0.482   0.071  0.00  0.00    -0.345 N 
ATOM     17  H   UNL     1      -2.117   0.136   0.066  0.00  0.00    +0.146 HD
BRANCH  16  18
ATOM     18  C   UNL     1       0.003   0.029   0.099  0.00  0.00    +0.083 C 
BRANCH  18  19
ATOM     19  C   UNL     1      -0.022   1.559   0.115  0.00  0.00    -0.061 C 
BRANCH  19  22
ATOM     20  C   UNL     1       2.061   1.748  -1.103  0.00  0.00    -0.097 C 
ATOM     21  C   UNL     1       1.372   3.518   0.397  0.00  0.00    -0.097 C 
ATOM     22  N   UNL     1       1.368   2.059   0.164  0.00  0.00    +0.377 N 
ATOM     23  H   UNL     1       1.861   1.596   0.937  0.00  0.00    -0.083 HD
ENDBRANCH  19  22
ENDBRANCH  18  19
ENDBRANCH  16  18
ENDBRANCH   4  16
BRANCH   1  24
ATOM     24  C   UNL     1      -2.289  -6.088  -0.009  0.00  0.00    +0.273 C 
BRANCH  24  25
ATOM     25  O   UNL     1      -1.015  -6.773  -0.142  0.00  0.00    -0.446 OA
BRANCH  25  28
ATOM     26  C   UNL     1       0.069 -10.279  -0.340  0.00  0.00    +0.131 C 
ATOM     27  N   UNL     1       0.102  -8.815  -0.300  0.00  0.00    -0.284 N 
ATOM     28  C   UNL     1      -1.045  -8.118  -0.178  0.00  0.00    +0.400 C 
ATOM     29  O   UNL     1      -2.107  -8.705  -0.101  0.00  0.00    -0.226 OA
ATOM     30  H   UNL     1       0.949  -8.347  -0.362  0.00  0.00    +0.152 HD
ENDBRANCH  25  28
ENDBRANCH  24  25
ENDBRANCH   1  24
BRANCH  11  31
ATOM     31  O   UNL     1      -8.899  -1.125   0.721  0.00  0.00    -0.412 OA
BRANCH  31  32
ATOM     32  C   UNL     1      -9.339  -0.503  -0.389  0.00  0.00    +0.405 C 
ATOM     33  O   UNL     1      -8.796  -0.708  -1.456  0.00  0.00    -0.226 OA
ATOM     34  N   UNL     1     -10.383   0.347  -0.316  0.00  0.00    -0.284 N 
ATOM     35  C   UNL     1     -10.862   1.024  -1.523  0.00  0.00    +0.131 C 
ATOM     36  H   UNL     1     -10.816   0.511   0.537  0.00  0.00    +0.152 HD
ENDBRANCH  31  32
ENDBRANCH  11  31
TORSDOF 9
