REMARK  Name = ZINC03830352
REMARK  11 active torsions:
REMARK  status: ('A' for Active; 'I' for Inactive)
REMARK    1  A    between atoms: C_1  and  C_2
REMARK    2  A    between atoms: C_2  and  N_3
REMARK    3  A    between atoms: N_6  and  C_7
REMARK    4  A    between atoms: C_7  and  C_8
REMARK    5  A    between atoms: C_8  and  C_9
REMARK    6  A    between atoms: C_9  and  N_10
REMARK    7  A    between atoms: N_10  and  C_11
REMARK    8  A    between atoms: N_10  and  C_12
REMARK    9  A    between atoms: C_13  and  C_15
REMARK   10  A    between atoms: N_33  and  C_35
REMARK   11  A    between atoms: C_35  and  C_36
REMARK                            x       y       z     vdW  Elec       q    Type
REMARK                         _______ _______ _______ _____ _____    ______ ____
ROOT
ATOM      1  C   UNL     1       1.901  -0.132   3.224  0.00  0.00    +0.060 C 
ATOM      2  C   UNL     1       2.331   0.285   1.815  0.00  0.00    +0.017 C 
ATOM      3  C   UNL     1       3.822  -0.014   1.634  0.00  0.00    +0.007 C 
ATOM      4  C   UNL     1       4.263   0.446   0.277  0.00  0.00    -0.036 A 
ATOM      5  C   UNL     1       3.535   0.505  -0.869  0.00  0.00    +0.004 A 
ATOM      6  C   UNL     1       4.116   0.959  -2.051  0.00  0.00    +0.002 A 
ATOM      7  C   UNL     1       5.436   1.375  -2.163  0.00  0.00    +0.026 A 
ATOM      8  C   UNL     1       6.210   1.328  -1.004  0.00  0.00    +0.047 A 
ATOM      9  C   UNL     1       5.590   0.869   0.163  0.00  0.00    +0.006 A 
ATOM     10  C   UNL     1       6.568   0.912   1.250  0.00  0.00    -0.024 A 
ATOM     11  C   UNL     1       7.685   1.368   0.704  0.00  0.00    +0.087 A 
ATOM     12  N   UNL     1       7.491   1.621  -0.646  0.00  0.00    -0.360 N 
ATOM     13  H   UNL     1       8.172   1.957  -1.250  0.00  0.00    +0.165 HD
ATOM     14  C   UNL     1       6.136   0.478   2.627  0.00  0.00    +0.022 C 
ATOM     15  C   UNL     1       4.621   0.704   2.723  0.00  0.00    -0.056 C 
ATOM     16  N   UNL     1       4.176   0.248   4.046  0.00  0.00    +0.385 N 
ATOM     17  C   UNL     1       2.766   0.602   4.252  0.00  0.00    -0.065 C 
ATOM     18  H   UNL     1       4.282  -0.754   4.108  0.00  0.00    -0.081 HD
ENDROOT
BRANCH   1  23
ATOM     19  N   UNL     1       2.494  -4.279   3.570  0.00  0.00    -0.299 N 
ATOM     20  C   UNL     1       1.571  -3.797   2.716  0.00  0.00    +0.309 C 
ATOM     21  O   UNL     1       0.956  -4.556   1.993  0.00  0.00    -0.252 OA
ATOM     22  N   UNL     1       1.328  -2.472   2.663  0.00  0.00    -0.226 N 
ATOM     23  C   UNL     1       2.080  -1.620   3.386  0.00  0.00    +0.224 C 
ATOM     24  O   UNL     1       2.901  -2.050   4.168  0.00  0.00    -0.275 OA
ATOM     25  H   UNL     1       3.047  -3.668   4.082  0.00  0.00    +0.150 HD
BRANCH  19  27
ATOM     26  C   UNL     1       3.769  -6.003   4.747  0.00  0.00    +0.024 C 
ATOM     27  C   UNL     1       2.664  -5.726   3.726  0.00  0.00    +0.102 C 
ENDBRANCH  19  27
BRANCH  22  28
ATOM     28  C   UNL     1       0.247  -1.958   1.818  0.00  0.00    +0.116 C 
BRANCH  28  29
ATOM     29  C   UNL     1      -1.046  -1.888   2.632  0.00  0.00    +0.001 C 
BRANCH  29  30
ATOM     30  C   UNL     1      -2.176  -1.351   1.749  0.00  0.00    -0.078 C 
BRANCH  30  31
ATOM     31  N   UNL     1      -3.418  -1.284   2.531  0.00  0.00    +0.376 N 
ATOM     32  C   UNL     1      -4.472  -0.658   1.722  0.00  0.00    -0.097 C 
ATOM     33  C   UNL     1      -3.832  -2.641   2.910  0.00  0.00    -0.097 C 
ATOM     34  H   UNL     1      -3.262  -0.735   3.363  0.00  0.00    -0.083 HD
ENDBRANCH  30  31
ENDBRANCH  29  30
ENDBRANCH  28  29
ENDBRANCH  22  28
ENDBRANCH   1  23
BRANCH  16  35
ATOM     35  C   UNL     1       4.996   0.888   5.083  0.00  0.00    -0.051 C 
BRANCH  35  36
ATOM     36  C   UNL     1       4.602   0.353   6.436  0.00  0.00    -0.053 C 
ATOM     37  C   UNL     1       5.509  -0.173   7.221  0.00  0.00    +0.002 C 
ENDBRANCH  35  36
ENDBRANCH  16  35
TORSDOF 8
