REMARK  Name = ZINC55100176
REMARK  7 active torsions:
REMARK  status: ('A' for Active; 'I' for Inactive)
REMARK    1  A    between atoms: C_4  and  O_7
REMARK    2  A    between atoms: O_7  and  C_8
REMARK    3  A    between atoms: C_8  and  C_9
REMARK    4  A    between atoms: C_9  and  O_10
REMARK    5  A    between atoms: O_10  and  C_11
REMARK    6  A    between atoms: C_16  and  N_17
REMARK    7  A    between atoms: C_18  and  C_20
REMARK                            x       y       z     vdW  Elec       q    Type
REMARK                         _______ _______ _______ _____ _____    ______ ____
ROOT
ATOM      1  C   UNL     1       6.904  -2.723   1.310  0.00  0.00    +0.142 A 
ATOM      2  C   UNL     1       7.511  -3.464   0.309  0.00  0.00    +0.047 A 
ATOM      3  C   UNL     1       8.814  -3.900   0.465  0.00  0.00    +0.004 A 
ATOM      4  C   UNL     1       9.515  -3.598   1.619  0.00  0.00    +0.002 A 
ATOM      5  C   UNL     1       8.916  -2.858   2.621  0.00  0.00    +0.027 A 
ATOM      6  C   UNL     1       7.611  -2.413   2.469  0.00  0.00    +0.076 A 
ENDROOT
BRANCH   6   7
ATOM      7  N   UNL     1       7.004  -1.659   3.482  0.00  0.00    -0.282 N 
ATOM      8  C   UNL     1       7.763  -0.947   4.339  0.00  0.00    +0.221 C 
ATOM      9  O   UNL     1       8.962  -0.878   4.173  0.00  0.00    -0.275 OA
ATOM     10  H   UNL     1       6.038  -1.649   3.566  0.00  0.00    +0.155 HD
BRANCH   8  11
ATOM     11  C   UNL     1       7.120  -0.237   5.503  0.00  0.00    +0.082 C 
ATOM     12  C   UNL     1       8.033   0.222   6.642  0.00  0.00    +0.020 C 
ATOM     13  C   UNL     1       7.092  -0.965   6.845  0.00  0.00    -0.021 C 
ATOM     14  C   UNL     1       7.709  -2.366   6.912  0.00  0.00    -0.012 C 
ATOM     15  C   UNL     1       6.596  -3.400   6.707  0.00  0.00    -0.082 C 
ATOM     16  N   UNL     1       5.544  -3.192   7.708  0.00  0.00    +0.379 N 
ATOM     17  C   UNL     1       4.878  -1.904   7.483  0.00  0.00    -0.082 C 
ATOM     18  C   UNL     1       5.867  -0.763   7.743  0.00  0.00    -0.012 C 
ATOM     19  H   UNL     1       4.865  -3.936   7.639  0.00  0.00    -0.086 HD
ATOM     20  H   UNL     1       5.953  -3.200   8.630  0.00  0.00    -0.086 HD
ENDBRANCH   8  11
ENDBRANCH   6   7
BRANCH   1  21
ATOM     21  O   UNL     1       5.623  -2.293   1.157  0.00  0.00    -0.487 OA
BRANCH  21  22
ATOM     22  C   UNL     1       4.960  -2.648  -0.058  0.00  0.00    +0.270 C 
BRANCH  22  23
ATOM     23  C   UNL     1       3.539  -2.081  -0.048  0.00  0.00    +0.270 C 
BRANCH  23  24
ATOM     24  O   UNL     1       3.596  -0.653  -0.051  0.00  0.00    -0.489 OA
BRANCH  24  28
ATOM     25  C   UNL     1      -0.002   1.366  -0.029  0.00  0.00    +0.000 A 
ATOM     26  C   UNL     1       1.186   2.073  -0.039  0.00  0.00    +0.004 A 
ATOM     27  C   UNL     1       2.393   1.399  -0.046  0.00  0.00    +0.045 A 
ATOM     28  C   UNL     1       2.411   0.012  -0.043  0.00  0.00    +0.121 A 
ATOM     29  C   UNL     1       1.218  -0.695  -0.033  0.00  0.00    +0.045 A 
ATOM     30  C   UNL     1       0.014  -0.017  -0.026  0.00  0.00    +0.004 A 
ENDBRANCH  24  28
ENDBRANCH  23  24
ENDBRANCH  22  23
ENDBRANCH  21  22
ENDBRANCH   1  21
TORSDOF 7
