REMARK  Name = ZINC39776532
REMARK  6 active torsions:
REMARK  status: ('A' for Active; 'I' for Inactive)
REMARK    1  A    between atoms: C_1  and  C_2
REMARK    2  A    between atoms: C_2  and  C_28
REMARK    3  A    between atoms: N_5  and  C_9
REMARK    4  A    between atoms: C_9  and  C_10
REMARK    5  A    between atoms: C_10  and  C_12
REMARK    6  A    between atoms: C_20  and  C_22
REMARK                            x       y       z     vdW  Elec       q    Type
REMARK                         _______ _______ _______ _____ _____    ______ ____
ROOT
ATOM      1  C   UNL     1       3.998  -0.950  -1.696  0.00  0.00    +0.180 C 
ATOM      2  O   UNL     1       3.959   0.182  -1.257  0.00  0.00    -0.291 OA
ENDROOT
BRANCH   1   3
ATOM      3  C   UNL     1       5.116  -1.379  -2.443  0.00  0.00    +0.032 C 
ATOM      4  C   UNL     1       5.313  -2.623  -3.014  0.00  0.00    +0.007 A 
ATOM      5  C   UNL     1       4.531  -3.802  -3.046  0.00  0.00    +0.010 A 
ATOM      6  C   UNL     1       4.981  -4.901  -3.693  0.00  0.00    +0.001 A 
ATOM      7  C   UNL     1       6.219  -4.932  -4.354  0.00  0.00    +0.002 A 
ATOM      8  C   UNL     1       7.041  -3.861  -4.383  0.00  0.00    +0.026 A 
ATOM      9  C   UNL     1       6.627  -2.623  -3.702  0.00  0.00    +0.044 A 
ATOM     10  N   UNL     1       7.210  -1.465  -3.573  0.00  0.00    -0.373 N 
ATOM     11  C   UNL     1       6.347  -0.572  -2.792  0.00  0.00    +0.144 C 
ATOM     12  H   UNL     1       8.076  -1.229  -3.938  0.00  0.00    +0.161 HD
BRANCH  11  13
ATOM     13  C   UNL     1       7.056  -0.138  -1.536  0.00  0.00    -0.021 A 
ATOM     14  C   UNL     1       7.884  -1.021  -0.869  0.00  0.00    +0.006 A 
ATOM     15  C   UNL     1       8.535  -0.623   0.284  0.00  0.00    +0.000 A 
ATOM     16  C   UNL     1       8.358   0.660   0.769  0.00  0.00    +0.000 A 
ATOM     17  C   UNL     1       7.532   1.544   0.101  0.00  0.00    +0.000 A 
ATOM     18  C   UNL     1       6.884   1.147  -1.054  0.00  0.00    +0.006 A 
ENDBRANCH  11  13
ENDBRANCH   1   3
BRANCH   1  19
ATOM     19  C   UNL     1       2.853  -1.896  -1.443  0.00  0.00    +0.197 C 
BRANCH  19  24
ATOM     20  C   UNL     1      -0.019   1.526   0.010  0.00  0.00    +0.050 C 
ATOM     21  C   UNL     1       0.002  -0.004   0.002  0.00  0.00    +0.168 C 
ATOM     22  C   UNL     1       0.799  -0.520  -1.180  0.00  0.00    +0.254 C 
ATOM     23  O   UNL     1       0.564  -0.342  -2.356  0.00  0.00    -0.272 OA
ATOM     24  N   UNL     1       1.824  -1.217  -0.651  0.00  0.00    -0.216 N 
ATOM     25  C   UNL     1       1.786  -1.214   0.686  0.00  0.00    +0.310 C 
ATOM     26  O   UNL     1       2.604  -1.776   1.387  0.00  0.00    -0.252 OA
ATOM     27  N   UNL     1       0.740  -0.519   1.169  0.00  0.00    -0.279 N 
ATOM     28  H   UNL     1       0.515  -0.383   2.102  0.00  0.00    +0.152 HD
BRANCH  21  29
ATOM     29  C   UNL     1      -1.402  -0.552  -0.021  0.00  0.00    +0.137 A 
ATOM     30  C   UNL     1      -2.157  -0.826   1.057  0.00  0.00    +0.047 A 
ATOM     31  C   UNL     1      -3.393  -1.317   0.577  0.00  0.00    +0.041 A 
ATOM     32  C   UNL     1      -3.319  -1.313  -0.766  0.00  0.00    +0.195 A 
ATOM     33  O   UNL     1      -2.113  -0.843  -1.123  0.00  0.00    -0.465 OA
ENDBRANCH  21  29
ENDBRANCH  19  24
ENDBRANCH   1  19
TORSDOF 5
