REMARK  Name = ZINC58827288
REMARK  8 active torsions:
REMARK  status: ('A' for Active; 'I' for Inactive)
REMARK    1  A    between atoms: C_3  and  N_8
REMARK    2  A    between atoms: N_11  and  C_12
REMARK    3  A    between atoms: C_12  and  C_14
REMARK    4  A    between atoms: C_12  and  C_16
REMARK    5  A    between atoms: C_14  and  O_15
REMARK    6  A    between atoms: C_16  and  C_18
REMARK    7  A    between atoms: C_16  and  O_27
REMARK    8  A    between atoms: C_21  and  N_24
REMARK                            x       y       z     vdW  Elec       q    Type
REMARK                         _______ _______ _______ _____ _____    ______ ____
ROOT
ATOM      1  C   UNK A   1       7.188   1.455   0.254  0.00  0.00    +0.133 C 
ENDROOT
BRANCH   1   5
ATOM      2  N   UNK A   0       3.584   2.127  -0.021  0.00  0.00    -0.269 N 
ATOM      3  C   UNK A   0       4.759   1.473   0.066  0.00  0.00    +0.304 C 
ATOM      4  O   UNK A   0       4.780   0.257   0.060  0.00  0.00    -0.252 OA
ATOM      5  N   UNK A   1       5.911   2.166   0.160  0.00  0.00    -0.291 N 
ATOM      6  H   UNK A   0       3.571   3.095  -0.084  0.00  0.00    +0.156 HD
ATOM      7  H   UNK A   1       5.894   3.136   0.165  0.00  0.00    +0.151 HD
BRANCH   2  10
ATOM      8  C   UNK A   0       0.070   1.231   0.593  0.00  0.00    +0.005 A 
ATOM      9  C   UNK A   0       1.256   1.940   0.595  0.00  0.00    +0.023 A 
ATOM     10  C   UNK A   0       2.382   1.410  -0.021  0.00  0.00    +0.037 A 
ATOM     11  C   UNK A   0       2.313   0.168  -0.637  0.00  0.00    +0.061 A 
ATOM     12  C   UNK A   0       1.124  -0.538  -0.635  0.00  0.00    +0.125 A 
ATOM     13  C   UNK A   0       0.003  -0.006  -0.020  0.00  0.00    +0.038 A 
ATOM     14  F   UNK A   0       1.055  -1.747  -1.234  0.00  0.00    -0.205 F 
ENDBRANCH   2  10
ENDBRANCH   1   5
BRANCH   1  15
ATOM     15  C   UNK A   1       7.461   1.088   1.714  0.00  0.00    +0.181 C 
BRANCH  15  16
ATOM     16  O   UNK A   1       7.635   2.282   2.481  0.00  0.00    -0.393 OA
ATOM     17  H   UNK A   1       7.812   2.125   3.418  0.00  0.00    +0.209 HD
ENDBRANCH  15  16
ENDBRANCH   1  15
BRANCH   1  18
ATOM     18  C   UNK A   1       8.312   2.354  -0.264  0.00  0.00    +0.167 C 
BRANCH  18  19
ATOM     19  C   UNK A   1       7.983   2.815  -1.661  0.00  0.00    -0.017 A 
ATOM     20  C   UNK A   1       7.189   3.931  -1.851  0.00  0.00    +0.008 A 
ATOM     21  C   UNK A   1       6.887   4.354  -3.132  0.00  0.00    +0.033 A 
ATOM     22  C   UNK A   1       7.379   3.661  -4.223  0.00  0.00    +0.126 A 
ATOM     23  C   UNK A   1       8.174   2.546  -4.032  0.00  0.00    +0.033 A 
ATOM     24  C   UNK A   1       8.479   2.126  -2.751  0.00  0.00    +0.008 A 
BRANCH  22  25
ATOM     25  N   UNK A   1       7.055   4.113  -5.595  0.00  0.00    +0.056 N 
ATOM     26  O   UNK A   1       6.360   5.088  -5.761  0.00  0.00    -0.126 OA
ATOM     27  O   UNK A   1       7.486   3.507  -6.548  0.00  0.00    -0.126 OA
ENDBRANCH  22  25
ENDBRANCH  18  19
BRANCH  18  28
ATOM     28  O   UNK A   1       8.447   3.490   0.593  0.00  0.00    -0.385 OA
ATOM     29  H   UNK A   1       7.651   4.035   0.652  0.00  0.00    +0.210 HD
ENDBRANCH  18  28
ENDBRANCH   1  18
TORSDOF 8
