REMARK  Name = ZINC28866550
REMARK  9 active torsions:
REMARK  status: ('A' for Active; 'I' for Inactive)
REMARK    1  A    between atoms: C_1  and  C_2
REMARK    2  A    between atoms: C_5  and  C_8
REMARK    3  A    between atoms: N_10  and  C_11
REMARK    4  A    between atoms: C_11  and  C_13
REMARK    5  A    between atoms: C_11  and  N_17
REMARK    6  A    between atoms: C_13  and  C_14
REMARK    7  A    between atoms: C_18  and  N_22
REMARK    8  A    between atoms: N_19  and  C_20
REMARK    9  A    between atoms: N_22  and  C_23
REMARK                            x       y       z     vdW  Elec       q    Type
REMARK                         _______ _______ _______ _____ _____    ______ ____
ROOT
ATOM      1  C   UNL     1       1.738   0.598   3.223  0.00  0.00    +0.206 C 
ENDROOT
BRANCH   1   4
ATOM      2  C   UNL     1       3.291   0.747   5.095  0.00  0.00    +0.246 C 
ATOM      3  O   UNL     1       2.360   1.077   5.803  0.00  0.00    -0.270 OA
ATOM      4  N   UNL     1       3.085   0.485   3.789  0.00  0.00    -0.289 N 
ATOM      5  H   UNL     1       3.927   0.186   3.148  0.00  0.00    +0.151 HD
BRANCH   2  10
ATOM      6  C   UNL     1       8.581   0.302   7.317  0.00  0.00    +0.044 C 
ATOM      7  C   UNL     1       7.196   0.418   6.735  0.00  0.00    -0.050 A 
ATOM      8  C   UNL     1       6.138   0.795   7.544  0.00  0.00    +0.004 A 
ATOM      9  C   UNL     1       4.868   0.904   7.018  0.00  0.00    +0.013 A 
ATOM     10  C   UNL     1       4.650   0.633   5.666  0.00  0.00    +0.037 A 
ATOM     11  C   UNL     1       5.721   0.248   4.856  0.00  0.00    +0.013 A 
ATOM     12  C   UNL     1       6.987   0.148   5.394  0.00  0.00    +0.004 A 
ENDBRANCH   2  10
ENDBRANCH   1   4
BRANCH   1  13
ATOM     13  C   UNL     1       1.807   1.342   1.888  0.00  0.00    +0.152 C 
ATOM     14  C   UNL     1       2.704   0.569   0.919  0.00  0.00    +0.049 C 
ATOM     15 CL   UNL     1       2.487   2.990   2.153  0.00  0.00    -0.097 Cl
ATOM     16 CL   UNL     1       0.149   1.480   1.192  0.00  0.00    -0.097 Cl
ENDBRANCH   1  13
BRANCH   1  17
ATOM     17  N   UNL     1       1.185  -0.742   3.008  0.00  0.00    -0.333 N 
ATOM     18  C   UNL     1       0.227  -1.229   3.853  0.00  0.00    +0.236 C 
ATOM     19  N   UNL     1      -0.155  -0.518   4.899  0.00  0.00    -0.136 NA
ATOM     20  H   UNL     1       1.540  -1.355   2.167  0.00  0.00    +0.164 HD
BRANCH  19  21
ATOM     21  C   UNL     1      -1.033  -1.040   5.789  0.00  0.00    +0.208 C 
ATOM     22  N   UNL     1      -1.769  -1.478   6.535  0.00  0.00    -0.169 NA
ENDBRANCH  19  21
BRANCH  18  23
ATOM     23  N   UNL     1      -0.335  -2.453   3.615  0.00  0.00    -0.211 NA
BRANCH  23  24
ATOM     24  C   UNL     1      -0.026  -3.149   2.441  0.00  0.00    +0.087 A 
ATOM     25  C   UNL     1       0.003  -4.541   2.432  0.00  0.00    +0.046 A 
ATOM     26  C   UNL     1       0.309  -5.185   1.244  0.00  0.00    +0.038 A 
ATOM     27  C   UNL     1       0.584  -4.430   0.118  0.00  0.00    +0.126 A 
ATOM     28  N   UNL     1       0.552  -3.112   0.161  0.00  0.00    -0.260 NA
ATOM     29  C   UNL     1       0.261  -2.461   1.270  0.00  0.00    +0.138 A 
ATOM     30 BR   UNL     1       0.360  -7.074   1.165  0.00  0.00    -0.049 Br
ENDBRANCH  23  24
ENDBRANCH  18  23
ENDBRANCH   1  17
TORSDOF 7
