REMARK  Name = ZINC08621626
REMARK  6 active torsions:
REMARK  status: ('A' for Active; 'I' for Inactive)
REMARK    1  A    between atoms: C_1  and  C_2
REMARK    2  A    between atoms: C_4  and  C_25
REMARK    3  A    between atoms: C_9  and  S_11
REMARK    4  A    between atoms: S_11  and  C_12
REMARK    5  A    between atoms: C_12  and  C_13
REMARK    6  A    between atoms: C_20  and  C_22
REMARK                            x       y       z     vdW  Elec       q    Type
REMARK                         _______ _______ _______ _____ _____    ______ ____
ROOT
ATOM      1  C   UNL     1      -1.074   8.020   0.054  0.00  0.00    +0.173 C 
ENDROOT
BRANCH   1   2
ATOM      2  C   UNL     1      -1.650   9.413   0.067  0.00  0.00    +0.229 C 
ATOM      3  O   UNL     1      -2.852   9.572   0.080  0.00  0.00    -0.275 OA
ATOM      4  N   UNL     1      -0.829  10.482   0.065  0.00  0.00    -0.269 N 
ATOM      5  C   UNL     1      -1.362  11.771   0.077  0.00  0.00    +0.144 A 
ATOM      6  C   UNL     1      -0.508  12.869   0.080  0.00  0.00    +0.082 A 
ATOM      7  C   UNL     1      -1.050  14.143   0.087  0.00  0.00    +0.045 A 
ATOM      8  C   UNL     1      -2.433  14.274   0.101  0.00  0.00    +0.063 A 
ATOM      9  C   UNL     1      -3.220  13.138   0.103  0.00  0.00    +0.059 A 
ATOM     10  N   UNL     1      -2.674  11.937   0.091  0.00  0.00    -0.234 NA
ATOM     11  C   UNL     1      -4.721  13.273   0.118  0.00  0.00    +0.067 C 
ATOM     12 CL   UNL     1      -3.165  15.848   0.116  0.00  0.00    -0.082 Cl
ATOM     13 CL   UNL     1       1.214  12.646   0.069  0.00  0.00    -0.080 Cl
ATOM     14  H   UNL     1       0.133  10.354   0.055  0.00  0.00    +0.156 HD
ENDBRANCH   1   2
BRANCH   1  15
ATOM     15  S   UNL     1      -2.424   6.808   0.061  0.00  0.00    -0.075 S 
BRANCH  15  24
ATOM     16  C   UNL     1       2.503   1.070  -0.017  0.00  0.00    +0.066 C 
ATOM     17  C   UNL     1       1.185   1.800   0.000  0.00  0.00    +0.044 A 
ATOM     18  C   UNL     1      -0.013   1.076   0.008  0.00  0.00    +0.046 A 
ATOM     19  C   UNL     1      -1.194   1.747   0.017  0.00  0.00    +0.045 A 
ATOM     20  N   UNL     1      -1.181   3.105   0.030  0.00  0.00    -0.200 N 
ATOM     21  C   UNL     1       0.006   3.783   0.022  0.00  0.00    +0.254 A 
ATOM     22  N   UNL     1       1.165   3.114   0.008  0.00  0.00    -0.216 NA
ATOM     23  N   UNL     1      -0.278   5.081   0.032  0.00  0.00    -0.183 NA
ATOM     24  C   UNL     1      -1.598   5.251   0.045  0.00  0.00    +0.211 A 
ATOM     25  N   UNL     1      -2.192   4.075   0.045  0.00  0.00    -0.137 NA
ATOM     26  C   UNL     1      -2.500   0.996   0.019  0.00  0.00    +0.066 C 
ENDBRANCH  15  24
ENDBRANCH   1  15
TORSDOF 3
