REMARK  Name = ZINC41023685
REMARK  5 active torsions:
REMARK  status: ('A' for Active; 'I' for Inactive)
REMARK    1  A    between atoms: C_1  and  C_2
REMARK    2  A    between atoms: C_6  and  C_20
REMARK    3  A    between atoms: C_8  and  S_11
REMARK    4  A    between atoms: S_11  and  C_12
REMARK    5  A    between atoms: C_16  and  N_18
REMARK                            x       y       z     vdW  Elec       q    Type
REMARK                         _______ _______ _______ _____ _____    ______ ____
ROOT
ATOM      1  C   UNL     1       2.305   0.294   4.032  0.00  0.00    +0.192 A 
ATOM      2  N   UNL     1       1.262   1.074   3.786  0.00  0.00    -0.207 NA
ATOM      3  C   UNL     1       0.671   1.751   4.768  0.00  0.00    +0.122 A 
ATOM      4  C   UNL     1       1.161   1.631   6.065  0.00  0.00    +0.086 A 
ATOM      5  C   UNL     1       2.258   0.803   6.285  0.00  0.00    +0.122 A 
ATOM      6  N   UNL     1       2.796   0.153   5.255  0.00  0.00    -0.207 NA
ATOM      7  N   UNL     1      -0.419   2.565   4.501  0.00  0.00    -0.343 N 
ATOM      8  H   UNL     1      -0.756   2.644   3.595  0.00  0.00    +0.144 HD
ATOM      9  H   UNL     1      -0.846   3.055   5.221  0.00  0.00    +0.144 HD
ENDROOT
BRANCH   5  10
ATOM     10  N   UNL     1       2.781   0.653   7.560  0.00  0.00    -0.343 N 
ATOM     11  H   UNL     1       2.382   1.128   8.306  0.00  0.00    +0.144 HD
ATOM     12  H   UNL     1       3.545   0.075   7.706  0.00  0.00    +0.144 HD
ENDBRANCH   5  10
BRANCH   1  13
ATOM     13  S   UNL     1       3.055  -0.582   2.700  0.00  0.00    -0.081 S 
BRANCH  13  19
ATOM     14  C   UNL     1      -0.477   0.909   0.165  0.00  0.00    +0.007 C 
ATOM     15  C   UNL     1      -0.275  -0.603   0.282  0.00  0.00    -0.013 C 
ATOM     16  C   UNL     1       0.380  -1.130  -0.997  0.00  0.00    +0.004 C 
ATOM     17  C   UNL     1       1.735  -0.447  -1.195  0.00  0.00    +0.020 C 
ATOM     18  C   UNL     1       2.638  -0.750   0.002  0.00  0.00    +0.105 C 
ATOM     19  C   UNL     1       1.984  -0.223   1.281  0.00  0.00    +0.071 C 
ATOM     20  C   UNL     1       0.629  -0.906   1.479  0.00  0.00    +0.019 C 
BRANCH  18  21
ATOM     21  C   UNL     1       3.942  -0.093  -0.188  0.00  0.00    +0.067 C 
ATOM     22  N   UNL     1       4.948   0.414  -0.335  0.00  0.00    -0.196 NA
ENDBRANCH  18  21
ENDBRANCH  13  19
ENDBRANCH   1  13
TORSDOF 4
