REMARK  Name = ZINC39674784
REMARK  7 active torsions:
REMARK  status: ('A' for Active; 'I' for Inactive)
REMARK    1  A    between atoms: C_1  and  C_2
REMARK    2  A    between atoms: C_4  and  C_14
REMARK    3  A    between atoms: C_7  and  C_12
REMARK    4  A    between atoms: C_14  and  C_15
REMARK    5  A    between atoms: C_15  and  N_16
REMARK    6  A    between atoms: C_17  and  C_19
REMARK    7  A    between atoms: C_30  and  C_32
REMARK                            x       y       z     vdW  Elec       q    Type
REMARK                         _______ _______ _______ _____ _____    ______ ____
ROOT
ATOM      1  C   UNL     1      -7.146  -0.796  -1.761  0.00  0.00    +0.100 C 
ATOM      2  C   UNL     1      -7.601   0.632  -2.138  0.00  0.00    +0.121 C 
ATOM      3  N   UNL     1      -9.055   0.506  -2.394  0.00  0.00    -0.296 N 
ATOM      4  C   UNL     1      -9.533  -0.434  -1.352  0.00  0.00    +0.115 C 
ATOM      5  C   UNL     1      -8.417  -1.492  -1.246  0.00  0.00    -0.004 C 
ATOM      6  C   UNL     1      -8.749  -2.699  -2.117  0.00  0.00    -0.010 C 
ATOM      7  C   UNL     1      -9.983  -3.408  -1.552  0.00  0.00    -0.082 C 
ATOM      8  N   UNL     1      -9.715  -3.833  -0.172  0.00  0.00    +0.379 N 
ATOM      9  C   UNL     1      -9.488  -2.660   0.679  0.00  0.00    -0.082 C 
ATOM     10  C   UNL     1      -8.233  -1.919   0.207  0.00  0.00    -0.010 C 
ATOM     11  C   UNL     1      -9.780   1.110  -3.357  0.00  0.00    +0.247 C 
ATOM     12  O   UNL     1      -9.223   1.772  -4.211  0.00  0.00    -0.270 OA
ATOM     13  H   UNL     1     -10.507  -4.353   0.177  0.00  0.00    -0.086 HD
ATOM     14  H   UNL     1      -8.896  -4.422  -0.157  0.00  0.00    -0.086 HD
ENDROOT
BRANCH  11  15
ATOM     15  C   UNL     1     -11.254   0.968  -3.374  0.00  0.00    +0.040 A 
ATOM     16  C   UNL     1     -11.952   0.586  -2.224  0.00  0.00    +0.033 A 
ATOM     17  C   UNL     1     -13.327   0.465  -2.285  0.00  0.00    +0.111 A 
ATOM     18  N   UNL     1     -13.979   0.704  -3.405  0.00  0.00    -0.263 NA
ATOM     19  C   UNL     1     -13.360   1.067  -4.511  0.00  0.00    +0.111 A 
ATOM     20  C   UNL     1     -11.986   1.217  -4.538  0.00  0.00    +0.033 A 
ENDBRANCH  11  15
BRANCH   1  22
ATOM     21  N   UNL     1      -5.175  -1.720  -0.587  0.00  0.00    -0.315 N 
ATOM     22  C   UNL     1      -6.100  -0.744  -0.678  0.00  0.00    +0.218 C 
ATOM     23  O   UNL     1      -6.090   0.175   0.113  0.00  0.00    -0.275 OA
ATOM     24  H   UNL     1      -5.183  -2.456  -1.220  0.00  0.00    +0.149 HD
BRANCH  21  25
ATOM     25  C   UNL     1      -4.158  -1.670   0.466  0.00  0.00    +0.108 C 
BRANCH  25  26
ATOM     26  C   UNL     1      -3.239  -2.888   0.345  0.00  0.00    +0.052 C 
BRANCH  26  29
ATOM     27  C   UNL     1      -0.169  -3.921   0.454  0.00  0.00    +0.035 C 
ATOM     28  C   UNL     1      -1.088  -3.839   1.675  0.00  0.00    +0.103 C 
ATOM     29  C   UNL     1      -2.192  -2.836   1.429  0.00  0.00    -0.037 C 
ATOM     30  C   UNL     1      -2.050  -1.880   2.382  0.00  0.00    +0.000 A 
ATOM     31  C   UNL     1      -2.787  -0.697   2.653  0.00  0.00    +0.028 A 
ATOM     32  C   UNL     1      -2.424   0.116   3.702  0.00  0.00    +0.052 A 
ATOM     33  C   UNL     1      -1.287  -0.210   4.556  0.00  0.00    +0.021 A 
ATOM     34  C   UNL     1      -0.551  -1.321   4.345  0.00  0.00    +0.027 A 
ATOM     35  C   UNL     1      -0.894  -2.222   3.239  0.00  0.00    +0.043 A 
ATOM     36  N   UNL     1      -0.343  -3.343   2.837  0.00  0.00    -0.378 N 
ATOM     37  H   UNL     1       0.428  -3.772   3.239  0.00  0.00    +0.160 HD
BRANCH  32  38
ATOM     38  C   UNL     1      -3.178   1.305   3.962  0.00  0.00    +0.099 C 
ATOM     39  N   UNL     1      -3.776   2.249   4.168  0.00  0.00    -0.191 NA
ENDBRANCH  32  38
ENDBRANCH  26  29
ENDBRANCH  25  26
ENDBRANCH  21  25
ENDBRANCH   1  22
TORSDOF 6
