REMARK  Name = ZINC22240375
REMARK  6 active torsions:
REMARK  status: ('A' for Active; 'I' for Inactive)
REMARK    1  A    between atoms: C_4  and  C_7
REMARK    2  A    between atoms: N_9  and  N_33
REMARK    3  A    between atoms: C_10  and  S_12
REMARK    4  A    between atoms: S_12  and  C_13
REMARK    5  A    between atoms: C_13  and  C_14
REMARK    6  A    between atoms: C_27  and  C_29
REMARK                            x       y       z     vdW  Elec       q    Type
REMARK                         _______ _______ _______ _____ _____    ______ ____
ROOT
ATOM      1  C   UNL     1       1.822  -1.517   0.609  0.00  0.00    +0.231 C 
ATOM      2  O   UNL     1       1.717  -2.045  -0.478  0.00  0.00    -0.274 OA
ATOM      3  N   UNL     1       1.013  -0.492   0.942  0.00  0.00    -0.257 N 
ATOM      4  C   UNL     1       1.122   0.128   2.193  0.00  0.00    +0.058 A 
ATOM      5  C   UNL     1       0.690  -0.517   3.341  0.00  0.00    +0.025 A 
ATOM      6  C   UNL     1       0.780   0.120   4.564  0.00  0.00    +0.002 A 
ATOM      7  C   UNL     1       1.300   1.399   4.648  0.00  0.00    +0.002 A 
ATOM      8  C   UNL     1       1.742   2.047   3.509  0.00  0.00    +0.025 A 
ATOM      9  C   UNL     1       1.666   1.410   2.281  0.00  0.00    +0.055 A 
ATOM     10  N   UNL     1       2.144   2.027   1.119  0.00  0.00    -0.284 N 
ATOM     11  C   UNL     1       1.388   2.063  -0.000  0.00  0.00    +0.219 C 
ATOM     12  O   UNL     1       1.845   2.532  -1.021  0.00  0.00    -0.275 OA
ATOM     13  C   UNL     1      -0.019   1.526   0.010  0.00  0.00    +0.128 C 
ATOM     14  C   UNL     1       0.002  -0.004   0.002  0.00  0.00    +0.194 C 
ATOM     15  H   UNL     1       3.143   2.488   1.113  0.00  0.00    +0.155 HD
ENDROOT
BRANCH  14  16
ATOM     16  C   UNL     1      -1.373  -0.533   0.414  0.00  0.00    +0.409 C 
ATOM     17  F   UNL     1      -2.339  -0.075  -0.488  0.00  0.00    -0.169 F 
ATOM     18  F   UNL     1      -1.355  -1.932   0.407  0.00  0.00    -0.169 F 
ATOM     19  F   UNL     1      -1.682  -0.078   1.700  0.00  0.00    -0.169 F 
ENDBRANCH  14  16
BRANCH   1  20
ATOM     20  C   UNL     1       2.857  -2.008   1.588  0.00  0.00    +0.173 C 
BRANCH  20  21
ATOM     21  S   UNL     1       3.779  -3.382   0.854  0.00  0.00    -0.077 S 
BRANCH  21  25
ATOM     22  C   UNL     1       5.908  -3.677   4.092  0.00  0.00    +0.092 A 
ATOM     23  C   UNL     1       6.479  -4.679   3.380  0.00  0.00    +0.138 A 
ATOM     24  N   UNL     1       5.831  -4.729   2.170  0.00  0.00    -0.251 N 
ATOM     25  C   UNL     1       4.886  -3.748   2.175  0.00  0.00    +0.187 A 
ATOM     26  N   UNL     1       4.934  -3.123   3.327  0.00  0.00    -0.221 NA
BRANCH  22  30
ATOM     27  C   UNL     1       6.981  -2.479   8.028  0.00  0.00    +0.000 A 
ATOM     28  C   UNL     1       5.962  -1.822   7.362  0.00  0.00    +0.001 A 
ATOM     29  C   UNL     1       5.610  -2.207   6.084  0.00  0.00    +0.010 A 
ATOM     30  C   UNL     1       6.282  -3.259   5.465  0.00  0.00    +0.002 A 
ATOM     31  C   UNL     1       7.304  -3.921   6.144  0.00  0.00    +0.010 A 
ATOM     32  C   UNL     1       7.652  -3.524   7.419  0.00  0.00    +0.001 A 
ENDBRANCH  22  30
BRANCH  24  33
ATOM     33  N   UNL     1       6.088  -5.599   1.149  0.00  0.00    -0.296 N 
ATOM     34  H   UNL     1       5.502  -5.545   0.219  0.00  0.00    +0.163 HD
ATOM     35  H   UNL     1       6.881  -6.354   1.256  0.00  0.00    +0.163 HD
ENDBRANCH  24  33
ENDBRANCH  21  25
ENDBRANCH  20  21
ENDBRANCH   1  20
TORSDOF 6
