REMARK  Name = ZINC59350269
REMARK  18 active torsions:
REMARK  status: ('A' for Active; 'I' for Inactive)
REMARK    1  A    between atoms: C_1  and  C_2
REMARK    2  A    between atoms: C_2  and  C_3
REMARK    3  A    between atoms: C_3  and  C_4
REMARK    4  A    between atoms: C_4  and  C_5
REMARK    5  A    between atoms: C_5  and  N_6
REMARK    6  A    between atoms: N_6  and  C_7
REMARK    7  A    between atoms: N_6  and  C_32
REMARK    8  A    between atoms: C_7  and  C_8
REMARK    9  A    between atoms: N_10  and  C_11
REMARK   10  A    between atoms: N_10  and  C_15
REMARK   11  A    between atoms: C_11  and  C_12
REMARK   12  A    between atoms: C_12  and  O_13
REMARK   13  A    between atoms: O_13  and  C_14
REMARK   14  A    between atoms: C_16  and  N_31
REMARK   15  A    between atoms: N_17  and  C_24
REMARK   16  A    between atoms: C_24  and  C_25
REMARK   17  A    between atoms: C_32  and  C_33
REMARK   18  A    between atoms: C_32  and  C_34
REMARK                            x       y       z     vdW  Elec       q    Type
REMARK                         _______ _______ _______ _____ _____    ______ ____
ROOT
ATOM      1  C   UNL     1       1.879  -8.194  -5.109  0.00  0.00    +0.140 A 
ATOM      2  C   UNL     1       1.737  -9.180  -4.155  0.00  0.00    +0.128 A 
ATOM      3  N   UNL     1       1.433 -10.461  -4.553  0.00  0.00    -0.276 N 
ATOM      4  C   UNL     1       1.275 -10.748  -5.858  0.00  0.00    +0.331 A 
ATOM      5  O   UNL     1       1.006 -11.887  -6.190  0.00  0.00    -0.246 OA
ATOM      6  N   UNL     1       1.409  -9.800  -6.802  0.00  0.00    -0.273 N 
ATOM      7  H   UNL     1       1.291 -10.033  -7.736  0.00  0.00    +0.173 HD
ATOM      8  C   UNL     1       1.702  -8.529  -6.465  0.00  0.00    +0.277 A 
ATOM      9  O   UNL     1       1.818  -7.676  -7.328  0.00  0.00    -0.266 OA
ENDROOT
BRANCH   1  12
ATOM     10  C   UNL     1       1.313  -6.152  -4.001  0.00  0.00    +0.203 C 
ATOM     11  O   UNL     1       0.297  -6.673  -3.589  0.00  0.00    -0.277 OA
ATOM     12  N   UNL     1       2.191  -6.870  -4.732  0.00  0.00    -0.264 N 
BRANCH  10  13
ATOM     13  C   UNL     1       1.593  -4.703  -3.697  0.00  0.00    +0.019 C 
BRANCH  13  14
ATOM     14  N   UNL     1       0.418  -4.102  -3.051  0.00  0.00    +0.387 N 
ATOM     15  H   UNL     1      -0.027  -4.787  -2.458  0.00  0.00    -0.081 HD
BRANCH  14  16
ATOM     16  C   UNL     1      -0.530  -3.655  -4.079  0.00  0.00    -0.074 C 
ATOM     17  C   UNL     1       0.112  -2.549  -4.919  0.00  0.00    -0.014 C 
ATOM     18  C   UNL     1      -0.898  -4.833  -4.982  0.00  0.00    -0.014 C 
ENDBRANCH  14  16
BRANCH  14  19
ATOM     19  C   UNL     1       0.840  -2.953  -2.239  0.00  0.00    -0.078 C 
BRANCH  19  20
ATOM     20  C   UNL     1      -0.362  -2.406  -1.466  0.00  0.00    -0.019 C 
BRANCH  20  21
ATOM     21  C   UNL     1       0.102  -1.296  -0.521  0.00  0.00    -0.002 C 
BRANCH  21  23
ATOM     22  C   UNL     1      -0.636   0.362   1.197  0.00  0.00    +0.004 C 
ATOM     23  C   UNL     1      -1.099  -0.749   0.252  0.00  0.00    -0.003 C 
ENDBRANCH  21  23
ENDBRANCH  20  21
ENDBRANCH  19  20
ENDBRANCH  14  19
ENDBRANCH  13  14
ENDBRANCH  10  13
BRANCH  12  24
ATOM     24  C   UNL     1       3.468  -6.275  -5.135  0.00  0.00    +0.142 C 
BRANCH  24  25
ATOM     25  C   UNL     1       4.543  -6.634  -4.107  0.00  0.00    +0.178 C 
BRANCH  25  26
ATOM     26  O   UNL     1       4.763  -8.046  -4.121  0.00  0.00    -0.381 OA
ATOM     27  C   UNL     1       5.755  -8.488  -3.192  0.00  0.00    +0.194 C 
ENDBRANCH  25  26
ENDBRANCH  24  25
ENDBRANCH  12  24
ENDBRANCH   1  12
BRANCH   2  28
ATOM     28  N   UNL     1       1.898  -8.886  -2.822  0.00  0.00    -0.343 N 
ATOM     29  H   UNL     1       2.067  -7.972  -2.544  0.00  0.00    +0.144 HD
ATOM     30  H   UNL     1       1.843  -9.593  -2.160  0.00  0.00    +0.144 HD
ENDBRANCH   2  28
BRANCH   3  31
ATOM     31  C   UNL     1       1.279 -11.518  -3.551  0.00  0.00    +0.163 C 
BRANCH  31  32
ATOM     32  C   UNL     1      -0.159 -11.583  -3.105  0.00  0.00    -0.028 A 
ATOM     33  C   UNL     1      -0.586 -10.819  -2.036  0.00  0.00    +0.005 A 
ATOM     34  C   UNL     1      -1.906 -10.878  -1.627  0.00  0.00    +0.000 A 
ATOM     35  C   UNL     1      -2.798 -11.701  -2.288  0.00  0.00    +0.000 A 
ATOM     36  C   UNL     1      -2.370 -12.465  -3.358  0.00  0.00    +0.000 A 
ATOM     37  C   UNL     1      -1.052 -12.402  -3.770  0.00  0.00    +0.005 A 
ENDBRANCH  31  32
ENDBRANCH   3  31
TORSDOF 14
