REMARK  Name = ZINC31170058
REMARK  12 active torsions:
REMARK  status: ('A' for Active; 'I' for Inactive)
REMARK    1  A    between atoms: C_1  and  C_2
REMARK    2  A    between atoms: C_2  and  C_31
REMARK    3  A    between atoms: C_3  and  C_4
REMARK    4  A    between atoms: C_4  and  C_5
REMARK    5  A    between atoms: C_7  and  C_18
REMARK    6  A    between atoms: C_8  and  O_17
REMARK    7  A    between atoms: C_9  and  C_12
REMARK    8  A    between atoms: C_10  and  O_11
REMARK    9  A    between atoms: C_12  and  C_13
REMARK   10  A    between atoms: C_14  and  C_15
REMARK   11  A    between atoms: C_14  and  C_16
REMARK   12  A    between atoms: C_26  and  O_30
REMARK                            x       y       z     vdW  Elec       q    Type
REMARK                         _______ _______ _______ _____ _____    ______ ____
ROOT
ATOM      1  C   UNL     1       0.687   1.144   4.330  0.00  0.00    -0.001 A 
ATOM      2  C   UNL     1       1.344   2.116   3.599  0.00  0.00    +0.018 A 
ATOM      3  C   UNL     1       2.358   2.853   4.179  0.00  0.00    +0.035 A 
ATOM      4  C   UNL     1       2.729   2.610   5.495  0.00  0.00    +0.130 A 
ATOM      5  C   UNL     1       2.076   1.631   6.228  0.00  0.00    +0.040 A 
ATOM      6  C   UNL     1       1.054   0.897   5.645  0.00  0.00    +0.127 A 
ENDROOT
BRANCH   3   7
ATOM      7  C   UNL     1       3.068   3.916   3.381  0.00  0.00    +0.215 C 
ATOM      8  C   UNL     1       2.422   5.281   3.657  0.00  0.00    +0.129 C 
ATOM      9  C   UNL     1       3.152   6.304   2.806  0.00  0.00    +0.170 C 
ATOM     10  O   UNL     1       3.426   7.408   3.229  0.00  0.00    -0.292 OA
ATOM     11  C   UNL     1       3.512   5.888   1.442  0.00  0.00    +0.059 A 
ATOM     12  C   UNL     1       3.959   6.823   0.505  0.00  0.00    +0.018 A 
ATOM     13  C   UNL     1       4.298   6.415  -0.753  0.00  0.00    +0.046 A 
ATOM     14  C   UNL     1       4.200   5.071  -1.105  0.00  0.00    +0.120 A 
ATOM     15  C   UNL     1       3.755   4.132  -0.187  0.00  0.00    +0.091 A 
ATOM     16  C   UNL     1       3.404   4.530   1.093  0.00  0.00    +0.135 A 
ATOM     17  O   UNL     1       2.964   3.616   1.989  0.00  0.00    -0.483 OA
BRANCH  14  18
ATOM     18  O   UNL     1       4.543   4.677  -2.357  0.00  0.00    -0.507 OA
ATOM     19  H   UNL     1       4.467   3.616  -2.640  0.00  0.00    +0.292 HD
ENDBRANCH  14  18
ENDBRANCH   3   7
BRANCH   6  20
ATOM     20  O   UNL     1       0.412  -0.063   6.361  0.00  0.00    -0.506 OA
ATOM     21  H   UNL     1       0.704  -0.258   7.404  0.00  0.00    +0.292 HD
ENDBRANCH   6  20
BRANCH   4  22
ATOM     22  O   UNL     1       3.731   3.330   6.063  0.00  0.00    -0.506 OA
ATOM     23  H   UNL     1       4.025   3.137   7.105  0.00  0.00    +0.292 HD
ENDBRANCH   4  22
BRANCH   1  24
ATOM     24  C   UNL     1      -0.423   0.347   3.696  0.00  0.00    +0.066 C 
BRANCH  24  27
ATOM     25  C   UNL     1      -2.199   1.079   1.634  0.00  0.00    +0.038 C 
ATOM     26  C   UNL     1      -2.575   1.318   3.074  0.00  0.00    -0.079 C 
ATOM     27  C   UNL     1      -1.750   0.978   4.032  0.00  0.00    -0.023 C 
ATOM     28  C   UNL     1      -3.902   1.949   3.410  0.00  0.00    +0.038 C 
ENDBRANCH  24  27
ENDBRANCH   1  24
BRANCH   5  29
ATOM     29  C   UNL     1       2.477   1.365   7.656  0.00  0.00    +0.069 C 
BRANCH  29  30
ATOM     30  C   UNL     1       3.555   0.313   7.687  0.00  0.00    -0.023 C 
ATOM     31  C   UNL     1       4.679   0.546   8.318  0.00  0.00    -0.079 C 
ATOM     32  C   UNL     1       4.950   1.911   8.896  0.00  0.00    +0.038 C 
ATOM     33  C   UNL     1       5.702  -0.551   8.466  0.00  0.00    +0.038 C 
ENDBRANCH  29  30
ENDBRANCH   5  29
TORSDOF 8
