REMARK  Name = ZINC13066496
REMARK  15 active torsions:
REMARK  status: ('A' for Active; 'I' for Inactive)
REMARK    1  A    between atoms: C_1  and  C_2
REMARK    2  A    between atoms: C_5  and  C_31
REMARK    3  A    between atoms: C_6  and  N_8
REMARK    4  A    between atoms: N_8  and  C_9
REMARK    5  A    between atoms: C_9  and  N_11
REMARK    6  A    between atoms: N_11  and  N_12
REMARK    7  A    between atoms: C_13  and  C_14
REMARK    8  A    between atoms: C_13  and  C_15
REMARK    9  A    between atoms: C_18  and  S_21
REMARK   10  A    between atoms: S_21  and  N_24
REMARK   11  A    between atoms: N_24  and  C_25
REMARK   12  A    between atoms: N_24  and  C_26
REMARK   13  A    between atoms: C_26  and  C_27
REMARK   14  A    between atoms: C_27  and  C_28
REMARK   15  A    between atoms: C_28  and  C_29
REMARK                            x       y       z     vdW  Elec       q    Type
REMARK                         _______ _______ _______ _____ _____    ______ ____
ROOT
ATOM      1  N   UNL     1      -3.979   2.294   5.478  0.00  0.00    -0.185 NA
ATOM      2  C   UNL     1      -3.122   3.131   4.979  0.00  0.00    +0.063 C 
ATOM      3  C   UNL     1      -3.219   4.597   5.312  0.00  0.00    +0.068 C 
ENDROOT
BRANCH   2   4
ATOM      4  C   UNL     1      -2.051   2.646   4.088  0.00  0.00    -0.002 A 
ATOM      5  C   UNL     1      -1.958   1.287   3.778  0.00  0.00    +0.011 A 
ATOM      6  C   UNL     1      -0.954   0.841   2.943  0.00  0.00    +0.029 A 
ATOM      7  C   UNL     1      -0.042   1.736   2.414  0.00  0.00    +0.106 A 
ATOM      8  C   UNL     1      -0.125   3.083   2.721  0.00  0.00    +0.029 A 
ATOM      9  C   UNL     1      -1.126   3.544   3.550  0.00  0.00    +0.011 A 
BRANCH   7  10
ATOM     10  S   UNL     1       1.237   1.157   1.349  0.00  0.00    +0.061 S 
ATOM     11  O   UNL     1       1.432  -0.216   1.657  0.00  0.00    -0.153 OA
ATOM     12  O   UNL     1       2.289   2.110   1.421  0.00  0.00    -0.153 OA
BRANCH  10  13
ATOM     13  N   UNL     1       0.650   1.216  -0.199  0.00  0.00    -0.180 NA
ATOM     14  C   UNL     1       0.827   2.428  -1.003  0.00  0.00    +0.131 C 
BRANCH  13  15
ATOM     15  C   UNL     1      -0.046   0.058  -0.763  0.00  0.00    +0.109 C 
BRANCH  15  16
ATOM     16  C   UNL     1      -1.555   0.227  -0.574  0.00  0.00    +0.028 C 
BRANCH  16  17
ATOM     17  C   UNL     1      -2.282  -0.983  -1.163  0.00  0.00    +0.126 C 
BRANCH  17  18
ATOM     18  C   UNL     1      -3.768  -0.817  -0.976  0.00  0.00    +0.356 C 
ATOM     19  O   UNL     1      -4.201   0.169  -0.428  0.00  0.00    -0.246 OA
ATOM     20  O   UNL     1      -4.610  -1.763  -1.419  0.00  0.00    -0.246 OA
ENDBRANCH  17  18
ENDBRANCH  16  17
ENDBRANCH  15  16
ENDBRANCH  13  15
ENDBRANCH  10  13
ENDBRANCH   7  10
ENDBRANCH   2   4
BRANCH   1  21
ATOM     21  N   UNL     1      -4.996   2.754   6.325  0.00  0.00    -0.218 N 
ATOM     22  H   UNL     1      -5.059   3.698   6.539  0.00  0.00    +0.176 HD
BRANCH  21  23
ATOM     23  C   UNL     1      -5.886   1.885   6.843  0.00  0.00    +0.154 C 
ATOM     24  S   UNL     1      -7.129   2.448   7.878  0.00  0.00    -0.017 S 
BRANCH  23  25
ATOM     25  N   UNL     1      -5.799   0.574   6.546  0.00  0.00    -0.295 N 
ATOM     26  H   UNL     1      -5.146   0.266   5.898  0.00  0.00    +0.154 HD
BRANCH  25  32
ATOM     27  C   UNL     1      -7.971  -1.074  10.636  0.00  0.00    +0.044 C 
ATOM     28  C   UNL     1      -7.721  -1.165   9.153  0.00  0.00    -0.049 A 
ATOM     29  C   UNL     1      -8.334  -2.157   8.409  0.00  0.00    +0.004 A 
ATOM     30  C   UNL     1      -8.107  -2.244   7.048  0.00  0.00    +0.005 A 
ATOM     31  C   UNL     1      -7.266  -1.341   6.427  0.00  0.00    -0.029 A 
ATOM     32  C   UNL     1      -6.650  -0.343   7.171  0.00  0.00    +0.036 A 
ATOM     33  C   UNL     1      -6.877  -0.261   8.539  0.00  0.00    +0.027 A 
ATOM     34  C   UNL     1      -7.019  -1.436   4.944  0.00  0.00    +0.045 C 
ENDBRANCH  25  32
ENDBRANCH  23  25
ENDBRANCH  21  23
ENDBRANCH   1  21
TORSDOF 11
