REMARK  Name = ZINC38748330
REMARK  10 active torsions:
REMARK  status: ('A' for Active; 'I' for Inactive)
REMARK    1  A    between atoms: C_1  and  N_2
REMARK    2  A    between atoms: C_8  and  N_17
REMARK    3  A    between atoms: C_13  and  N_16
REMARK    4  A    between atoms: N_17  and  C_18
REMARK    5  A    between atoms: C_18  and  C_19
REMARK    6  A    between atoms: C_19  and  C_20
REMARK    7  A    between atoms: C_23  and  O_28
REMARK    8  A    between atoms: C_24  and  O_26
REMARK    9  A    between atoms: O_26  and  C_27
REMARK   10  A    between atoms: O_28  and  C_29
REMARK                            x       y       z     vdW  Elec       q    Type
REMARK                         _______ _______ _______ _____ _____    ______ ____
ROOT
ATOM      1  C   UNL     1      -0.018   1.465   0.010  0.00  0.00    +0.105 C 
ATOM      2  N   UNL     1       0.002  -0.004   0.002  0.00  0.00    -0.301 NA
ATOM      3  C   UNL     1      -1.364  -0.550  -0.051  0.00  0.00    +0.089 C 
ATOM      4  C   UNL     1      -1.273  -2.039  -0.385  0.00  0.00    +0.051 C 
ATOM      5  C   UNL     1      -0.279  -2.716   0.523  0.00  0.00    -0.028 C 
ATOM      6  C   UNL     1       0.618  -2.028   1.227  0.00  0.00    -0.013 C 
ATOM      7  C   UNL     1       0.705  -0.526   1.178  0.00  0.00    +0.118 C 
ATOM      8  C   UNL     1       1.589  -2.777   2.113  0.00  0.00    +0.203 C 
ATOM      9  N   UNL     1       1.534  -4.238   2.195  0.00  0.00    -0.240 NA
ATOM     10  C   UNL     1       0.657  -4.894   1.509  0.00  0.00    +0.181 C 
ATOM     11  C   UNL     1      -0.303  -4.178   0.631  0.00  0.00    +0.063 C 
ATOM     12  C   UNL     1      -1.071  -5.173   0.068  0.00  0.00    +0.121 C 
ATOM     13  N   UNL     1      -0.632  -6.355   0.545  0.00  0.00    -0.262 N 
ATOM     14  N   UNL     1       0.348  -6.224   1.365  0.00  0.00    -0.152 NA
ATOM     15  H   UNL     1      -1.015  -7.211   0.297  0.00  0.00    +0.190 HD
ENDROOT
BRANCH  12  16
ATOM     16  N   UNL     1      -2.115  -4.990  -0.833  0.00  0.00    -0.343 N 
ATOM     17  H   UNL     1      -2.359  -4.096  -1.119  0.00  0.00    +0.144 HD
ATOM     18  H   UNL     1      -2.599  -5.757  -1.176  0.00  0.00    +0.144 HD
ENDBRANCH  12  16
BRANCH   8  19
ATOM     19  N   UNL     1       2.945  -2.416   1.678  0.00  0.00    -0.291 NA
ATOM     20  H   UNL     1       3.346  -3.142   1.103  0.00  0.00    +0.124 HD
BRANCH  19  21
ATOM     21  C   UNL     1       3.807  -2.122   2.831  0.00  0.00    +0.088 C 
BRANCH  21  22
ATOM     22  C   UNL     1       5.207  -1.750   2.338  0.00  0.00    +0.050 C 
BRANCH  22  23
ATOM     23  C   UNL     1       6.092  -1.449   3.521  0.00  0.00    -0.042 A 
ATOM     24  C   UNL     1       6.168  -0.159   4.013  0.00  0.00    +0.007 A 
ATOM     25  C   UNL     1       6.978   0.123   5.098  0.00  0.00    +0.049 A 
ATOM     26  C   UNL     1       7.715  -0.888   5.694  0.00  0.00    +0.161 A 
ATOM     27  C   UNL     1       7.637  -2.186   5.198  0.00  0.00    +0.162 A 
ATOM     28  C   UNL     1       6.820  -2.463   4.114  0.00  0.00    +0.053 A 
BRANCH  27  29
ATOM     29  O   UNL     1       8.359  -3.182   5.780  0.00  0.00    -0.491 OA
ATOM     30  C   UNL     1       8.230  -4.489   5.218  0.00  0.00    +0.277 C 
ENDBRANCH  27  29
BRANCH  26  31
ATOM     31  O   UNL     1       8.512  -0.612   6.760  0.00  0.00    -0.491 OA
ATOM     32  C   UNL     1       8.543   0.743   7.215  0.00  0.00    +0.277 C 
ENDBRANCH  26  31
ENDBRANCH  22  23
ENDBRANCH  21  22
ENDBRANCH  19  21
ENDBRANCH   8  19
TORSDOF 7
