REMARK  Name = ZINC38971422
REMARK  6 active torsions:
REMARK  status: ('A' for Active; 'I' for Inactive)
REMARK    1  A    between atoms: C_4  and  N_7
REMARK    2  A    between atoms: C_10  and  N_28
REMARK    3  A    between atoms: C_13  and  C_15
REMARK    4  A    between atoms: C_15  and  S_16
REMARK    5  A    between atoms: S_16  and  C_17
REMARK    6  A    between atoms: C_20  and  C_22
REMARK                            x       y       z     vdW  Elec       q    Type
REMARK                         _______ _______ _______ _____ _____    ______ ____
ROOT
ATOM      1  N   UNL     1       3.601  -0.632  -0.036  0.00  0.00    -0.219 NA
ATOM      2  C   UNL     1       3.792  -1.657   0.760  0.00  0.00    +0.188 C 
ATOM      3  N   UNL     1       2.817  -2.118   1.636  0.00  0.00    -0.285 N 
ATOM      4  C   UNL     1       2.568  -3.568   1.623  0.00  0.00    +0.239 C 
ATOM      5  N   UNL     1       3.834  -4.280   1.462  0.00  0.00    -0.346 N 
ATOM      6  C   UNL     1       4.918  -3.714   1.073  0.00  0.00    +0.087 C 
ATOM      7  N   UNL     1       4.983  -2.372   0.790  0.00  0.00    -0.277 N 
ATOM      8  H   UNL     1       2.329  -1.518   2.222  0.00  0.00    +0.152 HD
ATOM      9  H   UNL     1       3.856  -5.230   1.659  0.00  0.00    +0.164 HD
ATOM     10  H   UNL     1       5.834  -1.938   0.620  0.00  0.00    +0.156 HD
ENDROOT
BRANCH   1  14
ATOM     11  C   UNL     1      -0.017   1.379   0.010  0.00  0.00    +0.000 A 
ATOM     12  C   UNL     1       1.168   2.094   0.002  0.00  0.00    +0.002 A 
ATOM     13  C   UNL     1       2.377   1.430  -0.013  0.00  0.00    +0.028 A 
ATOM     14  C   UNL     1       2.404   0.034  -0.021  0.00  0.00    +0.067 A 
ATOM     15  C   UNL     1       1.204  -0.681  -0.013  0.00  0.00    +0.028 A 
ATOM     16  C   UNL     1       0.002  -0.004   0.002  0.00  0.00    +0.002 A 
ENDBRANCH   1  14
BRANCH   4  17
ATOM     17  N   UNL     1       1.674  -3.901   0.505  0.00  0.00    -0.296 NA
ATOM     18  H   UNL     1       0.790  -3.422   0.594  0.00  0.00    +0.122 HD
ATOM     19  H   UNL     1       2.110  -3.695  -0.381  0.00  0.00    +0.122 HD
ENDBRANCH   4  17
BRANCH   6  20
ATOM     20  C   UNL     1       6.161  -4.552   0.917  0.00  0.00    +0.148 C 
BRANCH  20  21
ATOM     21  S   UNL     1       7.532  -3.503   0.361  0.00  0.00    -0.058 S 
BRANCH  21  22
ATOM     22  C   UNL     1       8.892  -4.615   0.228  0.00  0.00    +0.278 A 
ATOM     23  N   UNL     1       8.870  -5.905   0.478  0.00  0.00    -0.101 NA
ATOM     24  N   UNL     1      10.040  -6.400   0.276  0.00  0.00    -0.106 NA
ATOM     25  C   UNL     1      10.855  -5.449  -0.111  0.00  0.00    +0.249 A 
ATOM     26  O   UNL     1      10.144  -4.300  -0.155  0.00  0.00    -0.411 OA
BRANCH  25  27
ATOM     27  C   UNL     1      12.286  -5.604  -0.443  0.00  0.00    +0.041 A 
ATOM     28  C   UNL     1      13.056  -4.505  -0.841  0.00  0.00    +0.033 A 
ATOM     29  C   UNL     1      14.389  -4.696  -1.141  0.00  0.00    +0.111 A 
ATOM     30  N   UNL     1      14.937  -5.893  -1.059  0.00  0.00    -0.263 NA
ATOM     31  C   UNL     1      14.247  -6.956  -0.689  0.00  0.00    +0.111 A 
ATOM     32  C   UNL     1      12.911  -6.855  -0.364  0.00  0.00    +0.033 A 
ENDBRANCH  25  27
ENDBRANCH  21  22
ENDBRANCH  20  21
ENDBRANCH   6  20
TORSDOF 6
