REMARK  Name = ZINC40267461
REMARK  4 active torsions:
REMARK  status: ('A' for Active; 'I' for Inactive)
REMARK    1  A    between atoms: C_1  and  C_2
REMARK    2  A    between atoms: C_6  and  C_7
REMARK    3  A    between atoms: C_10  and  O_27
REMARK    4  A    between atoms: C_14  and  C_26
REMARK                            x       y       z     vdW  Elec       q    Type
REMARK                         _______ _______ _______ _____ _____    ______ ____
ROOT
ATOM      1  C   UNL     1       0.030  -0.179   2.581  0.00  0.00    +0.070 C 
ATOM      2  C   UNL     1      -1.194  -0.711   3.336  0.00  0.00    +0.109 C 
ATOM      3  C   UNL     1      -1.016  -0.595   4.822  0.00  0.00    +0.190 C 
ATOM      4  N   UNL     1       0.132  -0.718   5.419  0.00  0.00    -0.197 NA
ATOM      5  C   UNL     1       1.253  -0.915   4.668  0.00  0.00    +0.165 A 
ATOM      6  C   UNL     1       1.261  -0.670   3.300  0.00  0.00    +0.028 A 
ATOM      7  C   UNL     1       2.526  -0.956   2.822  0.00  0.00    +0.066 A 
ATOM      8  N   UNL     1       3.273  -1.344   3.831  0.00  0.00    -0.168 NA
ATOM      9  N   UNL     1       2.500  -1.319   5.005  0.00  0.00    -0.194 N 
ATOM     10  C   UNL     1       2.940  -1.649   6.290  0.00  0.00    +0.177 A 
ATOM     11  C   UNL     1       4.275  -2.049   6.485  0.00  0.00    +0.054 A 
ATOM     12  C   UNL     1       4.715  -2.373   7.730  0.00  0.00    +0.054 A 
ATOM     13  C   UNL     1       3.819  -2.301   8.813  0.00  0.00    +0.178 A 
ATOM     14  N   UNL     1       3.928  -2.542  10.110  0.00  0.00    -0.128 NA
ATOM     15  N   UNL     1       2.795  -2.322  10.680  0.00  0.00    -0.136 NA
ATOM     16  C   UNL     1       1.911  -1.934   9.793  0.00  0.00    +0.249 A 
ATOM     17  N   UNL     1       2.522  -1.907   8.590  0.00  0.00    -0.198 N 
ATOM     18  N   UNL     1       2.104  -1.577   7.299  0.00  0.00    -0.144 NA
ATOM     19  C   UNL     1       2.972  -0.843   1.388  0.00  0.00    +0.068 C 
ENDROOT
BRANCH   1  25
ATOM     20  C   UNL     1      -0.018   1.503   0.010  0.00  0.00    +0.044 C 
ATOM     21  C   UNL     1       0.002  -0.004   0.002  0.00  0.00    -0.040 A 
ATOM     22  C   UNL     1       0.006  -0.699  -1.193  0.00  0.00    +0.011 A 
ATOM     23  C   UNL     1       0.024  -2.054  -1.165  0.00  0.00    +0.046 A 
ATOM     24  S   UNL     1       0.037  -2.387   0.589  0.00  0.00    -0.101 S 
ATOM     25  C   UNL     1       0.023  -0.698   1.166  0.00  0.00    +0.001 A 
ENDBRANCH   1  25
BRANCH   3  26
ATOM     26  O   UNL     1      -2.105  -0.350   5.579  0.00  0.00    -0.495 OA
ATOM     27  H   UNL     1      -1.920  -0.288   6.526  0.00  0.00    +0.293 HD
ENDBRANCH   3  26
TORSDOF 2
