REMARK  Name = ZINC20799941
REMARK  5 active torsions:
REMARK  status: ('A' for Active; 'I' for Inactive)
REMARK    1  A    between atoms: C_1  and  C_2
REMARK    2  A    between atoms: C_4  and  C_30
REMARK    3  A    between atoms: C_6  and  N_8
REMARK    4  A    between atoms: C_9  and  C_11
REMARK    5  A    between atoms: C_19  and  N_29
REMARK                            x       y       z     vdW  Elec       q    Type
REMARK                         _______ _______ _______ _____ _____    ______ ____
ROOT
ATOM      1  C   UNL     1       0.488  -2.868   4.673  0.00  0.00    +0.121 C 
ATOM      2  C   UNL     1       1.886  -3.490   4.697  0.00  0.00    +0.113 C 
ATOM      3  C   UNL     1       2.123  -4.159   6.026  0.00  0.00    +0.219 C 
ATOM      4  O   UNL     1       2.743  -5.200   6.071  0.00  0.00    -0.275 OA
ATOM      5  N   UNL     1       1.654  -3.614   7.162  0.00  0.00    -0.270 N 
ATOM      6  C   UNL     1       0.849  -2.485   7.128  0.00  0.00    +0.136 A 
ATOM      7  C   UNL     1       0.267  -2.079   5.935  0.00  0.00    +0.045 A 
ATOM      8  C   UNL     1      -0.524  -0.936   5.929  0.00  0.00    +0.127 A 
ATOM      9  N   UNL     1      -0.709  -0.278   7.073  0.00  0.00    -0.199 NA
ATOM     10  C   UNL     1      -0.157  -0.706   8.198  0.00  0.00    +0.221 A 
ATOM     11  N   UNL     1       0.603  -1.790   8.235  0.00  0.00    -0.199 NA
ATOM     12  N   UNL     1      -0.381  -0.001   9.367  0.00  0.00    -0.300 N 
ATOM     13  C   UNL     1       0.219  -0.442  10.634  0.00  0.00    +0.108 C 
ATOM     14  C   UNL     1       0.989   0.731  11.249  0.00  0.00    +0.019 C 
ATOM     15  C   UNL     1       0.055   1.936  11.382  0.00  0.00    +0.003 C 
ATOM     16  C   UNL     1      -0.440   2.356   9.996  0.00  0.00    +0.019 C 
ATOM     17  C   UNL     1      -1.221   1.205   9.366  0.00  0.00    +0.108 C 
ATOM     18  H   UNL     1       1.882  -4.015   8.016  0.00  0.00    +0.156 HD
ENDROOT
BRANCH   1  20
ATOM     19  N   UNL     1      -0.517  -2.235   2.504  0.00  0.00    -0.285 N 
ATOM     20  C   UNL     1       0.366  -1.953   3.482  0.00  0.00    +0.225 C 
ATOM     21  O   UNL     1       1.063  -0.963   3.403  0.00  0.00    -0.275 OA
ATOM     22  H   UNL     1      -1.121  -2.987   2.598  0.00  0.00    +0.155 HD
BRANCH  19  28
ATOM     23  C   UNL     1      -3.123  -0.211  -1.141  0.00  0.00    +0.044 C 
ATOM     24  C   UNL     1      -1.813  -0.444  -0.434  0.00  0.00    -0.048 A 
ATOM     25  C   UNL     1      -0.653   0.128  -0.925  0.00  0.00    +0.006 A 
ATOM     26  C   UNL     1       0.552  -0.083  -0.279  0.00  0.00    -0.048 A 
ATOM     27  C   UNL     1       0.600  -0.865   0.858  0.00  0.00    +0.026 A 
ATOM     28  C   UNL     1      -0.563  -1.441   1.353  0.00  0.00    +0.034 A 
ATOM     29  C   UNL     1      -1.772  -1.223   0.705  0.00  0.00    +0.026 A 
ATOM     30  C   UNL     1       1.813   0.542  -0.817  0.00  0.00    +0.044 C 
ENDBRANCH  19  28
ENDBRANCH   1  20
BRANCH   8  31
ATOM     31  N   UNL     1      -1.108  -0.488   4.755  0.00  0.00    -0.343 N 
ATOM     32  H   UNL     1      -1.403  -1.126   4.087  0.00  0.00    +0.144 HD
ATOM     33  H   UNL     1      -1.222   0.463   4.602  0.00  0.00    +0.144 HD
ENDBRANCH   8  31
TORSDOF 3
