REMARK  Name = ZINC34906258
REMARK  12 active torsions:
REMARK  status: ('A' for Active; 'I' for Inactive)
REMARK    1  A    between atoms: C_1  and  C_2
REMARK    2  A    between atoms: C_2  and  C_3
REMARK    3  A    between atoms: C_2  and  C_4
REMARK    4  A    between atoms: C_7  and  O_10
REMARK    5  A    between atoms: O_10  and  C_11
REMARK    6  A    between atoms: C_11  and  C_12
REMARK    7  A    between atoms: C_14  and  C_17
REMARK    8  A    between atoms: N_19  and  C_20
REMARK    9  A    between atoms: C_20  and  C_21
REMARK   10  A    between atoms: C_21  and  C_22
REMARK   11  A    between atoms: C_22  and  N_23
REMARK   12  A    between atoms: N_26  and  C_27
REMARK                            x       y       z     vdW  Elec       q    Type
REMARK                         _______ _______ _______ _____ _____    ______ ____
ROOT
ATOM      1  C   UNL     1     -10.643  -2.537  -1.452  0.00  0.00    +0.263 C 
ATOM      2  O   UNL     1     -11.702  -3.073  -1.184  0.00  0.00    -0.269 OA
ATOM      3  N   UNL     1     -10.629  -1.380  -2.144  0.00  0.00    -0.310 N 
ATOM      4  H   UNL     1      -9.785  -0.953  -2.357  0.00  0.00    +0.149 HD
ENDROOT
BRANCH   1   7
ATOM      5  C   UNL     1      -7.113  -3.201  -0.875  0.00  0.00    +0.116 A 
ATOM      6  N   UNL     1      -8.191  -2.596  -1.292  0.00  0.00    -0.236 NA
ATOM      7  C   UNL     1      -9.376  -3.151  -1.020  0.00  0.00    +0.133 A 
ATOM      8  C   UNL     1      -9.344  -4.325  -0.315  0.00  0.00    +0.080 A 
ATOM      9  S   UNL     1      -7.696  -4.568  -0.094  0.00  0.00    -0.076 S 
BRANCH   5  10
ATOM     10  C   UNL     1      -5.679  -2.776  -1.058  0.00  0.00    +0.291 C 
BRANCH  10  11
ATOM     11  O   UNL     1      -5.282  -1.955   0.043  0.00  0.00    -0.485 OA
BRANCH  11  15
ATOM     12  C   UNL     1      -1.412  -0.526   0.013  0.00  0.00    -0.045 A 
ATOM     13  C   UNL     1      -2.258  -0.203   1.057  0.00  0.00    +0.007 A 
ATOM     14  C   UNL     1      -3.555  -0.681   1.070  0.00  0.00    +0.046 A 
ATOM     15  C   UNL     1      -4.007  -1.484   0.033  0.00  0.00    +0.121 A 
ATOM     16  C   UNL     1      -3.156  -1.805  -1.015  0.00  0.00    +0.046 A 
ATOM     17  C   UNL     1      -1.862  -1.321  -1.025  0.00  0.00    +0.007 A 
BRANCH  12  19
ATOM     18  C   UNL     1      -0.019   1.526   0.010  0.00  0.00    +0.012 C 
ATOM     19  C   UNL     1       0.002  -0.004   0.002  0.00  0.00    +0.013 C 
ATOM     20  C   UNL     1       0.742  -0.511   1.242  0.00  0.00    +0.012 C 
ENDBRANCH  12  19
ENDBRANCH  11  15
ENDBRANCH  10  11
ENDBRANCH   5  10
ENDBRANCH   1   7
BRANCH   3  21
ATOM     21  C   UNL     1     -11.889  -0.769  -2.574  0.00  0.00    +0.106 C 
BRANCH  21  22
ATOM     22  C   UNL     1     -11.595   0.526  -3.334  0.00  0.00    +0.037 C 
BRANCH  22  23
ATOM     23  C   UNL     1     -12.911   1.164  -3.783  0.00  0.00    +0.107 C 
BRANCH  23  24
ATOM     24  N   UNL     1     -12.629   2.404  -4.511  0.00  0.00    -0.299 N 
ATOM     25  C   UNL     1     -13.643   3.142  -5.004  0.00  0.00    +0.300 C 
ATOM     26  O   UNL     1     -14.793   2.779  -4.845  0.00  0.00    -0.253 OA
ATOM     27  N   UNL     1     -13.384   4.282  -5.674  0.00  0.00    -0.297 N 
ATOM     28  H   UNL     1     -11.712   2.694  -4.638  0.00  0.00    +0.150 HD
ATOM     29  H   UNL     1     -12.467   4.572  -5.801  0.00  0.00    +0.151 HD
BRANCH  27  30
ATOM     30  C   UNL     1     -14.486   5.084  -6.210  0.00  0.00    +0.074 C 
ATOM     31  C   UNL     1     -14.891   4.542  -7.582  0.00  0.00    +0.022 C 
ATOM     32  C   UNL     1     -16.043   5.380  -8.142  0.00  0.00    +0.002 C 
ATOM     33  C   UNL     1     -15.594   6.836  -8.280  0.00  0.00    +0.000 C 
ATOM     34  C   UNL     1     -15.189   7.378  -6.908  0.00  0.00    +0.002 C 
ATOM     35  C   UNL     1     -14.038   6.540  -6.348  0.00  0.00    +0.022 C 
ENDBRANCH  27  30
ENDBRANCH  23  24
ENDBRANCH  22  23
ENDBRANCH  21  22
ENDBRANCH   3  21
TORSDOF 10
