REMARK  Name = ZINC64939259
REMARK  7 active torsions:
REMARK  status: ('A' for Active; 'I' for Inactive)
REMARK    1  A    between atoms: C_1  and  C_2
REMARK    2  A    between atoms: C_8  and  S_12
REMARK    3  A    between atoms: S_12  and  N_15
REMARK    4  A    between atoms: N_15  and  N_16
REMARK    5  A    between atoms: N_19  and  C_20
REMARK    6  A    between atoms: C_20  and  C_21
REMARK    7  A    between atoms: C_21  and  C_22
REMARK                            x       y       z     vdW  Elec       q    Type
REMARK                         _______ _______ _______ _____ _____    ______ ____
ROOT
ATOM      1  N   UNL     1       1.509  -4.612   2.445  0.00  0.00    -0.107 NA
ATOM      2  H   UNL     1       2.134  -5.317   2.675  0.00  0.00    +0.172 HD
ENDROOT
BRANCH   1   3
ATOM      3  N   UNL     1       1.817  -3.278   2.741  0.00  0.00    -0.216 N 
ATOM      4  C   UNL     1       2.129  -2.923   4.003  0.00  0.00    +0.315 C 
ATOM      5  O   UNL     1       2.396  -1.765   4.261  0.00  0.00    -0.251 OA
ATOM      6  N   UNL     1       2.145  -3.852   4.980  0.00  0.00    -0.298 N 
ATOM      7  H   UNL     1       1.806  -2.610   2.038  0.00  0.00    +0.172 HD
ATOM      8  H   UNL     1       1.931  -4.775   4.775  0.00  0.00    +0.150 HD
BRANCH   6   9
ATOM      9  C   UNL     1       2.484  -3.466   6.352  0.00  0.00    +0.112 C 
BRANCH   9  10
ATOM     10  C   UNL     1       2.429  -4.698   7.257  0.00  0.00    +0.074 C 
BRANCH  10  11
ATOM     11  C   UNL     1       2.777  -4.301   8.668  0.00  0.00    +0.043 A 
ATOM     12  C   UNL     1       1.905  -4.601   9.698  0.00  0.00    +0.023 A 
ATOM     13  C   UNL     1       2.235  -4.231  10.992  0.00  0.00    +0.003 A 
ATOM     14  C   UNL     1       3.436  -3.571  11.204  0.00  0.00    +0.020 A 
ATOM     15  C   UNL     1       4.258  -3.305  10.125  0.00  0.00    +0.111 A 
ATOM     16  N   UNL     1       3.914  -3.676   8.908  0.00  0.00    -0.260 NA
ENDBRANCH  10  11
ENDBRANCH   9  10
ENDBRANCH   6   9
ENDBRANCH   1   3
BRANCH   1  17
ATOM     17  S   UNL     1       0.077  -4.986   1.701  0.00  0.00    +0.076 S 
ATOM     18  O   UNL     1      -0.953  -4.406   2.489  0.00  0.00    -0.152 OA
ATOM     19  O   UNL     1       0.122  -6.376   1.409  0.00  0.00    -0.152 OA
BRANCH  17  27
ATOM     20  C   UNL     1      -0.018   1.503   0.010  0.00  0.00    +0.045 C 
ATOM     21  C   UNL     1       0.002  -0.004   0.002  0.00  0.00    -0.032 A 
ATOM     22  C   UNL     1       0.006  -0.681  -1.184  0.00  0.00    +0.015 A 
ATOM     23  C   UNL     1       0.026  -2.088  -1.146  0.00  0.00    +0.003 A 
ATOM     24  C   UNL     1       0.031  -2.852  -2.324  0.00  0.00    +0.010 A 
ATOM     25  C   UNL     1       0.051  -4.211  -2.245  0.00  0.00    +0.003 A 
ATOM     26  C   UNL     1       0.065  -4.855  -1.009  0.00  0.00    +0.031 A 
ATOM     27  C   UNL     1       0.060  -4.146   0.152  0.00  0.00    +0.133 A 
ATOM     28  C   UNL     1       0.041  -2.741   0.112  0.00  0.00    +0.097 A 
ATOM     29  N   UNL     1       0.037  -2.018   1.236  0.00  0.00    -0.253 NA
ATOM     30  C   UNL     1       0.023  -0.708   1.204  0.00  0.00    +0.114 A 
ENDBRANCH  17  27
ENDBRANCH   1  17
TORSDOF 6
