REMARK  Name = ZINC08616127
REMARK  5 active torsions:
REMARK  status: ('A' for Active; 'I' for Inactive)
REMARK    1  A    between atoms: C_1  and  C_2
REMARK    2  A    between atoms: C_2  and  S_3
REMARK    3  A    between atoms: S_3  and  C_4
REMARK    4  A    between atoms: N_12  and  C_17
REMARK    5  A    between atoms: N_15  and  C_16
REMARK                            x       y       z     vdW  Elec       q    Type
REMARK                         _______ _______ _______ _____ _____    ______ ____
ROOT
ATOM      1  C   UNL     1       1.083   1.790   0.001  0.00  0.00    +0.169 A 
ATOM      2  N   UNL     1      -0.011   0.966   0.007  0.00  0.00    -0.319 N 
ATOM      3  H   UNL     1       0.003  -0.034   0.006  0.00  0.00    +0.169 HD
ATOM      4  C   UNL     1      -1.122   1.756   0.016  0.00  0.00    +0.148 A 
ATOM      5  C   UNL     1      -0.673   3.069   0.025  0.00  0.00    +0.172 A 
ATOM      6  N   UNL     1       0.685   3.038   0.012  0.00  0.00    -0.215 NA
ATOM      7  C   UNL     1      -1.667   4.142   0.040  0.00  0.00    +0.284 A 
ATOM      8  O   UNL     1      -1.321   5.310   0.042  0.00  0.00    -0.265 OA
ATOM      9  N   UNL     1      -2.976   3.810   0.050  0.00  0.00    -0.262 N 
ATOM     10  C   UNL     1      -3.360   2.522   0.047  0.00  0.00    +0.333 A 
ATOM     11  O   UNL     1      -4.549   2.265   0.057  0.00  0.00    -0.246 OA
ATOM     12  N   UNL     1      -2.476   1.509   0.034  0.00  0.00    -0.281 N 
ATOM     13  C   UNL     1      -2.960   0.127   0.033  0.00  0.00    +0.155 C 
ATOM     14  C   UNL     1      -3.990   4.867   0.065  0.00  0.00    +0.157 C 
ENDROOT
BRANCH   1  15
ATOM     15  S   UNL     1       2.761   1.255  -0.017  0.00  0.00    -0.088 S 
BRANCH  15  17
ATOM     16  C   UNL     1       5.116   2.639  -0.032  0.00  0.00    +0.016 C 
ATOM     17  C   UNL     1       3.602   2.857  -0.017  0.00  0.00    +0.074 C 
ENDBRANCH  15  17
ENDBRANCH   1  15
TORSDOF 2
