REMARK  Name = ZINC39916025
REMARK  14 active torsions:
REMARK  status: ('A' for Active; 'I' for Inactive)
REMARK    1  A    between atoms: C_1  and  O_2
REMARK    2  A    between atoms: O_2  and  C_3
REMARK    3  A    between atoms: C_8  and  O_9
REMARK    4  A    between atoms: O_9  and  C_10
REMARK    5  A    between atoms: C_10  and  C_11
REMARK    6  A    between atoms: C_11  and  C_12
REMARK    7  A    between atoms: C_12  and  N_13
REMARK    8  A    between atoms: C_21  and  S_22
REMARK    9  A    between atoms: S_22  and  C_23
REMARK   10  A    between atoms: C_25  and  O_38
REMARK   11  A    between atoms: C_27  and  O_37
REMARK   12  A    between atoms: C_29  and  O_36
REMARK   13  A    between atoms: C_31  and  C_34
REMARK   14  A    between atoms: C_34  and  O_35
REMARK                            x       y       z     vdW  Elec       q    Type
REMARK                         _______ _______ _______ _____ _____    ______ ____
ROOT
ATOM      1  N   UNL     1      -0.851  -7.284   2.069  0.00  0.00    -0.318 N 
ATOM      2  C   UNL     1      -0.291  -7.678   3.273  0.00  0.00    +0.069 A 
ATOM      3  C   UNL     1       0.992  -7.630   3.798  0.00  0.00    +0.028 A 
ATOM      4  C   UNL     1       1.235  -8.117   5.065  0.00  0.00    +0.002 A 
ATOM      5  C   UNL     1       0.203  -8.657   5.820  0.00  0.00    +0.002 A 
ATOM      6  C   UNL     1      -1.077  -8.713   5.315  0.00  0.00    +0.030 A 
ATOM      7  C   UNL     1      -1.339  -8.222   4.033  0.00  0.00    +0.090 A 
ATOM      8  N   UNL     1      -2.466  -8.139   3.279  0.00  0.00    -0.222 NA
ATOM      9  C   UNL     1      -2.183  -7.583   2.126  0.00  0.00    +0.172 A 
ENDROOT
BRANCH   1  10
ATOM     10  C   UNL     1      -0.148  -6.658   0.947  0.00  0.00    +0.127 C 
BRANCH  10  11
ATOM     11  C   UNL     1      -0.173  -5.137   1.114  0.00  0.00    +0.063 C 
BRANCH  11  12
ATOM     12  C   UNL     1       0.562  -4.484  -0.058  0.00  0.00    +0.231 C 
BRANCH  12  13
ATOM     13  O   UNL     1       0.539  -3.063   0.098  0.00  0.00    -0.488 OA
BRANCH  13  19
ATOM     14  C   UNL     1       1.169  -0.938  -0.778  0.00  0.00    +0.161 A 
ATOM     15  C   UNL     1       1.801  -0.191  -1.760  0.00  0.00    +0.049 A 
ATOM     16  C   UNL     1       2.408  -0.826  -2.827  0.00  0.00    +0.004 A 
ATOM     17  C   UNL     1       2.387  -2.206  -2.918  0.00  0.00    +0.004 A 
ATOM     18  C   UNL     1       1.758  -2.956  -1.942  0.00  0.00    +0.049 A 
ATOM     19  C   UNL     1       1.153  -2.326  -0.866  0.00  0.00    +0.162 A 
BRANCH  14  21
ATOM     20  C   UNL     1       0.627   1.113   0.297  0.00  0.00    +0.277 C 
ATOM     21  O   UNL     1       0.571  -0.315   0.273  0.00  0.00    -0.491 OA
ENDBRANCH  14  21
ENDBRANCH  13  19
ENDBRANCH  12  13
ENDBRANCH  11  12
ENDBRANCH  10  11
ENDBRANCH   1  10
BRANCH   9  22
ATOM     22  S   UNL     1      -3.347  -7.272   0.840  0.00  0.00    -0.054 S 
BRANCH  22  23
ATOM     23  C   UNL     1      -4.917  -7.883   1.511  0.00  0.00    +0.214 C 
ATOM     24  C   UNL     1      -6.050  -7.559   0.534  0.00  0.00    +0.185 C 
ATOM     25  C   UNL     1      -7.363  -8.132   1.079  0.00  0.00    +0.177 C 
ATOM     26  C   UNL     1      -7.198  -9.638   1.299  0.00  0.00    +0.176 C 
ATOM     27  C   UNL     1      -6.020  -9.882   2.247  0.00  0.00    +0.176 C 
ATOM     28  O   UNL     1      -4.838  -9.298   1.695  0.00  0.00    -0.355 OA
BRANCH  26  29
ATOM     29  O   UNL     1      -8.393 -10.171   1.874  0.00  0.00    -0.386 OA
ATOM     30  H   UNL     1      -9.181 -10.047   1.328  0.00  0.00    +0.210 HD
ENDBRANCH  26  29
BRANCH  25  31
ATOM     31  O   UNL     1      -7.682  -7.497   2.319  0.00  0.00    -0.386 OA
ATOM     32  H   UNL     1      -7.795  -6.539   2.253  0.00  0.00    +0.210 HD
ENDBRANCH  25  31
BRANCH  24  33
ATOM     33  O   UNL     1      -6.168  -6.143   0.392  0.00  0.00    -0.386 OA
ATOM     34  H   UNL     1      -5.370  -5.713   0.054  0.00  0.00    +0.210 HD
ENDBRANCH  24  33
BRANCH  27  35
ATOM     35  C   UNL     1      -6.318  -9.244   3.605  0.00  0.00    +0.190 C 
BRANCH  35  36
ATOM     36  O   UNL     1      -5.292  -9.600   4.534  0.00  0.00    -0.392 OA
ATOM     37  H   UNL     1      -5.416  -9.229   5.418  0.00  0.00    +0.210 HD
ENDBRANCH  35  36
ENDBRANCH  27  35
ENDBRANCH  22  23
ENDBRANCH   9  22
TORSDOF 13
