REMARK  Name = ZINC03999711
REMARK  9 active torsions:
REMARK  status: ('A' for Active; 'I' for Inactive)
REMARK    1  A    between atoms: C_1  and  C_2
REMARK    2  A    between atoms: C_2  and  O_3
REMARK    3  A    between atoms: O_3  and  C_4
REMARK    4  A    between atoms: C_7  and  N_13
REMARK    5  A    between atoms: C_8  and  N_10
REMARK    6  A    between atoms: N_13  and  C_14
REMARK    7  A    between atoms: C_16  and  O_26
REMARK    8  A    between atoms: C_18  and  O_25
REMARK    9  A    between atoms: C_20  and  O_24
REMARK                            x       y       z     vdW  Elec       q    Type
REMARK                         _______ _______ _______ _____ _____    ______ ____
ROOT
ATOM      1  N   UNL     1       0.054  -0.337   2.552  0.00  0.00    -0.315 N 
ATOM      2  H   UNL     1       0.072  -0.853   1.731  0.00  0.00    +0.149 HD
ENDROOT
BRANCH   1   6
ATOM      3  C   UNL     1       0.051  -2.281   6.239  0.00  0.00    +0.123 A 
ATOM      4  C   UNL     1      -0.110  -0.905   6.181  0.00  0.00    +0.047 A 
ATOM      5  C   UNL     1      -0.109  -0.260   4.960  0.00  0.00    +0.029 A 
ATOM      6  C   UNL     1       0.053  -0.990   3.790  0.00  0.00    +0.060 A 
ATOM      7  C   UNL     1       0.209  -2.368   3.848  0.00  0.00    +0.150 A 
ATOM      8  C   UNL     1       0.213  -3.011   5.071  0.00  0.00    +0.080 A 
BRANCH   7   9
ATOM      9  N   UNL     1       0.376  -3.147   2.601  0.00  0.00    +0.058 N 
ATOM     10  O   UNL     1       0.397  -4.365   2.642  0.00  0.00    -0.126 OA
ATOM     11  O   UNL     1       0.491  -2.572   1.534  0.00  0.00    -0.126 OA
ENDBRANCH   7   9
BRANCH   3  12
ATOM     12  O   UNL     1       0.050  -2.916   7.442  0.00  0.00    -0.492 OA
BRANCH  12  14
ATOM     13  C   UNL     1      -0.097  -2.986   9.853  0.00  0.00    +0.048 C 
ATOM     14  C   UNL     1      -0.122  -2.103   8.604  0.00  0.00    +0.225 C 
ENDBRANCH  12  14
ENDBRANCH   3  12
ENDBRANCH   1   6
BRANCH   1  15
ATOM     15  C   UNL     1       0.028   1.127   2.496  0.00  0.00    +0.235 C 
ATOM     16  C   UNL     1      -0.766   1.577   1.266  0.00  0.00    +0.192 C 
ATOM     17  C   UNL     1      -0.061   1.076   0.002  0.00  0.00    +0.178 C 
ATOM     18  C   UNL     1       1.377   1.603  -0.010  0.00  0.00    +0.171 C 
ATOM     19  C   UNL     1       2.088   1.152   1.269  0.00  0.00    +0.196 C 
ATOM     20  O   UNL     1       1.364   1.625   2.407  0.00  0.00    -0.354 OA
BRANCH  18  21
ATOM     21  O   UNL     1       2.067   1.084  -1.149  0.00  0.00    -0.387 OA
ATOM     22  H   UNL     1       2.986   1.377  -1.220  0.00  0.00    +0.210 HD
ENDBRANCH  18  21
BRANCH  17  23
ATOM     23  O   UNL     1      -0.753   1.552  -1.154  0.00  0.00    -0.386 OA
ATOM     24  H   UNL     1      -0.358   1.274  -1.992  0.00  0.00    +0.210 HD
ENDBRANCH  17  23
BRANCH  16  25
ATOM     25  O   UNL     1      -2.086   1.032   1.324  0.00  0.00    -0.385 OA
ATOM     26  H   UNL     1      -2.591   1.308   2.101  0.00  0.00    +0.210 HD
ENDBRANCH  16  25
ENDBRANCH   1  15
TORSDOF 8
