REMARK  Name = ZINC00279809
REMARK  12 active torsions:
REMARK  status: ('A' for Active; 'I' for Inactive)
REMARK    1  A    between atoms: C_1  and  C_2
REMARK    2  A    between atoms: C_2  and  O_3
REMARK    3  A    between atoms: O_3  and  C_4
REMARK    4  A    between atoms: C_6  and  C_11
REMARK    5  A    between atoms: C_9  and  O_10
REMARK    6  A    between atoms: C_13  and  C_20
REMARK    7  A    between atoms: C_14  and  C_19
REMARK    8  A    between atoms: C_20  and  O_22
REMARK    9  A    between atoms: O_22  and  C_23
REMARK   10  A    between atoms: C_23  and  C_24
REMARK   11  A    between atoms: C_23  and  C_25
REMARK   12  A    between atoms: C_23  and  C_26
REMARK                            x       y       z     vdW  Elec       q    Type
REMARK                         _______ _______ _______ _____ _____    ______ ____
ROOT
ATOM      1  C   UNL     1       0.096  -5.112  -1.043  0.00  0.00    +0.144 C 
ATOM      2  C   UNL     1      -1.329  -5.008  -0.538  0.00  0.00    +0.078 C 
ATOM      3  C   UNL     1      -1.835  -6.062   0.138  0.00  0.00    +0.021 C 
ATOM      4  N   UNL     1      -1.086  -7.183   0.358  0.00  0.00    -0.273 N 
ATOM      5  C   UNL     1       0.176  -7.328  -0.064  0.00  0.00    +0.304 C 
ATOM      6  O   UNL     1       0.763  -8.364   0.180  0.00  0.00    -0.252 OA
ATOM      7  N   UNL     1       0.817  -6.363  -0.752  0.00  0.00    -0.288 N 
ATOM      8  C   UNL     1      -3.248  -6.001   0.657  0.00  0.00    +0.061 C 
ATOM      9  H   UNL     1      -1.491  -7.915   0.849  0.00  0.00    +0.156 HD
ATOM     10  H   UNL     1       1.732  -6.489  -1.048  0.00  0.00    +0.151 HD
ENDROOT
BRANCH   1  13
ATOM     11  C   UNL     1       2.031  -2.992   1.413  0.00  0.00    +0.162 A 
ATOM     12  C   UNL     1       1.307  -4.038   0.866  0.00  0.00    +0.055 A 
ATOM     13  C   UNL     1       0.883  -3.973  -0.449  0.00  0.00    -0.019 A 
ATOM     14  C   UNL     1       1.181  -2.864  -1.219  0.00  0.00    +0.009 A 
ATOM     15  C   UNL     1       1.903  -1.817  -0.679  0.00  0.00    +0.049 A 
ATOM     16  C   UNL     1       2.325  -1.873   0.640  0.00  0.00    +0.158 A 
BRANCH  16  17
ATOM     17  O   UNL     1       3.031  -0.841   1.175  0.00  0.00    -0.503 OA
ATOM     18  H   UNL     1       3.989  -0.922   1.068  0.00  0.00    +0.292 HD
ENDBRANCH  16  17
BRANCH  11  19
ATOM     19  O   UNL     1       2.447  -3.055   2.707  0.00  0.00    -0.489 OA
BRANCH  19  21
ATOM     20  C   UNL     1       2.826  -4.195   4.804  0.00  0.00    +0.048 C 
ATOM     21  C   UNL     1       2.207  -4.277   3.407  0.00  0.00    +0.226 C 
ENDBRANCH  19  21
ENDBRANCH  11  19
ENDBRANCH   1  13
BRANCH   2  22
ATOM     22  C   UNL     1      -2.103  -3.847  -0.767  0.00  0.00    +0.339 C 
ATOM     23  O   UNL     1      -3.281  -3.831  -0.463  0.00  0.00    -0.245 OA
BRANCH  22  24
ATOM     24  O   UNL     1      -1.535  -2.756  -1.324  0.00  0.00    -0.456 OA
BRANCH  24  25
ATOM     25  C   UNL     1      -2.343  -1.582  -1.419  0.00  0.00    +0.106 C 
ATOM     26  C   UNL     1      -2.856  -1.201  -0.029  0.00  0.00    +0.055 C 
ATOM     27  C   UNL     1      -1.507  -0.432  -1.986  0.00  0.00    +0.055 C 
ATOM     28  C   UNL     1      -3.531  -1.853  -2.344  0.00  0.00    +0.055 C 
ENDBRANCH  24  25
ENDBRANCH  22  24
ENDBRANCH   2  22
TORSDOF 7
