REMARK  Name = ZINC05997455
REMARK  5 active torsions:
REMARK  status: ('A' for Active; 'I' for Inactive)
REMARK    1  A    between atoms: C_1  and  S_2
REMARK    2  A    between atoms: S_2  and  C_3
REMARK    3  A    between atoms: C_6  and  C_9
REMARK    4  A    between atoms: N_14  and  C_17
REMARK    5  A    between atoms: C_15  and  O_16
REMARK                            x       y       z     vdW  Elec       q    Type
REMARK                         _______ _______ _______ _____ _____    ______ ____
ROOT
ATOM      1  C   UNL     1       2.901  -1.397  -5.106  0.00  0.00    +0.092 C 
ATOM      2  C   UNL     1       1.995  -2.204  -5.990  0.00  0.00    +0.067 A 
ATOM      3  C   UNL     1       2.175  -3.595  -6.178  0.00  0.00    +0.153 A 
ATOM      4  N   UNL     1       1.249  -4.024  -6.983  0.00  0.00    -0.148 NA
ATOM      5  N   UNL     1       0.442  -2.934  -7.346  0.00  0.00    -0.199 N 
ATOM      6  C   UNL     1       0.927  -1.824  -6.718  0.00  0.00    +0.222 A 
ATOM      7  N   UNL     1       3.223  -4.269  -5.545  0.00  0.00    -0.301 N 
ATOM      8  C   UNL     1       4.237  -3.528  -4.989  0.00  0.00    +0.017 C 
ATOM      9  C   UNL     1       4.142  -2.200  -4.777  0.00  0.00    +0.024 C 
ATOM     10  C   UNL     1       5.221  -1.481  -4.229  0.00  0.00    +0.162 C 
ATOM     11  C   UNL     1       6.514  -2.154  -3.865  0.00  0.00    +0.080 C 
ATOM     12  C   UNL     1       6.708  -3.377  -4.768  0.00  0.00    +0.014 C 
ATOM     13  C   UNL     1       5.491  -4.284  -4.609  0.00  0.00    +0.051 C 
ATOM     14  O   UNL     1       5.104  -0.286  -4.045  0.00  0.00    -0.292 OA
ATOM     15  H   UNL     1       3.234  -5.237  -5.498  0.00  0.00    +0.153 HD
ENDROOT
BRANCH   1  19
ATOM     16  C   UNL     1       0.848  -0.411  -1.489  0.00  0.00    +0.008 A 
ATOM     17  C   UNL     1       1.315   0.599  -2.322  0.00  0.00    +0.015 A 
ATOM     18  C   UNL     1       1.978   0.276  -3.490  0.00  0.00    +0.005 A 
ATOM     19  C   UNL     1       2.178  -1.049  -3.830  0.00  0.00    -0.035 A 
ATOM     20  C   UNL     1       1.714  -2.056  -3.004  0.00  0.00    +0.005 A 
ATOM     21  C   UNL     1       1.056  -1.742  -1.831  0.00  0.00    +0.015 A 
BRANCH  16  23
ATOM     22  C   UNL     1      -0.022   1.810   0.012  0.00  0.00    +0.090 C 
ATOM     23  S   UNL     1       0.002  -0.004   0.002  0.00  0.00    -0.129 S 
ENDBRANCH  16  23
ENDBRANCH   1  19
BRANCH   5  24
ATOM     24  C   UNL     1      -0.665  -2.978  -8.203  0.00  0.00    +0.069 A 
ATOM     25  C   UNL     1      -1.758  -2.154  -7.970  0.00  0.00    +0.028 A 
ATOM     26  C   UNL     1      -2.849  -2.199  -8.817  0.00  0.00    +0.002 A 
ATOM     27  C   UNL     1      -2.853  -3.066  -9.895  0.00  0.00    +0.000 A 
ATOM     28  C   UNL     1      -1.766  -3.888 -10.129  0.00  0.00    +0.002 A 
ATOM     29  C   UNL     1      -0.670  -3.842  -9.290  0.00  0.00    +0.028 A 
ENDBRANCH   5  24
BRANCH   6  30
ATOM     30  O   UNL     1       0.425  -0.566  -6.810  0.00  0.00    -0.492 OA
ATOM     31  H   UNL     1       0.807  -0.042  -7.527  0.00  0.00    +0.294 HD
ENDBRANCH   6  30
TORSDOF 4
