REMARK  Name = ZINC22632667
REMARK  7 active torsions:
REMARK  status: ('A' for Active; 'I' for Inactive)
REMARK    1  A    between atoms: C_1  and  C_2
REMARK    2  A    between atoms: C_2  and  C_4
REMARK    3  A    between atoms: C_2  and  S_17
REMARK    4  A    between atoms: N_6  and  N_7
REMARK    5  A    between atoms: C_8  and  C_10
REMARK    6  A    between atoms: S_17  and  C_18
REMARK    7  A    between atoms: C_21  and  N_24
REMARK                            x       y       z     vdW  Elec       q    Type
REMARK                         _______ _______ _______ _____ _____    ______ ____
ROOT
ATOM      1  C   UNL     1      -0.636   3.107   1.375  0.00  0.00    +0.242 C 
ATOM      2  O   UNL     1       0.234   3.625   2.042  0.00  0.00    -0.273 OA
ATOM      3  N   UNL     1      -1.533   3.874   0.724  0.00  0.00    -0.233 N 
ATOM      4  H   UNL     1      -2.322   3.404   0.119  0.00  0.00    +0.173 HD
ENDROOT
BRANCH   3   5
ATOM      5  N   UNL     1      -1.461   5.270   0.820  0.00  0.00    -0.230 N 
ATOM      6  C   UNL     1      -2.358   6.037   0.170  0.00  0.00    +0.260 C 
ATOM      7  O   UNL     1      -3.230   5.518  -0.500  0.00  0.00    -0.269 OA
ATOM      8  H   UNL     1      -0.672   5.740   1.426  0.00  0.00    +0.173 HD
BRANCH   6   9
ATOM      9  C   UNL     1      -2.282   7.510   0.271  0.00  0.00    +0.040 A 
ATOM     10  C   UNL     1      -1.286   8.109   1.043  0.00  0.00    +0.013 A 
ATOM     11  C   UNL     1      -1.217   9.484   1.130  0.00  0.00    +0.002 A 
ATOM     12  C   UNL     1      -2.139  10.270   0.461  0.00  0.00    +0.020 A 
ATOM     13  C   UNL     1      -3.133   9.683  -0.303  0.00  0.00    +0.042 A 
ATOM     14  C   UNL     1      -3.210   8.307  -0.401  0.00  0.00    +0.033 A 
ATOM     15 CL   UNL     1      -4.286  10.677  -1.138  0.00  0.00    -0.084 Cl
ENDBRANCH   6   9
ENDBRANCH   3   5
BRANCH   1  17
ATOM     16  C   UNL     1       0.022   1.142   0.013  0.00  0.00    +0.029 C 
ATOM     17  C   UNL     1      -0.713   1.605   1.272  0.00  0.00    +0.135 C 
BRANCH  17  18
ATOM     18  S   UNL     1       0.060   0.859   2.733  0.00  0.00    -0.113 S 
BRANCH  18  19
ATOM     19  C   UNL     1      -1.035   1.270   4.051  0.00  0.00    +0.009 A 
ATOM     20  C   UNL     1      -2.239   1.909   3.783  0.00  0.00    +0.017 A 
ATOM     21  C   UNL     1      -3.097   2.224   4.818  0.00  0.00    +0.034 A 
ATOM     22  C   UNL     1      -2.754   1.915   6.121  0.00  0.00    +0.126 A 
ATOM     23  C   UNL     1      -1.553   1.285   6.393  0.00  0.00    +0.034 A 
ATOM     24  C   UNL     1      -0.693   0.962   5.362  0.00  0.00    +0.017 A 
BRANCH  22  25
ATOM     25  N   UNL     1      -3.673   2.260   7.229  0.00  0.00    +0.056 N 
ATOM     26  O   UNL     1      -3.372   1.989   8.377  0.00  0.00    -0.126 OA
ATOM     27  O   UNL     1      -4.731   2.815   6.991  0.00  0.00    -0.126 OA
ENDBRANCH  22  25
ENDBRANCH  18  19
ENDBRANCH  17  18
ENDBRANCH   1  17
TORSDOF 6
