REMARK  Name = ZINC63384855
REMARK  8 active torsions:
REMARK  status: ('A' for Active; 'I' for Inactive)
REMARK    1  A    between atoms: C_1  and  C_2
REMARK    2  A    between atoms: C_13  and  C_15
REMARK    3  A    between atoms: C_15  and  C_16
REMARK    4  A    between atoms: N_18  and  C_19
REMARK    5  A    between atoms: C_19  and  C_20
REMARK    6  A    between atoms: C_20  and  C_21
REMARK    7  A    between atoms: C_32  and  C_35
REMARK    8  A    between atoms: C_32  and  C_36
REMARK                            x       y       z     vdW  Elec       q    Type
REMARK                         _______ _______ _______ _____ _____    ______ ____
ROOT
ATOM      1  C   UNL     1      -0.019   1.526   0.010  0.00  0.00    +0.013 C 
ATOM      2  C   UNL     1       0.002  -0.004   0.002  0.00  0.00    +0.034 C 
ATOM      3  C   UNL     1       0.705  -0.489  -1.241  0.00  0.00    -0.001 A 
ATOM      4  C   UNL     1      -0.001  -0.513  -2.433  0.00  0.00    +0.014 A 
ATOM      5  C   UNL     1       0.601  -0.943  -3.602  0.00  0.00    -0.005 A 
ATOM      6  C   UNL     1       1.924  -1.351  -3.586  0.00  0.00    +0.128 A 
ATOM      7  C   UNL     1       2.633  -1.332  -2.392  0.00  0.00    +0.092 A 
ATOM      8  C   UNL     1       2.024  -0.905  -1.219  0.00  0.00    +0.139 A 
ATOM      9  O   UNL     1       2.753  -0.920  -0.069  0.00  0.00    -0.425 OA
ATOM     10  C   UNL     1       2.223  -0.314   1.012  0.00  0.00    +0.316 C 
ATOM     11  O   UNL     1       2.899   0.353   1.759  0.00  0.00    -0.250 OA
ATOM     12  C   UNL     1       0.740  -0.510   1.246  0.00  0.00    +0.114 C 
ATOM     13  O   UNL     1       2.559  -1.767  -4.712  0.00  0.00    -0.486 OA
ATOM     14  C   UNL     1       1.756  -2.136  -5.834  0.00  0.00    +0.105 C 
ATOM     15  C   UNL     1       0.729  -1.023  -6.082  0.00  0.00    +0.052 C 
ATOM     16  C   UNL     1      -0.209  -0.957  -4.874  0.00  0.00    +0.042 C 
ATOM     17  C   UNL     1       1.030  -3.450  -5.537  0.00  0.00    +0.055 C 
ATOM     18  C   UNL     1       2.642  -2.304  -7.069  0.00  0.00    +0.055 C 
ENDROOT
BRANCH  12  19
ATOM     19  C   UNL     1       0.440  -1.995   1.459  0.00  0.00    +0.111 C 
BRANCH  19  20
ATOM     20  C   UNL     1       1.068  -2.454   2.749  0.00  0.00    +0.214 C 
ATOM     21  O   UNL     1       1.694  -1.671   3.431  0.00  0.00    -0.276 OA
ATOM     22  N   UNL     1       0.934  -3.735   3.146  0.00  0.00    -0.315 N 
ATOM     23  H   UNL     1       0.433  -4.362   2.600  0.00  0.00    +0.149 HD
BRANCH  22  24
ATOM     24  C   UNL     1       1.545  -4.182   4.400  0.00  0.00    +0.108 C 
BRANCH  24  25
ATOM     25  C   UNL     1       1.245  -5.667   4.613  0.00  0.00    +0.052 C 
BRANCH  25  26
ATOM     26  C   UNL     1       1.874  -6.126   5.904  0.00  0.00    -0.040 C 
ATOM     27  C   UNL     1       1.277  -6.207   7.115  0.00  0.00    +0.000 A 
ATOM     28  C   UNL     1      -0.083  -5.904   7.576  0.00  0.00    +0.030 A 
ATOM     29  C   UNL     1      -0.391  -6.089   8.880  0.00  0.00    +0.042 A 
ATOM     30  C   UNL     1       0.556  -6.563   9.801  0.00  0.00    +0.022 A 
ATOM     31  C   UNL     1       1.825  -6.864   9.452  0.00  0.00    +0.027 A 
ATOM     32  C   UNL     1       2.257  -6.706   8.106  0.00  0.00    +0.043 A 
ATOM     33  N   UNL     1       3.414  -6.925   7.530  0.00  0.00    -0.380 N 
ATOM     34  C   UNL     1       3.297  -6.595   6.105  0.00  0.00    +0.144 C 
ATOM     35 CL   UNL     1      -1.998  -5.731   9.429  0.00  0.00    -0.084 Cl
ATOM     36  H   UNL     1       4.213  -7.253   7.971  0.00  0.00    +0.160 HD
ENDBRANCH  25  26
ENDBRANCH  24  25
ENDBRANCH  22  24
ENDBRANCH  19  20
ENDBRANCH  12  19
TORSDOF 5
