REMARK  Name = ZINC36273235
REMARK  10 active torsions:
REMARK  status: ('A' for Active; 'I' for Inactive)
REMARK    1  A    between atoms: C_1  and  C_2
REMARK    2  A    between atoms: N_6  and  C_30
REMARK    3  A    between atoms: C_9  and  C_14
REMARK    4  A    between atoms: C_15  and  C_24
REMARK    5  A    between atoms: C_18  and  N_23
REMARK    6  A    between atoms: C_24  and  N_25
REMARK    7  A    between atoms: N_25  and  C_26
REMARK    8  A    between atoms: N_25  and  C_27
REMARK    9  A    between atoms: C_27  and  C_28
REMARK   10  A    between atoms: C_28  and  O_29
REMARK                            x       y       z     vdW  Elec       q    Type
REMARK                         _______ _______ _______ _____ _____    ______ ____
ROOT
ATOM      1  C   UNL     1       0.109  -5.941   2.327  0.00  0.00    +0.091 A 
ATOM      2  C   UNL     1       1.074  -6.894   2.191  0.00  0.00    +0.035 A 
ATOM      3  N   UNL     1       0.537  -8.074   2.621  0.00  0.00    -0.303 N 
ATOM      4  C   UNL     1       1.048  -9.340   2.708  0.00  0.00    +0.115 A 
ATOM      5  C   UNL     1       0.288 -10.358   3.180  0.00  0.00    +0.041 A 
ATOM      6  C   UNL     1      -1.040 -10.120   3.588  0.00  0.00    +0.028 A 
ATOM      7  C   UNL     1      -1.554  -8.864   3.505  0.00  0.00    +0.048 A 
ATOM      8  C   UNL     1      -0.751  -7.817   3.011  0.00  0.00    +0.138 A 
ATOM      9  N   UNL     1      -0.989  -6.525   2.832  0.00  0.00    -0.228 NA
ENDROOT
BRANCH   1  17
ATOM     10  C   UNL     1      -0.033   1.446  -0.240  0.00  0.00    +0.062 C 
ATOM     11  C   UNL     1       0.023  -0.082  -0.201  0.00  0.00    +0.256 C 
ATOM     12  C   UNL     1      -1.377  -0.637  -0.272  0.00  0.00    +0.260 C 
ATOM     13  O   UNL     1      -2.250  -0.017  -0.842  0.00  0.00    -0.271 OA
ATOM     14  N   UNL     1      -1.656  -1.828   0.300  0.00  0.00    -0.268 N 
ATOM     15  C   UNL     1      -0.637  -2.509   0.983  0.00  0.00    +0.079 A 
ATOM     16  C   UNL     1      -0.775  -3.847   1.302  0.00  0.00    +0.037 A 
ATOM     17  C   UNL     1       0.249  -4.505   1.981  0.00  0.00    +0.004 A 
ATOM     18  C   UNL     1       1.406  -3.812   2.336  0.00  0.00    +0.014 A 
ATOM     19  C   UNL     1       1.540  -2.476   2.014  0.00  0.00    +0.048 A 
ATOM     20  C   UNL     1       0.523  -1.821   1.339  0.00  0.00    +0.143 A 
ATOM     21  O   UNL     1       0.645  -0.505   1.015  0.00  0.00    -0.478 OA
ATOM     22  C   UNL     1      -3.001  -2.400   0.211  0.00  0.00    +0.138 C 
ENDBRANCH   1  17
BRANCH   5  23
ATOM     23  N   UNL     1       0.824 -11.650   3.263  0.00  0.00    -0.357 N 
ATOM     24  H   UNL     1       1.738 -11.816   2.982  0.00  0.00    +0.142 HD
ATOM     25  H   UNL     1       0.281 -12.380   3.601  0.00  0.00    +0.142 HD
ENDBRANCH   5  23
BRANCH   2  26
ATOM     26  C   UNL     1       2.471  -6.684   1.666  0.00  0.00    -0.022 C 
BRANCH  26  27
ATOM     27  N   UNL     1       2.455  -6.730   0.198  0.00  0.00    +0.383 N 
ATOM     28  C   UNL     1       2.071  -8.077  -0.245  0.00  0.00    -0.096 C 
ATOM     29  H   UNL     1       1.788  -6.058  -0.152  0.00  0.00    -0.082 HD
BRANCH  27  30
ATOM     30  C   UNL     1       3.792  -6.407  -0.317  0.00  0.00    -0.051 C 
BRANCH  30  31
ATOM     31  C   UNL     1       3.745  -6.333  -1.845  0.00  0.00    +0.137 C 
BRANCH  31  32
ATOM     32  O   UNL     1       2.913  -5.242  -2.244  0.00  0.00    -0.397 OA
ATOM     33  H   UNL     1       2.838  -5.135  -3.202  0.00  0.00    +0.209 HD
ENDBRANCH  31  32
ENDBRANCH  30  31
ENDBRANCH  27  30
ENDBRANCH  26  27
ENDBRANCH   2  26
TORSDOF 7
