REMARK  Name = ZINC03458100
REMARK  6 active torsions:
REMARK  status: ('A' for Active; 'I' for Inactive)
REMARK    1  A    between atoms: C_1  and  C_2
REMARK    2  A    between atoms: C_7  and  N_8
REMARK    3  A    between atoms: C_9  and  C_11
REMARK    4  A    between atoms: C_11  and  N_12
REMARK    5  A    between atoms: C_13  and  C_15
REMARK    6  A    between atoms: C_15  and  N_16
REMARK                            x       y       z     vdW  Elec       q    Type
REMARK                         _______ _______ _______ _____ _____    ______ ____
ROOT
ATOM      1  N   UNL     1      -0.240  -0.903   5.989  0.00  0.00    -0.305 N 
ATOM      2  C   UNL     1      -0.345  -0.460   7.257  0.00  0.00    +0.231 C 
ATOM      3  O   UNL     1      -0.377   0.731   7.483  0.00  0.00    -0.274 OA
ATOM      4  H   UNL     1      -0.214  -1.856   5.809  0.00  0.00    +0.149 HD
ENDROOT
BRANCH   1   5
ATOM      5  C   UNL     1      -0.167   0.054   4.882  0.00  0.00    +0.200 C 
BRANCH   5   7
ATOM      6  N   UNL     1       0.026  -0.014   2.417  0.00  0.00    -0.284 N 
ATOM      7  C   UNL     1      -0.056  -0.694   3.578  0.00  0.00    +0.234 C 
ATOM      8  O   UNL     1      -0.040  -1.906   3.574  0.00  0.00    -0.274 OA
ATOM      9  H   UNL     1       0.079   0.955   2.425  0.00  0.00    +0.155 HD
BRANCH   6  16
ATOM     10  C   UNL     1      -1.265   1.183   0.182  0.00  0.00    +0.046 C 
ATOM     11  C   UNL     1      -0.584  -0.158   0.085  0.00  0.00    -0.028 A 
ATOM     12  C   UNL     1      -0.570  -0.840  -1.116  0.00  0.00    +0.020 A 
ATOM     13  C   UNL     1       0.055  -2.071  -1.206  0.00  0.00    +0.018 A 
ATOM     14  C   UNL     1       0.666  -2.623  -0.094  0.00  0.00    +0.017 A 
ATOM     15  C   UNL     1       0.655  -1.945   1.109  0.00  0.00    +0.024 A 
ATOM     16  C   UNL     1       0.034  -0.706   1.201  0.00  0.00    +0.036 A 
ATOM     17 BR   UNL     1       0.072  -3.002  -2.852  0.00  0.00    -0.050 Br
ENDBRANCH   6  16
ENDBRANCH   5   7
ENDBRANCH   1   5
BRANCH   2  18
ATOM     18  C   UNL     1      -0.420  -1.445   8.396  0.00  0.00    +0.213 C 
BRANCH  18  19
ATOM     19  N   UNL     1      -0.528  -0.719   9.663  0.00  0.00    -0.215 N 
ATOM     20  C   UNL     1       0.527  -0.325  10.401  0.00  0.00    +0.247 C 
ATOM     21  O   UNL     1       1.700  -0.500  10.151  0.00  0.00    -0.273 OA
ATOM     22  C   UNL     1      -0.055   0.385  11.612  0.00  0.00    +0.113 C 
ATOM     23  C   UNL     1       0.343   1.876  11.522  0.00  0.00    +0.035 C 
ATOM     24  C   UNL     1      -0.641   2.690  12.315  0.00  0.00    +0.003 C 
ATOM     25  C   UNL     1      -0.172   2.948  13.760  0.00  0.00    +0.000 C 
ATOM     26  C   UNL     1       0.465   1.706  14.412  0.00  0.00    +0.000 C 
ATOM     27  C   UNL     1      -0.292   0.444  14.096  0.00  0.00    +0.003 C 
ATOM     28  C   UNL     1       0.362  -0.221  12.870  0.00  0.00    +0.035 C 
ATOM     29  N   UNL     1      -1.512   0.292  11.390  0.00  0.00    -0.285 N 
ATOM     30  C   UNL     1      -1.686  -0.360  10.227  0.00  0.00    +0.310 C 
ATOM     31  O   UNL     1      -2.776  -0.601   9.744  0.00  0.00    -0.252 OA
ATOM     32  H   UNL     1      -2.209   0.638  11.969  0.00  0.00    +0.151 HD
ENDBRANCH  18  19
ENDBRANCH   2  18
TORSDOF 5
