REMARK  Name = ZINC25411816
REMARK  9 active torsions:
REMARK  status: ('A' for Active; 'I' for Inactive)
REMARK    1  A    between atoms: C_1  and  C_2
REMARK    2  A    between atoms: C_2  and  C_3
REMARK    3  A    between atoms: C_3  and  N_4
REMARK    4  A    between atoms: C_5  and  N_29
REMARK    5  A    between atoms: C_6  and  C_13
REMARK    6  A    between atoms: C_13  and  C_15
REMARK    7  A    between atoms: C_15  and  N_16
REMARK    8  A    between atoms: N_19  and  C_22
REMARK    9  A    between atoms: C_27  and  C_28
REMARK                            x       y       z     vdW  Elec       q    Type
REMARK                         _______ _______ _______ _____ _____    ______ ____
ROOT
ATOM      1  C   UNL     1      -1.407  -4.594  -2.506  0.00  0.00    +0.185 C 
ATOM      2  O   UNL     1      -1.333  -3.924  -3.517  0.00  0.00    -0.290 OA
ENDROOT
BRANCH   1   5
ATOM      3  N   UNL     1      -1.425  -2.005   0.118  0.00  0.00    -0.281 N 
ATOM      4  C   UNL     1      -1.432  -2.566  -1.127  0.00  0.00    +0.116 A 
ATOM      5  C   UNL     1      -1.401  -3.966  -1.242  0.00  0.00    +0.121 A 
ATOM      6  C   UNL     1      -1.361  -4.756  -0.004  0.00  0.00    +0.266 A 
ATOM      7  O   UNL     1      -1.332  -5.972  -0.044  0.00  0.00    -0.267 OA
ATOM      8  N   UNL     1      -1.357  -4.105   1.177  0.00  0.00    -0.274 N 
ATOM      9  H   UNL     1      -1.331  -4.613   2.003  0.00  0.00    +0.173 HD
ATOM     10  C   UNL     1      -1.383  -2.763   1.225  0.00  0.00    +0.331 A 
ATOM     11  O   UNL     1      -1.374  -2.215   2.310  0.00  0.00    -0.246 OA
BRANCH   4  12
ATOM     12  N   UNL     1      -1.470  -1.781  -2.239  0.00  0.00    -0.344 N 
ATOM     13  H   UNL     1      -1.571  -0.821  -2.151  0.00  0.00    +0.144 HD
ATOM     14  H   UNL     1      -1.395  -2.183  -3.118  0.00  0.00    +0.144 HD
ENDBRANCH   4  12
BRANCH   3  15
ATOM     15  C   UNL     1      -1.457  -0.546   0.248  0.00  0.00    +0.128 C 
BRANCH  15  17
ATOM     16  C   UNL     1      -0.060   1.520   0.399  0.00  0.00    +0.005 C 
ATOM     17  C   UNL     1      -0.026  -0.003   0.263  0.00  0.00    +0.018 C 
ENDBRANCH  15  17
ENDBRANCH   3  15
ENDBRANCH   1   5
BRANCH   1  18
ATOM     18  C   UNL     1      -1.506  -6.094  -2.602  0.00  0.00    +0.164 C 
BRANCH  18  19
ATOM     19  N   UNL     1      -1.493  -6.497  -4.015  0.00  0.00    -0.292 NA
ATOM     20  C   UNL     1      -2.694  -6.015  -4.710  0.00  0.00    +0.104 C 
ATOM     21  C   UNL     1      -2.558  -6.295  -6.211  0.00  0.00    +0.120 C 
ATOM     22  N   UNL     1      -2.264  -7.725  -6.394  0.00  0.00    -0.327 N 
ATOM     23  C   UNL     1      -1.157  -8.312  -5.624  0.00  0.00    +0.120 C 
ATOM     24  C   UNL     1      -1.348  -7.952  -4.146  0.00  0.00    +0.104 C 
BRANCH  22  25
ATOM     25  C   UNL     1      -3.016  -8.504  -7.277  0.00  0.00    +0.033 A 
ATOM     26  C   UNL     1      -2.625  -8.626  -8.604  0.00  0.00    +0.023 A 
ATOM     27  C   UNL     1      -3.370  -9.397  -9.474  0.00  0.00    +0.002 A 
ATOM     28  C   UNL     1      -4.505 -10.047  -9.025  0.00  0.00    +0.000 A 
ATOM     29  C   UNL     1      -4.897  -9.928  -7.704  0.00  0.00    +0.005 A 
ATOM     30  C   UNL     1      -4.153  -9.163  -6.828  0.00  0.00    -0.029 A 
ATOM     31  C   UNL     1      -4.577  -9.038  -5.387  0.00  0.00    +0.045 C 
ENDBRANCH  22  25
ENDBRANCH  18  19
ENDBRANCH   1  18
TORSDOF 7
