REMARK  Name = ZINC55764802
REMARK  8 active torsions:
REMARK  status: ('A' for Active; 'I' for Inactive)
REMARK    1  A    between atoms: C_1  and  C_2
REMARK    2  A    between atoms: C_2  and  N_3
REMARK    3  A    between atoms: C_4  and  C_6
REMARK    4  A    between atoms: C_9  and  N_13
REMARK    5  A    between atoms: C_10  and  C_12
REMARK    6  A    between atoms: C_14  and  C_16
REMARK    7  A    between atoms: C_16  and  N_17
REMARK    8  A    between atoms: C_25  and  C_29
REMARK                            x       y       z     vdW  Elec       q    Type
REMARK                         _______ _______ _______ _____ _____    ______ ____
ROOT
ATOM      1  N   UNL     1       3.467  -3.618  -6.066  0.00  0.00    -0.284 N 
ATOM      2  C   UNL     1       3.875  -2.735  -7.000  0.00  0.00    +0.235 C 
ATOM      3  O   UNL     1       3.756  -1.545  -6.801  0.00  0.00    -0.274 OA
ATOM      4  H   UNL     1       3.622  -4.567  -6.196  0.00  0.00    +0.155 HD
ENDROOT
BRANCH   1   8
ATOM      5  C   UNL     1       1.544  -2.272  -2.626  0.00  0.00    +0.037 A 
ATOM      6  C   UNL     1       2.559  -1.506  -3.206  0.00  0.00    +0.015 A 
ATOM      7  C   UNL     1       3.193  -1.954  -4.343  0.00  0.00    +0.024 A 
ATOM      8  C   UNL     1       2.824  -3.167  -4.915  0.00  0.00    +0.036 A 
ATOM      9  C   UNL     1       1.814  -3.932  -4.340  0.00  0.00    -0.029 A 
ATOM     10  C   UNL     1       1.179  -3.493  -3.200  0.00  0.00    +0.018 A 
ATOM     11  C   UNL     1       1.417  -5.246  -4.963  0.00  0.00    +0.045 C 
BRANCH   5  13
ATOM     12  N   UNL     1       1.214  -0.617  -0.855  0.00  0.00    -0.312 N 
ATOM     13  C   UNL     1       0.862  -1.794  -1.407  0.00  0.00    +0.244 C 
ATOM     14  O   UNL     1      -0.018  -2.464  -0.901  0.00  0.00    -0.270 OA
ATOM     15  H   UNL     1       1.916  -0.082  -1.259  0.00  0.00    +0.149 HD
BRANCH  12  17
ATOM     16  C   UNL     1       1.122   1.208   0.771  0.00  0.00    +0.024 C 
ATOM     17  C   UNL     1       0.538  -0.143   0.355  0.00  0.00    +0.101 C 
ENDBRANCH  12  17
ENDBRANCH   5  13
ENDBRANCH   1   8
BRANCH   2  18
ATOM     18  C   UNL     1       4.478  -3.227  -8.290  0.00  0.00    +0.209 C 
BRANCH  18  19
ATOM     19  N   UNL     1       4.836  -2.082  -9.130  0.00  0.00    -0.256 N 
ATOM     20  C   UNL     1       3.910  -1.547 -10.037  0.00  0.00    +0.079 A 
ATOM     21  C   UNL     1       2.564  -1.863  -9.944  0.00  0.00    +0.027 A 
ATOM     22  C   UNL     1       1.668  -1.326 -10.850  0.00  0.00    +0.002 A 
ATOM     23  C   UNL     1       2.111  -0.475 -11.846  0.00  0.00    +0.004 A 
ATOM     24  C   UNL     1       3.453  -0.156 -11.944  0.00  0.00    +0.047 A 
ATOM     25  C   UNL     1       4.356  -0.689 -11.041  0.00  0.00    +0.143 A 
ATOM     26  O   UNL     1       5.679  -0.383 -11.120  0.00  0.00    -0.478 OA
ATOM     27  C   UNL     1       6.399  -0.321  -9.887  0.00  0.00    +0.256 C 
ATOM     28  C   UNL     1       6.061  -1.520  -9.039  0.00  0.00    +0.261 C 
ATOM     29  O   UNL     1       6.887  -1.982  -8.280  0.00  0.00    -0.271 OA
ATOM     30  C   UNL     1       6.012   0.953  -9.134  0.00  0.00    +0.062 C 
ENDBRANCH  18  19
ENDBRANCH   2  18
TORSDOF 5
