REMARK  Name = ZINC64048249
REMARK  10 active torsions:
REMARK  status: ('A' for Active; 'I' for Inactive)
REMARK    1  A    between atoms: C_1  and  C_2
REMARK    2  A    between atoms: C_2  and  N_3
REMARK    3  A    between atoms: N_3  and  C_4
REMARK    4  A    between atoms: N_3  and  C_6
REMARK    5  A    between atoms: C_4  and  C_5
REMARK    6  A    between atoms: C_6  and  C_7
REMARK    7  A    between atoms: C_10  and  C_12
REMARK    8  A    between atoms: N_14  and  N_15
REMARK    9  A    between atoms: C_16  and  C_18
REMARK   10  A    between atoms: C_19  and  C_29
REMARK                            x       y       z     vdW  Elec       q    Type
REMARK                         _______ _______ _______ _____ _____    ______ ____
ROOT
ATOM      1  C   UNL     1      -4.380  -2.948  -0.239  0.00  0.00    +0.295 C 
ATOM      2  O   UNL     1      -5.466  -3.077  -0.773  0.00  0.00    -0.265 OA
ATOM      3  N   UNL     1      -4.260  -3.111   1.093  0.00  0.00    -0.228 N 
ATOM      4  H   UNL     1      -3.395  -3.008   1.519  0.00  0.00    +0.173 HD
ENDROOT
BRANCH   1   8
ATOM      5  C   UNL     1      -1.131  -2.148  -1.603  0.00  0.00    +0.090 A 
ATOM      6  C   UNL     1      -1.855  -2.125  -2.744  0.00  0.00    +0.043 A 
ATOM      7  C   UNL     1      -3.182  -2.423  -2.397  0.00  0.00    +0.055 A 
ATOM      8  C   UNL     1      -3.201  -2.615  -1.046  0.00  0.00    +0.191 A 
ATOM      9  O   UNL     1      -1.945  -2.448  -0.583  0.00  0.00    -0.457 OA
BRANCH   5  10
ATOM     10  C   UNL     1       0.349  -1.885  -1.497  0.00  0.00    -0.003 C 
BRANCH  10  11
ATOM     11  N   UNL     1       0.576  -0.451  -1.269  0.00  0.00    +0.384 N 
ATOM     12  H   UNL     1       0.124   0.081  -1.997  0.00  0.00    -0.081 HD
BRANCH  11  14
ATOM     13  C   UNL     1       0.123   1.447   0.210  0.00  0.00    -0.017 C 
ATOM     14  C   UNL     1       0.019  -0.069   0.036  0.00  0.00    -0.082 C 
ENDBRANCH  11  14
BRANCH  11  15
ATOM     15  C   UNL     1       2.019  -0.176  -1.285  0.00  0.00    -0.082 C 
ATOM     16  C   UNL     1       2.573  -0.440  -2.687  0.00  0.00    -0.017 C 
ENDBRANCH  11  15
ENDBRANCH  10  11
ENDBRANCH   5  10
ENDBRANCH   1   8
BRANCH   3  17
ATOM     17  N   UNL     1      -5.386  -3.429   1.864  0.00  0.00    -0.230 N 
ATOM     18  C   UNL     1      -5.267  -3.592   3.197  0.00  0.00    +0.264 C 
ATOM     19  O   UNL     1      -4.181  -3.463   3.730  0.00  0.00    -0.269 OA
ATOM     20  H   UNL     1      -6.252  -3.532   1.438  0.00  0.00    +0.173 HD
BRANCH  18  21
ATOM     21  C   UNL     1      -6.450  -3.927   4.006  0.00  0.00    +0.093 A 
ATOM     22  C   UNL     1      -6.910  -5.170   4.317  0.00  0.00    +0.118 A 
ATOM     23  O   UNL     1      -8.011  -5.065   5.073  0.00  0.00    -0.441 OA
ATOM     24  C   UNL     1      -8.331  -3.779   5.298  0.00  0.00    +0.235 A 
ATOM     25  C   UNL     1      -7.379  -2.987   4.655  0.00  0.00    +0.116 A 
ATOM     26  C   UNL     1      -7.482  -1.582   4.739  0.00  0.00    +0.263 A 
ATOM     27  O   UNL     1      -6.669  -0.860   4.188  0.00  0.00    -0.267 OA
ATOM     28  N   UNL     1      -8.508  -1.061   5.450  0.00  0.00    -0.313 N 
ATOM     29  H   UNL     1      -8.605  -0.099   5.527  0.00  0.00    +0.170 HD
ATOM     30  C   UNL     1      -9.401  -1.882   6.056  0.00  0.00    +0.203 A 
ATOM     31  N   UNL     1      -9.320  -3.180   5.978  0.00  0.00    -0.202 NA
ATOM     32  C   UNL     1      -6.278  -6.465   3.878  0.00  0.00    +0.087 C 
ENDBRANCH  18  21
ENDBRANCH   3  17
TORSDOF 7
