REMARK  Name = ZINC32949525
REMARK  12 active torsions:
REMARK  status: ('A' for Active; 'I' for Inactive)
REMARK    1  A    between atoms: C_1  and  C_2
REMARK    2  A    between atoms: C_2  and  N_3
REMARK    3  A    between atoms: N_3  and  C_4
REMARK    4  A    between atoms: N_3  and  C_6
REMARK    5  A    between atoms: C_4  and  C_5
REMARK    6  A    between atoms: C_6  and  C_8
REMARK    7  A    between atoms: C_6  and  C_22
REMARK    8  A    between atoms: C_8  and  N_9
REMARK    9  A    between atoms: C_10  and  C_12
REMARK   10  A    between atoms: C_15  and  S_17
REMARK   11  A    between atoms: S_17  and  N_20
REMARK   12  A    between atoms: N_20  and  C_21
REMARK                            x       y       z     vdW  Elec       q    Type
REMARK                         _______ _______ _______ _____ _____    ______ ____
ROOT
ATOM      1  C   UNL     1      -4.289   1.809   0.216  0.00  0.00    +0.094 C 
ENDROOT
BRANCH   1   2
ATOM      2  N   UNL     1      -2.953   2.390   0.374  0.00  0.00    -0.310 N 
ATOM      3  C   UNL     1      -1.919   1.609   0.746  0.00  0.00    +0.279 C 
ATOM      4  O   UNL     1      -2.094   0.423   0.950  0.00  0.00    -0.267 OA
ATOM      5  H   UNL     1      -2.794   3.462   0.190  0.00  0.00    +0.149 HD
BRANCH   3   6
ATOM      6  C   UNL     1      -0.581   2.191   0.904  0.00  0.00    +0.192 A 
ATOM      7  C   UNL     1       0.548   1.518   1.273  0.00  0.00    +0.057 A 
ATOM      8  C   UNL     1       1.590   2.457   1.290  0.00  0.00    +0.072 A 
ATOM      9  C   UNL     1       1.057   3.649   0.941  0.00  0.00    +0.258 A 
ATOM     10  O   UNL     1      -0.252   3.485   0.713  0.00  0.00    -0.432 OA
BRANCH   9  11
ATOM     11  S   UNL     1       1.940   5.168   0.810  0.00  0.00    +0.091 S 
ATOM     12  O   UNL     1       0.986   6.208   0.980  0.00  0.00    -0.150 OA
ATOM     13  O   UNL     1       3.088   5.044   1.638  0.00  0.00    -0.150 OA
BRANCH  11  14
ATOM     14  N   UNL     1       2.490   5.282  -0.748  0.00  0.00    -0.190 NA
ATOM     15  C   UNL     1       1.538   5.396  -1.855  0.00  0.00    +0.128 C 
ATOM     16  H   UNL     1       3.556   5.106  -0.956  0.00  0.00    +0.148 HD
ENDBRANCH  11  14
ENDBRANCH   9  11
ENDBRANCH   3   6
ENDBRANCH   1   2
BRANCH   1  17
ATOM     17  C   UNL     1      -5.297   2.922  -0.075  0.00  0.00    -0.019 C 
BRANCH  17  18
ATOM     18  C   UNL     1      -6.662   2.320  -0.287  0.00  0.00    -0.041 A 
ATOM     19  C   UNL     1      -7.618   2.406   0.708  0.00  0.00    +0.003 A 
ATOM     20  C   UNL     1      -8.872   1.857   0.512  0.00  0.00    +0.000 A 
ATOM     21  C   UNL     1      -9.167   1.214  -0.676  0.00  0.00    +0.001 A 
ATOM     22  C   UNL     1      -8.211   1.122  -1.669  0.00  0.00    +0.020 A 
ATOM     23  C   UNL     1      -6.957   1.675  -1.475  0.00  0.00    +0.043 A 
ATOM     24 CL   UNL     1      -5.755   1.560  -2.722  0.00  0.00    -0.083 Cl
ENDBRANCH  17  18
BRANCH  17  25
ATOM     25  N   UNL     1      -5.343   3.851   1.062  0.00  0.00    +0.385 N 
ATOM     26  H   UNL     1      -6.393   4.139   1.221  0.00  0.00    -0.081 HD
BRANCH  25  28
ATOM     27  C   UNL     1      -5.935   2.248   2.816  0.00  0.00    -0.017 C 
ATOM     28  C   UNL     1      -4.863   3.204   2.290  0.00  0.00    -0.081 C 
ENDBRANCH  25  28
BRANCH  25  29
ATOM     29  C   UNL     1      -4.578   5.072   0.776  0.00  0.00    -0.081 C 
ATOM     30  C   UNL     1      -5.361   5.946  -0.206  0.00  0.00    -0.017 C 
ENDBRANCH  25  29
ENDBRANCH  17  25
ENDBRANCH   1  17
TORSDOF 9
