REMARK  Name = ZINC41113696
REMARK  11 active torsions:
REMARK  status: ('A' for Active; 'I' for Inactive)
REMARK    1  A    between atoms: C_1  and  C_2
REMARK    2  A    between atoms: C_7  and  C_16
REMARK    3  A    between atoms: N_9  and  C_10
REMARK    4  A    between atoms: C_10  and  C_11
REMARK    5  A    between atoms: C_11  and  C_12
REMARK    6  A    between atoms: C_12  and  N_13
REMARK    7  A    between atoms: N_13  and  C_14
REMARK    8  A    between atoms: N_13  and  C_15
REMARK    9  A    between atoms: C_17  and  C_19
REMARK   10  A    between atoms: C_23  and  S_25
REMARK   11  A    between atoms: S_25  and  C_28
REMARK                            x       y       z     vdW  Elec       q    Type
REMARK                         _______ _______ _______ _____ _____    ______ ____
ROOT
ATOM      1  C   UNL     1       0.087   1.531  -0.559  0.00  0.00    -0.012 C 
ATOM      2  C   UNL     1       0.107   0.001  -0.556  0.00  0.00    -0.054 C 
ATOM      3  C   UNL     1      -1.283  -0.528  -0.190  0.00  0.00    +0.092 C 
ATOM      4  N   UNL     1      -1.208  -1.992  -0.066  0.00  0.00    -0.301 N 
ATOM      5  C   UNL     1      -0.147  -2.562   0.780  0.00  0.00    +0.092 C 
ATOM      6  C   UNL     1       1.190  -1.937   0.368  0.00  0.00    -0.054 C 
ATOM      7  N   UNL     1       1.086  -0.473   0.431  0.00  0.00    +0.385 N 
ATOM      8  C   UNL     1       1.534  -2.362  -1.060  0.00  0.00    -0.012 C 
ATOM      9  C   UNL     1      -2.086  -2.788  -0.707  0.00  0.00    +0.247 C 
ATOM     10  O   UNL     1      -2.997  -2.298  -1.345  0.00  0.00    -0.270 OA
ATOM     11  H   UNL     1       0.789  -0.198   1.356  0.00  0.00    -0.081 HD
ENDROOT
BRANCH   9  12
ATOM     12  C   UNL     1      -1.940  -4.257  -0.636  0.00  0.00    +0.039 A 
ATOM     13  C   UNL     1      -1.752  -4.884   0.598  0.00  0.00    +0.013 A 
ATOM     14  C   UNL     1      -1.617  -6.255   0.657  0.00  0.00    +0.003 A 
ATOM     15  C   UNL     1      -1.667  -7.010  -0.501  0.00  0.00    +0.027 A 
ATOM     16  C   UNL     1      -1.853  -6.395  -1.727  0.00  0.00    +0.089 A 
ATOM     17  C   UNL     1      -1.996  -5.025  -1.800  0.00  0.00    +0.040 A 
BRANCH  16  18
ATOM     18  S   UNL     1      -1.915  -7.365  -3.196  0.00  0.00    -0.006 S 
ATOM     19  O   UNL     1      -1.498  -6.484  -4.230  0.00  0.00    -0.170 OA
ATOM     20  O   UNL     1      -1.165  -8.533  -2.892  0.00  0.00    -0.170 OA
ATOM     21  C   UNL     1      -3.668  -7.786  -3.404  0.00  0.00    +0.200 C 
ENDBRANCH  16  18
ENDBRANCH   9  12
BRANCH   7  22
ATOM     22  C   UNL     1       2.397   0.122   0.144  0.00  0.00    -0.080 C 
BRANCH  22  23
ATOM     23  C   UNL     1       3.388  -0.271   1.241  0.00  0.00    -0.037 C 
BRANCH  23  24
ATOM     24  C   UNL     1       4.754   0.349   0.942  0.00  0.00    -0.081 C 
BRANCH  24  25
ATOM     25  N   UNL     1       5.705  -0.028   1.996  0.00  0.00    +0.376 N 
ATOM     26  C   UNL     1       5.922  -1.481   1.962  0.00  0.00    -0.097 C 
ATOM     27  C   UNL     1       6.982   0.663   1.774  0.00  0.00    -0.097 C 
ATOM     28  H   UNL     1       5.332   0.235   2.896  0.00  0.00    -0.083 HD
ENDBRANCH  24  25
ENDBRANCH  23  24
ENDBRANCH  22  23
ENDBRANCH   7  22
TORSDOF 6
