REMARK  Name = ZINC64491961
REMARK  12 active torsions:
REMARK  status: ('A' for Active; 'I' for Inactive)
REMARK    1  A    between atoms: C_1  and  C_2
REMARK    2  A    between atoms: C_2  and  O_3
REMARK    3  A    between atoms: O_3  and  C_4
REMARK    4  A    between atoms: C_4  and  C_6
REMARK    5  A    between atoms: C_7  and  C_34
REMARK    6  A    between atoms: C_9  and  C_13
REMARK    7  A    between atoms: C_10  and  C_12
REMARK    8  A    between atoms: C_19  and  C_22
REMARK    9  A    between atoms: N_24  and  C_25
REMARK   10  A    between atoms: C_25  and  C_26
REMARK   11  A    between atoms: C_26  and  C_27
REMARK   12  A    between atoms: C_27  and  N_28
REMARK                            x       y       z     vdW  Elec       q    Type
REMARK                         _______ _______ _______ _____ _____    ______ ____
ROOT
ATOM      1  C   UNL     1       3.334  -2.503  -5.836  0.00  0.00    +0.261 C 
ATOM      2  O   UNL     1       3.461  -1.395  -6.320  0.00  0.00    -0.269 OA
ATOM      3  N   UNL     1       3.823  -3.580  -6.482  0.00  0.00    -0.296 N 
ATOM      4  C   UNL     1       3.546  -4.937  -5.992  0.00  0.00    +0.108 C 
ATOM      5  C   UNL     1       2.949  -5.762  -7.136  0.00  0.00    +0.020 C 
ATOM      6  C   UNL     1       3.890  -5.710  -8.342  0.00  0.00    +0.016 C 
ATOM      7  C   UNL     1       4.035  -4.262  -8.816  0.00  0.00    +0.092 C 
ATOM      8  C   UNL     1       4.639  -3.420  -7.694  0.00  0.00    +0.120 C 
ENDROOT
BRANCH   1  12
ATOM      9  C   UNL     1       1.425  -2.349  -2.531  0.00  0.00    +0.066 C 
ATOM     10  C   UNL     1       1.863  -3.619  -2.706  0.00  0.00    +0.049 C 
ATOM     11  N   UNL     1       2.545  -3.764  -3.844  0.00  0.00    -0.250 NA
ATOM     12  C   UNL     1       2.645  -2.669  -4.539  0.00  0.00    +0.111 C 
ATOM     13  C   UNL     1       1.909  -1.597  -3.758  0.00  0.00    +0.078 C 
ATOM     14  C   UNL     1       2.863  -0.469  -3.360  0.00  0.00    +0.019 C 
ATOM     15  C   UNL     1       1.610  -4.737  -1.728  0.00  0.00    +0.066 C 
BRANCH   9  16
ATOM     16  C   UNL     1       0.648  -1.819  -1.407  0.00  0.00    +0.338 C 
ATOM     17  O   UNL     1       0.331  -2.550  -0.489  0.00  0.00    -0.245 OA
BRANCH  16  18
ATOM     18  O   UNL     1       0.284  -0.520  -1.392  0.00  0.00    -0.462 OA
BRANCH  18  20
ATOM     19  C   UNL     1      -0.789   1.417  -0.424  0.00  0.00    +0.048 C 
ATOM     20  C   UNL     1      -0.472  -0.071  -0.265  0.00  0.00    +0.229 C 
ENDBRANCH  18  20
ENDBRANCH  16  18
ENDBRANCH   9  16
ENDBRANCH   1  12
BRANCH   7  21
ATOM     21  C   UNL     1       4.935  -4.216 -10.023  0.00  0.00    +0.218 C 
ATOM     22  O   UNL     1       5.414  -5.240 -10.462  0.00  0.00    -0.275 OA
ATOM     23  N   UNL     1       5.209  -3.036 -10.615  0.00  0.00    -0.315 N 
ATOM     24  H   UNL     1       4.826  -2.217 -10.264  0.00  0.00    +0.149 HD
BRANCH  23  25
ATOM     25  C   UNL     1       6.084  -2.991 -11.789  0.00  0.00    +0.105 C 
BRANCH  25  26
ATOM     26  C   UNL     1       6.229  -1.543 -12.262  0.00  0.00    +0.034 C 
BRANCH  26  27
ATOM     27  C   UNL     1       7.143  -1.496 -13.488  0.00  0.00    +0.086 C 
BRANCH  27  28
ATOM     28  N   UNL     1       7.282  -0.106 -13.942  0.00  0.00    -0.298 NA
ATOM     29  C   UNL     1       6.003   0.414 -14.447  0.00  0.00    +0.112 C 
ATOM     30  C   UNL     1       6.178   1.880 -14.853  0.00  0.00    +0.175 C 
ATOM     31  O   UNL     1       7.224   1.978 -15.823  0.00  0.00    -0.377 OA
ATOM     32  C   UNL     1       8.484   1.482 -15.364  0.00  0.00    +0.175 C 
ATOM     33  C   UNL     1       8.332   0.012 -14.964  0.00  0.00    +0.112 C 
ENDBRANCH  27  28
ENDBRANCH  26  27
ENDBRANCH  25  26
ENDBRANCH  23  25
ENDBRANCH   7  21
TORSDOF 9
