REMARK  Name = ZINC10796861
REMARK  6 active torsions:
REMARK  status: ('A' for Active; 'I' for Inactive)
REMARK    1  A    between atoms: C_7  and  C_15
REMARK    2  A    between atoms: C_15  and  O_17
REMARK    3  A    between atoms: O_17  and  C_18
REMARK    4  A    between atoms: C_18  and  C_19
REMARK    5  A    between atoms: N_21  and  N_22
REMARK    6  A    between atoms: C_23  and  C_25
REMARK                            x       y       z     vdW  Elec       q    Type
REMARK                         _______ _______ _______ _____ _____    ______ ____
ROOT
ATOM      1  C   UNL     1       0.550  -4.412   2.951  0.00  0.00    +0.329 C 
ENDROOT
BRANCH   1   2
ATOM      2  C   UNL     1       0.529  -5.917   3.030  0.00  0.00    +0.267 C 
ATOM      3  O   UNL     1       0.745  -6.579   2.037  0.00  0.00    -0.271 OA
ATOM      4  N   UNL     1       0.271  -6.527   4.204  0.00  0.00    -0.231 N 
ATOM      5  H   UNL     1       0.099  -5.997   4.998  0.00  0.00    +0.173 HD
BRANCH   4   6
ATOM      6  N   UNL     1       0.252  -7.926   4.276  0.00  0.00    -0.231 N 
ATOM      7  C   UNL     1      -0.006  -8.536   5.450  0.00  0.00    +0.273 C 
ATOM      8  O   UNL     1      -0.222  -7.874   6.443  0.00  0.00    -0.270 OA
ATOM      9  H   UNL     1       0.424  -8.455   3.482  0.00  0.00    +0.173 HD
BRANCH   7  10
ATOM     10  C   UNL     1      -0.027 -10.041   5.528  0.00  0.00    +0.297 C 
ATOM     11  C   UNL     1       1.378 -10.593   5.253  0.00  0.00    +0.283 C 
ATOM     12  O   UNL     1       1.325 -12.021   5.349  0.00  0.00    -0.484 OA
ATOM     13  C   UNL     1       0.670 -12.537   6.424  0.00  0.00    +0.162 A 
ATOM     14  C   UNL     1       0.881 -13.862   6.778  0.00  0.00    +0.049 A 
ATOM     15  C   UNL     1       0.221 -14.402   7.865  0.00  0.00    +0.004 A 
ATOM     16  C   UNL     1      -0.653 -13.624   8.603  0.00  0.00    +0.004 A 
ATOM     17  C   UNL     1      -0.867 -12.303   8.256  0.00  0.00    +0.049 A 
ATOM     18  C   UNL     1      -0.206 -11.755   7.167  0.00  0.00    +0.163 A 
ATOM     19  O   UNL     1      -0.422 -10.450   6.842  0.00  0.00    -0.472 OA
ENDBRANCH   7  10
ENDBRANCH   4   6
ENDBRANCH   1   2
BRANCH   1  20
ATOM     20  O   UNL     1       0.844  -4.009   1.612  0.00  0.00    -0.454 OA
BRANCH  20  21
ATOM     21  C   UNL     1       0.900  -2.689   1.371  0.00  0.00    +0.320 C 
ATOM     22  O   UNL     1       0.706  -1.903   2.268  0.00  0.00    -0.250 OA
BRANCH  21  29
ATOM     23  C   UNL     1      -0.017   1.377   0.010  0.00  0.00    +0.001 A 
ATOM     24  C   UNL     1       1.171   2.086   0.002  0.00  0.00    +0.004 A 
ATOM     25  C   UNL     1       2.376   1.413  -0.013  0.00  0.00    +0.046 A 
ATOM     26  C   UNL     1       2.398   0.022  -0.021  0.00  0.00    +0.133 A 
ATOM     27  C   UNL     1       1.207  -0.685  -0.012  0.00  0.00    +0.013 A 
ATOM     28  C   UNL     1       0.002  -0.004   0.002  0.00  0.00    +0.008 A 
ATOM     29  C   UNL     1       1.204  -2.189  -0.017  0.00  0.00    +0.165 C 
ATOM     30  C   UNL     1       2.543  -2.720  -0.453  0.00  0.00    +0.013 A 
ATOM     31  C   UNL     1       2.647  -4.036  -0.869  0.00  0.00    +0.008 A 
ATOM     32  C   UNL     1       3.867  -4.543  -1.272  0.00  0.00    +0.001 A 
ATOM     33  C   UNL     1       4.990  -3.737  -1.261  0.00  0.00    +0.004 A 
ATOM     34  C   UNL     1       4.892  -2.424  -0.847  0.00  0.00    +0.046 A 
ATOM     35  C   UNL     1       3.666  -1.910  -0.441  0.00  0.00    +0.133 A 
ATOM     36  O   UNL     1       3.591  -0.619  -0.035  0.00  0.00    -0.455 OA
ENDBRANCH  21  29
ENDBRANCH  20  21
ENDBRANCH   1  20
TORSDOF 6
