REMARK  Name = ZINC08995428
REMARK  7 active torsions:
REMARK  status: ('A' for Active; 'I' for Inactive)
REMARK    1  A    between atoms: C_1  and  C_2
REMARK    2  A    between atoms: C_7  and  N_8
REMARK    3  A    between atoms: C_9  and  C_11
REMARK    4  A    between atoms: C_11  and  N_12
REMARK    5  A    between atoms: C_16  and  C_17
REMARK    6  A    between atoms: N_19  and  C_26
REMARK    7  A    between atoms: C_26  and  C_27
REMARK                            x       y       z     vdW  Elec       q    Type
REMARK                         _______ _______ _______ _____ _____    ______ ____
ROOT
ATOM      1  N   UNL     1       5.805  -0.794   4.936  0.00  0.00    -0.212 N 
ATOM      2  C   UNL     1       6.260  -1.453   3.852  0.00  0.00    +0.269 C 
ATOM      3  O   UNL     1       7.176  -2.255   3.824  0.00  0.00    -0.268 OA
ATOM      4  C   UNL     1       5.469  -1.034   2.748  0.00  0.00    +0.098 C 
ATOM      5  C   UNL     1       5.582  -1.446   1.456  0.00  0.00    +0.038 C 
ATOM      6  N   UNL     1       4.552  -0.104   3.261  0.00  0.00    -0.265 N 
ATOM      7  C   UNL     1       4.786   0.006   4.582  0.00  0.00    +0.314 C 
ATOM      8  O   UNL     1       4.169   0.728   5.343  0.00  0.00    -0.252 OA
ATOM      9  H   UNL     1       3.873   0.370   2.757  0.00  0.00    +0.157 HD
ENDROOT
BRANCH   5  10
ATOM     10  C   UNL     1       4.585  -1.035   0.467  0.00  0.00    +0.002 A 
ATOM     11  C   UNL     1       3.352  -0.504   0.721  0.00  0.00    +0.095 A 
ATOM     12  N   UNL     1       2.714  -0.251  -0.450  0.00  0.00    -0.337 N 
ATOM     13  C   UNL     1       3.507  -0.613  -1.520  0.00  0.00    +0.050 A 
ATOM     14  C   UNL     1       4.713  -1.113  -1.001  0.00  0.00    +0.007 A 
ATOM     15  C   UNL     1       5.713  -1.555  -1.862  0.00  0.00    +0.010 A 
ATOM     16  C   UNL     1       5.517  -1.493  -3.225  0.00  0.00    +0.001 A 
ATOM     17  C   UNL     1       4.330  -0.994  -3.739  0.00  0.00    +0.002 A 
ATOM     18  C   UNL     1       3.330  -0.554  -2.898  0.00  0.00    +0.026 A 
BRANCH  12  19
ATOM     19  C   UNL     1       1.370   0.321  -0.563  0.00  0.00    +0.217 C 
BRANCH  19  20
ATOM     20  C   UNL     1       0.361  -0.790  -0.704  0.00  0.00    +0.230 C 
ATOM     21  O   UNL     1       0.729  -1.945  -0.710  0.00  0.00    -0.274 OA
ATOM     22  N   UNL     1      -0.949  -0.499  -0.829  0.00  0.00    -0.328 N 
ATOM     23  H   UNL     1      -1.597  -1.214  -0.924  0.00  0.00    +0.145 HD
ATOM     24  H   UNL     1      -1.243   0.425  -0.824  0.00  0.00    +0.145 HD
ENDBRANCH  19  20
ENDBRANCH  12  19
ENDBRANCH   5  10
BRANCH   1  25
ATOM     25  C   UNL     1       6.342  -0.929   6.292  0.00  0.00    +0.214 C 
BRANCH  25  27
ATOM     26  N   UNL     1       8.086   0.140   7.683  0.00  0.00    -0.284 N 
ATOM     27  C   UNL     1       7.442   0.079   6.500  0.00  0.00    +0.235 C 
ATOM     28  O   UNL     1       7.748   0.837   5.604  0.00  0.00    -0.274 OA
ATOM     29  H   UNL     1       7.898  -0.516   8.372  0.00  0.00    +0.155 HD
BRANCH  26  36
ATOM     30  C   UNL     1       8.538   0.959  10.370  0.00  0.00    +0.045 C 
ATOM     31  C   UNL     1       9.277   1.579   9.213  0.00  0.00    -0.029 A 
ATOM     32  C   UNL     1      10.206   2.577   9.440  0.00  0.00    +0.005 A 
ATOM     33  C   UNL     1      10.885   3.146   8.379  0.00  0.00    +0.000 A 
ATOM     34  C   UNL     1      10.636   2.720   7.087  0.00  0.00    +0.002 A 
ATOM     35  C   UNL     1       9.713   1.720   6.853  0.00  0.00    +0.023 A 
ATOM     36  C   UNL     1       9.026   1.150   7.917  0.00  0.00    +0.036 A 
ENDBRANCH  26  36
ENDBRANCH  25  27
ENDBRANCH   1  25
TORSDOF 6
