REMARK  Name = ZINC04024375
REMARK  6 active torsions:
REMARK  status: ('A' for Active; 'I' for Inactive)
REMARK    1  A    between atoms: C_1  and  C_2
REMARK    2  A    between atoms: C_2  and  C_27
REMARK    3  A    between atoms: C_19  and  C_23
REMARK    4  A    between atoms: C_20  and  N_22
REMARK    5  A    between atoms: C_23  and  O_25
REMARK    6  A    between atoms: O_25  and  C_26
REMARK                            x       y       z     vdW  Elec       q    Type
REMARK                         _______ _______ _______ _____ _____    ______ ____
ROOT
ATOM      1  C   UNL     1      -3.618   1.968  -3.482  0.00  0.00    +0.012 C 
ATOM      2  C   UNL     1      -4.373   3.294  -3.596  0.00  0.00    -0.021 C 
ATOM      3  C   UNL     1      -5.249   3.495  -2.358  0.00  0.00    +0.081 C 
ATOM      4  C   UNL     1      -4.381   3.543  -1.123  0.00  0.00    +0.116 C 
ATOM      5  C   UNL     1      -3.130   4.038  -1.183  0.00  0.00    +0.057 C 
ATOM      6  C   UNL     1      -2.585   4.503  -2.395  0.00  0.00    +0.165 C 
ATOM      7  O   UNL     1      -1.457   4.955  -2.407  0.00  0.00    -0.292 OA
ATOM      8  C   UNL     1      -3.372   4.452  -3.676  0.00  0.00    +0.086 C 
ATOM      9  C   UNL     1      -2.276   4.105   0.057  0.00  0.00    +0.141 C 
ATOM     10  C   UNL     1      -1.210   3.056   0.024  0.00  0.00    -0.002 A 
ATOM     11  C   UNL     1      -1.283   1.680  -0.014  0.00  0.00    +0.007 A 
ATOM     12  C   UNL     1      -0.079   0.984  -0.034  0.00  0.00    +0.000 A 
ATOM     13  C   UNL     1       1.133   1.645  -0.028  0.00  0.00    +0.002 A 
ATOM     14  C   UNL     1       1.214   3.028   0.005  0.00  0.00    +0.023 A 
ATOM     15  C   UNL     1       0.013   3.738   0.031  0.00  0.00    +0.038 A 
ATOM     16  N   UNL     1      -0.200   5.105   0.065  0.00  0.00    -0.284 N 
ATOM     17  C   UNL     1      -1.513   5.413   0.083  0.00  0.00    +0.237 C 
ATOM     18  O   UNL     1      -1.992   6.527   0.113  0.00  0.00    -0.274 OA
ATOM     19  C   UNL     1      -3.122   3.977   1.290  0.00  0.00    +0.117 C 
ATOM     20  C   UNL     1      -4.383   3.476   1.205  0.00  0.00    +0.195 C 
ATOM     21  O   UNL     1      -4.897   3.081   0.031  0.00  0.00    -0.446 OA
ATOM     22  C   UNL     1      -5.249   3.284  -4.850  0.00  0.00    +0.012 C 
ATOM     23  H   UNL     1       0.512   5.764   0.075  0.00  0.00    +0.155 HD
ENDROOT
BRANCH  20  24
ATOM     24  N   UNL     1      -5.142   3.372   2.339  0.00  0.00    -0.329 N 
ATOM     25  H   UNL     1      -5.084   4.054   3.026  0.00  0.00    +0.145 HD
ATOM     26  H   UNL     1      -5.738   2.615   2.456  0.00  0.00    +0.145 HD
ENDBRANCH  20  24
BRANCH  19  27
ATOM     27  C   UNL     1      -2.609   4.375   2.535  0.00  0.00    +0.341 C 
ATOM     28  O   UNL     1      -3.323   4.357   3.522  0.00  0.00    -0.245 OA
BRANCH  27  29
ATOM     29  O   UNL     1      -1.324   4.779   2.639  0.00  0.00    -0.465 OA
ATOM     30  C   UNL     1      -0.870   5.170   3.936  0.00  0.00    +0.280 C 
ENDBRANCH  27  29
ENDBRANCH  19  27
TORSDOF 3
