REMARK  Name = ZINC36586544
REMARK  13 active torsions:
REMARK  status: ('A' for Active; 'I' for Inactive)
REMARK    1  A    between atoms: C_1  and  C_2
REMARK    2  A    between atoms: C_5  and  S_8
REMARK    3  A    between atoms: S_8  and  C_11
REMARK    4  A    between atoms: C_11  and  N_12
REMARK    5  A    between atoms: C_13  and  C_15
REMARK    6  A    between atoms: C_15  and  C_17
REMARK    7  A    between atoms: C_15  and  N_24
REMARK    8  A    between atoms: N_24  and  C_34
REMARK    9  A    between atoms: C_25  and  C_27
REMARK   10  A    between atoms: C_30  and  O_33
REMARK   11  A    between atoms: C_34  and  C_35
REMARK   12  A    between atoms: C_34  and  C_36
REMARK   13  A    between atoms: C_34  and  C_37
REMARK                            x       y       z     vdW  Elec       q    Type
REMARK                         _______ _______ _______ _____ _____    ______ ____
ROOT
ATOM      1  C   UNL     1       4.613  -9.715   4.470  0.00  0.00    +0.193 C 
ENDROOT
BRANCH   1   2
ATOM      2  C   UNL     1       4.658 -11.219   4.560  0.00  0.00    -0.018 A 
ATOM      3  C   UNL     1       3.568 -11.915   5.050  0.00  0.00    +0.007 A 
ATOM      4  C   UNL     1       3.608 -13.294   5.132  0.00  0.00    +0.020 A 
ATOM      5  C   UNL     1       4.739 -13.978   4.724  0.00  0.00    +0.041 A 
ATOM      6  C   UNL     1       5.830 -13.281   4.234  0.00  0.00    +0.020 A 
ATOM      7  C   UNL     1       5.786 -11.903   4.147  0.00  0.00    +0.007 A 
ATOM      8 CL   UNL     1       4.790 -15.710   4.828  0.00  0.00    -0.084 Cl
ENDBRANCH   1   2
BRANCH   1  10
ATOM      9  N   UNL     1       5.865  -9.533   2.345  0.00  0.00    -0.294 N 
ATOM     10  C   UNL     1       4.728  -9.294   3.028  0.00  0.00    +0.239 C 
ATOM     11  O   UNL     1       3.797  -8.742   2.482  0.00  0.00    -0.273 OA
ATOM     12  H   UNL     1       6.610  -9.975   2.782  0.00  0.00    +0.150 HD
BRANCH   9  13
ATOM     13  C   UNL     1       5.977  -9.123   0.943  0.00  0.00    +0.278 C 
BRANCH  13  14
ATOM     14  S   UNL     1       6.772  -7.496   0.849  0.00  0.00    +0.013 S 
ATOM     15  O   UNL     1       6.177  -6.606   1.783  0.00  0.00    -0.168 OA
ATOM     16  O   UNL     1       6.945  -7.113  -0.509  0.00  0.00    -0.168 OA
BRANCH  14  21
ATOM     17  C   UNL     1      12.369  -8.381   2.921  0.00  0.00    +0.044 C 
ATOM     18  C   UNL     1      10.971  -8.160   2.404  0.00  0.00    -0.050 A 
ATOM     19  C   UNL     1      10.703  -8.306   1.056  0.00  0.00    +0.005 A 
ATOM     20  C   UNL     1       9.420  -8.103   0.581  0.00  0.00    +0.027 A 
ATOM     21  C   UNL     1       8.407  -7.755   1.454  0.00  0.00    +0.090 A 
ATOM     22  C   UNL     1       8.675  -7.611   2.803  0.00  0.00    +0.027 A 
ATOM     23  C   UNL     1       9.957  -7.818   3.278  0.00  0.00    +0.005 A 
ENDBRANCH  14  21
ENDBRANCH  13  14
ENDBRANCH   9  13
ENDBRANCH   1  10
BRANCH   1  24
ATOM     24  N   UNL     1       3.345  -9.231   5.021  0.00  0.00    -0.277 N 
ATOM     25  C   UNL     1       2.182  -9.775   4.613  0.00  0.00    +0.248 C 
ATOM     26  O   UNL     1       2.125 -10.365   3.552  0.00  0.00    -0.270 OA
BRANCH  25  27
ATOM     27  C   UNL     1       0.975  -9.654   5.455  0.00  0.00    +0.037 A 
ATOM     28  C   UNL     1       0.504  -8.392   5.827  0.00  0.00    +0.016 A 
ATOM     29  C   UNL     1      -0.622  -8.283   6.612  0.00  0.00    +0.046 A 
ATOM     30  C   UNL     1      -1.290  -9.426   7.035  0.00  0.00    +0.117 A 
ATOM     31  C   UNL     1      -0.824 -10.683   6.668  0.00  0.00    +0.046 A 
ATOM     32  C   UNL     1       0.298 -10.800   5.878  0.00  0.00    +0.016 A 
BRANCH  30  33
ATOM     33  O   UNL     1      -2.398  -9.315   7.809  0.00  0.00    -0.507 OA
ATOM     34  H   UNL     1      -3.224  -9.257   7.309  0.00  0.00    +0.292 HD
ENDBRANCH  30  33
ENDBRANCH  25  27
BRANCH  24  35
ATOM     35  C   UNL     1       3.342  -8.154   6.015  0.00  0.00    +0.030 C 
ATOM     36  C   UNL     1       4.728  -8.045   6.653  0.00  0.00    +0.031 C 
ATOM     37  C   UNL     1       2.989  -6.831   5.333  0.00  0.00    +0.031 C 
ATOM     38  C   UNL     1       2.305  -8.463   7.097  0.00  0.00    +0.031 C 
ENDBRANCH  24  35
ENDBRANCH   1  24
TORSDOF 9
