REMARK  Name = ZINC56937895
REMARK  9 active torsions:
REMARK  status: ('A' for Active; 'I' for Inactive)
REMARK    1  A    between atoms: C_1  and  N_2
REMARK    2  A    between atoms: N_2  and  C_3
REMARK    3  A    between atoms: N_2  and  C_4
REMARK    4  A    between atoms: C_4  and  C_6
REMARK    5  A    between atoms: C_4  and  C_22
REMARK    6  A    between atoms: C_6  and  N_7
REMARK    7  A    between atoms: N_10  and  N_11
REMARK    8  A    between atoms: C_12  and  C_14
REMARK    9  A    between atoms: C_14  and  C_15
REMARK                            x       y       z     vdW  Elec       q    Type
REMARK                         _______ _______ _______ _____ _____    ______ ____
ROOT
ATOM      1  N   UNL     1       0.204  -2.151   0.755  0.00  0.00    -0.299 N 
ATOM      2  C   UNL     1       0.640  -3.421   0.866  0.00  0.00    +0.316 C 
ATOM      3  O   UNL     1       0.252  -4.268   0.085  0.00  0.00    -0.251 OA
ATOM      4  N   UNL     1       1.507  -3.753   1.844  0.00  0.00    -0.218 N 
ATOM      5  H   UNL     1       0.514  -1.475   1.378  0.00  0.00    +0.150 HD
ATOM      6  H   UNL     1       1.821  -4.667   1.924  0.00  0.00    +0.174 HD
ENDROOT
BRANCH   4   7
ATOM      7  N   UNL     1       1.954  -2.777   2.744  0.00  0.00    -0.233 N 
ATOM      8  C   UNL     1       2.820  -3.109   3.722  0.00  0.00    +0.233 C 
ATOM      9  O   UNL     1       3.212  -4.252   3.822  0.00  0.00    -0.274 OA
ATOM     10  H   UNL     1       1.640  -1.863   2.664  0.00  0.00    +0.173 HD
BRANCH   8  11
ATOM     11  C   UNL     1       3.301  -2.059   4.691  0.00  0.00    +0.132 C 
BRANCH  11  12
ATOM     12  C   UNL     1       4.254  -2.684   5.676  0.00  0.00    -0.038 A 
ATOM     13  C   UNL     1       3.773  -3.227   6.853  0.00  0.00    +0.007 A 
ATOM     14  C   UNL     1       4.646  -3.801   7.758  0.00  0.00    +0.038 A 
ATOM     15  C   UNL     1       6.003  -3.833   7.485  0.00  0.00    +0.123 A 
ATOM     16  C   UNL     1       6.484  -3.289   6.306  0.00  0.00    +0.038 A 
ATOM     17  C   UNL     1       5.608  -2.720   5.400  0.00  0.00    +0.007 A 
ATOM     18  F   UNL     1       6.857  -4.393   8.369  0.00  0.00    -0.205 F 
ENDBRANCH  11  12
ENDBRANCH   8  11
ENDBRANCH   4   7
BRANCH   1  19
ATOM     19  C   UNL     1      -0.738  -1.790  -0.308  0.00  0.00    +0.095 C 
BRANCH  19  20
ATOM     20  C   UNL     1      -1.168  -0.333  -0.135  0.00  0.00    -0.021 C 
BRANCH  20  21
ATOM     21  C   UNL     1      -1.946  -0.188   1.148  0.00  0.00    -0.059 A 
ATOM     22  C   UNL     1      -3.277  -0.556   1.194  0.00  0.00    +0.005 A 
ATOM     23  C   UNL     1      -3.991  -0.424   2.370  0.00  0.00    +0.038 A 
ATOM     24  C   UNL     1      -3.372   0.078   3.502  0.00  0.00    +0.123 A 
ATOM     25  C   UNL     1      -2.038   0.447   3.455  0.00  0.00    +0.038 A 
ATOM     26  C   UNL     1      -1.325   0.309   2.279  0.00  0.00    +0.005 A 
ATOM     27  F   UNL     1      -4.069   0.208   4.652  0.00  0.00    -0.205 F 
ENDBRANCH  20  21
BRANCH  20  29
ATOM     28  C   UNL     1      -2.469   1.450  -1.077  0.00  0.00    -0.096 C 
ATOM     29  N   UNL     1      -2.014   0.066  -1.268  0.00  0.00    +0.382 N 
ATOM     30  C   UNL     1      -1.241  -0.027  -2.513  0.00  0.00    -0.096 C 
ATOM     31  H   UNL     1      -2.814  -0.546  -1.322  0.00  0.00    -0.082 HD
ENDBRANCH  20  29
ENDBRANCH  19  20
ENDBRANCH   1  19
TORSDOF 7
