REMARK  Name = ZINC41855877
REMARK  7 active torsions:
REMARK  status: ('A' for Active; 'I' for Inactive)
REMARK    1  A    between atoms: C_1  and  C_2
REMARK    2  A    between atoms: C_2  and  N_3
REMARK    3  A    between atoms: N_3  and  C_4
REMARK    4  A    between atoms: N_3  and  C_5
REMARK    5  A    between atoms: C_5  and  C_17
REMARK    6  A    between atoms: C_8  and  C_15
REMARK    7  A    between atoms: C_8  and  C_16
REMARK                            x       y       z     vdW  Elec       q    Type
REMARK                         _______ _______ _______ _____ _____    ______ ____
ROOT
ATOM      1  C   UNL     1      -1.296  -1.929   0.064  0.00  0.00    +0.064 C 
ATOM      2  C   UNL     1      -2.705  -2.503  -0.078  0.00  0.00    +0.005 C 
ATOM      3  C   UNL     1      -2.597  -4.028  -0.189  0.00  0.00    +0.010 C 
ATOM      4  C   UNL     1      -1.974  -4.370  -1.540  0.00  0.00    -0.010 C 
ATOM      5  C   UNL     1      -0.704  -3.588  -1.751  0.00  0.00    -0.039 A 
ATOM      6  C   UNL     1      -0.395  -2.465  -1.017  0.00  0.00    -0.044 A 
ATOM      7  C   UNL     1       0.791  -1.786  -1.266  0.00  0.00    +0.003 A 
ATOM      8  C   UNL     1       1.662  -2.229  -2.240  0.00  0.00    +0.000 A 
ATOM      9  C   UNL     1       1.353  -3.358  -2.974  0.00  0.00    +0.000 A 
ATOM     10  C   UNL     1       0.175  -4.034  -2.730  0.00  0.00    +0.004 A 
ATOM     11  C   UNL     1      -1.658  -5.867  -1.587  0.00  0.00    +0.016 C 
ATOM     12  C   UNL     1      -2.966  -4.030  -2.654  0.00  0.00    +0.016 C 
ENDROOT
BRANCH   1  13
ATOM     13  N   UNL     1      -1.357  -0.465  -0.038  0.00  0.00    +0.391 N 
ATOM     14  C   UNL     1      -2.350   0.051   0.913  0.00  0.00    -0.094 C 
ATOM     15  H   UNL     1      -0.452  -0.075   0.177  0.00  0.00    -0.080 HD
BRANCH  13  17
ATOM     16  C   UNL     1      -1.653   1.435  -1.554  0.00  0.00    -0.017 C 
ATOM     17  C   UNL     1      -1.743  -0.084  -1.403  0.00  0.00    -0.081 C 
ENDBRANCH  13  17
ENDBRANCH   1  13
BRANCH   1  18
ATOM     18  C   UNL     1      -0.739  -2.311   1.411  0.00  0.00    +0.350 C 
ATOM     19  O   UNL     1      -0.362  -1.445   2.182  0.00  0.00    -0.248 OA
ATOM     20  O   UNL     1      -0.664  -3.485   1.729  0.00  0.00    -0.248 OA
ENDBRANCH   1  18
TORSDOF 3
