REMARK  Name = ZINC43262654
REMARK  8 active torsions:
REMARK  status: ('A' for Active; 'I' for Inactive)
REMARK    1  A    between atoms: C_1  and  C_2
REMARK    2  A    between atoms: C_2  and  C_4
REMARK    3  A    between atoms: C_2  and  N_22
REMARK    4  A    between atoms: C_4  and  C_6
REMARK    5  A    between atoms: C_4  and  N_12
REMARK    6  A    between atoms: N_12  and  C_13
REMARK    7  A    between atoms: N_12  and  C_17
REMARK    8  A    between atoms: C_13  and  C_14
REMARK                            x       y       z     vdW  Elec       q    Type
REMARK                         _______ _______ _______ _____ _____    ______ ____
ROOT
ATOM      1  C   UNL     1       0.400  -0.539   1.204  0.00  0.00    +0.080 C 
ENDROOT
BRANCH   1   2
ATOM      2  C   UNL     1       1.762  -1.132   0.952  0.00  0.00    +0.006 A 
ATOM      3  C   UNL     1       2.525  -1.073  -0.167  0.00  0.00    +0.014 A 
ATOM      4  C   UNL     1       3.758  -1.699  -0.172  0.00  0.00    +0.023 A 
ATOM      5  C   UNL     1       4.167  -2.353   0.943  0.00  0.00    +0.055 A 
ATOM      6  S   UNL     1       2.793  -2.087   2.052  0.00  0.00    -0.085 S 
ATOM      7 BR   UNL     1       5.778  -3.295   1.248  0.00  0.00    -0.043 Br
ENDBRANCH   1   2
BRANCH   1   9
ATOM      8  C   UNL     1      -2.009  -1.068   1.604  0.00  0.00    -0.012 C 
ATOM      9  C   UNL     1      -0.608  -1.664   1.448  0.00  0.00    -0.056 C 
BRANCH   9  10
ATOM     10  N   UNL     1      -0.595  -2.590   0.308  0.00  0.00    +0.381 N 
ATOM     11  H   UNL     1      -1.260  -3.332   0.469  0.00  0.00    -0.090 HD
ATOM     12  H   UNL     1      -0.844  -2.092  -0.533  0.00  0.00    -0.090 HD
ATOM     13  H   UNL     1       0.329  -2.983   0.205  0.00  0.00    -0.090 HD
ENDBRANCH   9  10
ENDBRANCH   1   9
BRANCH   1  14
ATOM     14  N   UNL     1       0.456   0.333   2.384  0.00  0.00    -0.285 NA
BRANCH  14  15
ATOM     15  C   UNL     1       0.905   1.684   2.019  0.00  0.00    +0.058 C 
ATOM     16  C   UNL     1      -0.024   2.275   0.939  0.00  0.00    +0.019 C 
ATOM     17  C   UNL     1       0.928   3.075   0.016  0.00  0.00    +0.002 C 
ATOM     18  C   UNL     1       2.191   2.180  -0.030  0.00  0.00    +0.002 C 
ATOM     19  C   UNL     1       2.313   1.623   1.403  0.00  0.00    +0.019 C 
ENDBRANCH  14  15
BRANCH  14  20
ATOM     20  C   UNL     1       1.317  -0.244   3.425  0.00  0.00    +0.181 C 
BRANCH  20  21
ATOM     21  C   UNL     1       1.025   0.422   4.745  0.00  0.00    +0.225 C 
ATOM     22  O   UNL     1       0.113   1.216   4.835  0.00  0.00    -0.275 OA
ATOM     23  N   UNL     1       1.778   0.135   5.825  0.00  0.00    -0.328 N 
ATOM     24  H   UNL     1       2.507  -0.500   5.753  0.00  0.00    +0.145 HD
ATOM     25  H   UNL     1       1.590   0.564   6.675  0.00  0.00    +0.145 HD
ENDBRANCH  20  21
ENDBRANCH  14  20
ENDBRANCH   1  14
TORSDOF 7
