REMARK  Name = ZINC58149208
REMARK  16 active torsions:
REMARK  status: ('A' for Active; 'I' for Inactive)
REMARK    1  A    between atoms: C_1  and  C_2
REMARK    2  A    between atoms: C_2  and  C_4
REMARK    3  A    between atoms: C_2  and  O_13
REMARK    4  A    between atoms: N_9  and  C_10
REMARK    5  A    between atoms: C_10  and  C_11
REMARK    6  A    between atoms: C_10  and  C_12
REMARK    7  A    between atoms: O_13  and  C_14
REMARK    8  A    between atoms: C_14  and  C_16
REMARK    9  A    between atoms: C_17  and  C_18
REMARK   10  A    between atoms: C_18  and  O_20
REMARK   11  A    between atoms: O_20  and  C_21
REMARK   12  A    between atoms: C_21  and  C_23
REMARK   13  A    between atoms: C_21  and  C_24
REMARK   14  A    between atoms: N_29  and  C_30
REMARK   15  A    between atoms: C_30  and  C_31
REMARK   16  A    between atoms: C_30  and  C_32
REMARK                            x       y       z     vdW  Elec       q    Type
REMARK                         _______ _______ _______ _____ _____    ______ ____
ROOT
ATOM      1  C   UNL     1       2.760  -1.126  -2.261  0.00  0.00    +0.098 C 
ATOM      2  C   UNL     1       4.087  -1.312  -2.174  0.00  0.00    +0.098 C 
ENDROOT
BRANCH   1   3
ATOM      3  C   UNL     1       2.003  -0.651  -1.087  0.00  0.00    +0.333 C 
ATOM      4  O   UNL     1       2.580  -0.429  -0.042  0.00  0.00    -0.246 OA
BRANCH   3   5
ATOM      5  O   UNL     1       0.671  -0.465  -1.174  0.00  0.00    -0.449 OA
BRANCH   5   7
ATOM      6  C   UNL     1      -0.019   1.526   0.010  0.00  0.00    +0.062 C 
ATOM      7  C   UNL     1       0.002  -0.004   0.002  0.00  0.00    +0.259 C 
BRANCH   7   8
ATOM      8  C   UNL     1      -1.412  -0.526   0.013  0.00  0.00    +0.261 C 
ATOM      9  O   UNL     1      -1.836  -1.147  -0.938  0.00  0.00    -0.271 OA
ATOM     10  N   UNL     1      -2.204  -0.302   1.079  0.00  0.00    -0.237 N 
ATOM     11  C   UNL     1      -3.469  -0.768   1.089  0.00  0.00    +0.306 C 
ATOM     12  O   UNL     1      -3.894  -1.391   0.136  0.00  0.00    -0.252 OA
ATOM     13  N   UNL     1      -4.262  -0.544   2.156  0.00  0.00    -0.297 N 
ATOM     14  H   UNL     1      -1.865   0.195   1.840  0.00  0.00    +0.159 HD
ATOM     15  H   UNL     1      -3.922  -0.048   2.916  0.00  0.00    +0.151 HD
BRANCH  13  16
ATOM     16  C   UNL     1      -5.636  -1.052   2.166  0.00  0.00    +0.068 C 
ATOM     17  C   UNL     1      -6.101  -1.236   3.612  0.00  0.00    +0.027 C 
ATOM     18  C   UNL     1      -6.554  -0.052   1.459  0.00  0.00    +0.027 C 
ENDBRANCH  13  16
ENDBRANCH   7   8
ENDBRANCH   5   7
ENDBRANCH   3   5
ENDBRANCH   1   3
BRANCH   2  19
ATOM     19  C   UNL     1       4.844  -1.786  -3.349  0.00  0.00    +0.333 C 
ATOM     20  O   UNL     1       4.267  -2.009  -4.394  0.00  0.00    -0.246 OA
BRANCH  19  21
ATOM     21  O   UNL     1       6.176  -1.972  -3.262  0.00  0.00    -0.449 OA
BRANCH  21  22
ATOM     22  C   UNL     1       6.845  -2.433  -4.437  0.00  0.00    +0.259 C 
ATOM     23  C   UNL     1       7.301  -1.232  -5.268  0.00  0.00    +0.062 C 
BRANCH  22  24
ATOM     24  C   UNL     1       8.044  -3.256  -4.043  0.00  0.00    +0.261 C 
ATOM     25  O   UNL     1       8.300  -3.431  -2.871  0.00  0.00    -0.271 OA
ATOM     26  N   UNL     1       8.831  -3.799  -4.993  0.00  0.00    -0.237 N 
ATOM     27  C   UNL     1       9.903  -4.535  -4.641  0.00  0.00    +0.306 C 
ATOM     28  O   UNL     1      10.161  -4.710  -3.466  0.00  0.00    -0.252 OA
ATOM     29  N   UNL     1      10.691  -5.077  -5.591  0.00  0.00    -0.297 N 
ATOM     30  H   UNL     1       8.626  -3.659  -5.931  0.00  0.00    +0.159 HD
ATOM     31  H   UNL     1      10.486  -4.937  -6.528  0.00  0.00    +0.151 HD
BRANCH  29  32
ATOM     32  C   UNL     1      11.856  -5.877  -5.207  0.00  0.00    +0.068 C 
ATOM     33  C   UNL     1      12.198  -6.853  -6.335  0.00  0.00    +0.027 C 
ATOM     34  C   UNL     1      13.049  -4.952  -4.954  0.00  0.00    +0.027 C 
ENDBRANCH  29  32
ENDBRANCH  22  24
ENDBRANCH  21  22
ENDBRANCH  19  21
ENDBRANCH   2  19
TORSDOF 10
