REMARK  Name = ZINC00706396
REMARK  9 active torsions:
REMARK  status: ('A' for Active; 'I' for Inactive)
REMARK    1  A    between atoms: C_1  and  C_2
REMARK    2  A    between atoms: C_3  and  C_20
REMARK    3  A    between atoms: C_4  and  C_10
REMARK    4  A    between atoms: C_12  and  O_18
REMARK    5  A    between atoms: C_13  and  O_17
REMARK    6  A    between atoms: O_18  and  C_19
REMARK    7  A    between atoms: C_20  and  O_22
REMARK    8  A    between atoms: O_22  and  C_23
REMARK    9  A    between atoms: C_23  and  C_24
REMARK                            x       y       z     vdW  Elec       q    Type
REMARK                         _______ _______ _______ _____ _____    ______ ____
ROOT
ATOM      1  C   UNL     1      -4.573   5.371   3.252  0.00  0.00    +0.061 C 
ATOM      2  C   UNL     1      -4.214   5.086   1.817  0.00  0.00    +0.021 C 
ATOM      3  C   UNL     1      -2.978   5.394   1.368  0.00  0.00    +0.078 C 
ATOM      4  C   UNL     1      -2.658   5.091  -0.082  0.00  0.00    +0.144 C 
ATOM      5  N   UNL     1      -3.730   4.482  -0.888  0.00  0.00    -0.288 N 
ATOM      6  C   UNL     1      -4.915   4.233  -0.296  0.00  0.00    +0.304 C 
ATOM      7  O   UNL     1      -5.806   3.730  -0.953  0.00  0.00    -0.252 OA
ATOM      8  N   UNL     1      -5.143   4.522   0.991  0.00  0.00    -0.273 N 
ATOM      9  H   UNL     1      -3.586   4.265  -1.822  0.00  0.00    +0.151 HD
ATOM     10  H   UNL     1      -6.018   4.318   1.358  0.00  0.00    +0.156 HD
ENDROOT
BRANCH   4  11
ATOM     11  C   UNL     1      -1.470   4.165  -0.112  0.00  0.00    -0.017 A 
ATOM     12  C   UNL     1      -1.638   2.818   0.156  0.00  0.00    +0.055 A 
ATOM     13  C   UNL     1      -0.547   1.965   0.129  0.00  0.00    +0.163 A 
ATOM     14  C   UNL     1       0.717   2.465  -0.169  0.00  0.00    +0.177 A 
ATOM     15  C   UNL     1       0.879   3.816  -0.437  0.00  0.00    +0.086 A 
ATOM     16  C   UNL     1      -0.214   4.663  -0.402  0.00  0.00    +0.029 A 
ATOM     17 CL   UNL     1       2.454   4.444  -0.808  0.00  0.00    -0.080 Cl
BRANCH  14  18
ATOM     18  O   UNL     1       1.791   1.631  -0.197  0.00  0.00    -0.502 OA
ATOM     19  H   UNL     1       2.243   1.543   0.653  0.00  0.00    +0.292 HD
ENDBRANCH  14  18
BRANCH  13  20
ATOM     20  O   UNL     1      -0.711   0.641   0.392  0.00  0.00    -0.491 OA
ATOM     21  C   UNL     1      -2.014   0.217   0.798  0.00  0.00    +0.277 C 
ENDBRANCH  13  20
ENDBRANCH   4  11
BRANCH   3  22
ATOM     22  C   UNL     1      -2.014   5.979   2.223  0.00  0.00    +0.339 C 
ATOM     23  O   UNL     1      -2.253   6.111   3.408  0.00  0.00    -0.245 OA
BRANCH  22  24
ATOM     24  O   UNL     1      -0.830   6.389   1.723  0.00  0.00    -0.459 OA
BRANCH  24  25
ATOM     25  C   UNL     1       0.056   7.060   2.621  0.00  0.00    +0.264 C 
BRANCH  25  26
ATOM     26  C   UNL     1       1.278   7.564   1.851  0.00  0.00    +0.156 C 
ATOM     27  C   UNL     1       2.169   8.413   2.779  0.00  0.00    +0.037 C 
ATOM     28  C   UNL     1       3.537   7.690   2.757  0.00  0.00    +0.031 C 
ATOM     29  C   UNL     1       3.449   6.868   1.446  0.00  0.00    +0.160 C 
ATOM     30  O   UNL     1       2.068   6.450   1.403  0.00  0.00    -0.373 OA
ENDBRANCH  25  26
ENDBRANCH  24  25
ENDBRANCH  22  24
ENDBRANCH   3  22
TORSDOF 7
