REMARK  Name = ZINC66594509
REMARK  10 active torsions:
REMARK  status: ('A' for Active; 'I' for Inactive)
REMARK    1  A    between atoms: C_1  and  O_2
REMARK    2  A    between atoms: O_2  and  C_3
REMARK    3  A    between atoms: C_6  and  C_10
REMARK    4  A    between atoms: C_7  and  O_9
REMARK    5  A    between atoms: C_10  and  N_11
REMARK    6  A    between atoms: N_11  and  C_12
REMARK    7  A    between atoms: C_12  and  C_13
REMARK    8  A    between atoms: C_13  and  C_14
REMARK    9  A    between atoms: C_14  and  N_15
REMARK   10  A    between atoms: N_18  and  C_21
REMARK                            x       y       z     vdW  Elec       q    Type
REMARK                         _______ _______ _______ _____ _____    ______ ____
ROOT
ATOM      1  C   UNL     1       2.139  -3.581  -6.497  0.00  0.00    -0.081 C 
ENDROOT
BRANCH   1   2
ATOM      2  N   UNL     1       1.486  -2.933  -5.351  0.00  0.00    +0.382 N 
ATOM      3  H   UNL     1       0.863  -3.588  -4.905  0.00  0.00    -0.085 HD
ATOM      4  H   UNL     1       0.961  -2.133  -5.672  0.00  0.00    -0.085 HD
BRANCH   2   5
ATOM      5  C   UNL     1       2.507  -2.495  -4.390  0.00  0.00    -0.043 C 
BRANCH   5   9
ATOM      6  C   UNL     1       0.606  -0.607  -1.056  0.00  0.00    +0.124 A 
ATOM      7  C   UNL     1       1.173   0.162  -2.062  0.00  0.00    +0.046 A 
ATOM      8  C   UNL     1       1.787  -0.451  -3.138  0.00  0.00    +0.009 A 
ATOM      9  C   UNL     1       1.837  -1.830  -3.215  0.00  0.00    -0.023 A 
ATOM     10  C   UNL     1       1.272  -2.603  -2.211  0.00  0.00    +0.122 A 
ATOM     11  C   UNL     1       0.660  -1.990  -1.127  0.00  0.00    +0.091 A 
BRANCH   6  13
ATOM     12  C   UNL     1      -0.017   1.425   0.010  0.00  0.00    +0.277 C 
ATOM     13  O   UNL     1       0.002  -0.004   0.002  0.00  0.00    -0.495 OA
ENDBRANCH   6  13
BRANCH  10  14
ATOM     14  O   UNL     1       1.322  -3.959  -2.286  0.00  0.00    -0.506 OA
ATOM     15  H   UNL     1       2.104  -4.347  -1.872  0.00  0.00    +0.292 HD
ENDBRANCH  10  14
ENDBRANCH   5   9
ENDBRANCH   2   5
ENDBRANCH   1   2
BRANCH   1  16
ATOM     16  C   UNL     1       1.076  -4.037  -7.498  0.00  0.00    -0.004 C 
BRANCH  16  17
ATOM     17  C   UNL     1       1.756  -4.712  -8.691  0.00  0.00    +0.082 C 
BRANCH  17  18
ATOM     18  N   UNL     1       0.735  -5.150  -9.653  0.00  0.00    -0.299 NA
ATOM     19  C   UNL     1      -0.110  -6.206  -9.079  0.00  0.00    +0.103 C 
ATOM     20  C   UNL     1      -1.267  -6.506 -10.038  0.00  0.00    +0.120 C 
ATOM     21  N   UNL     1      -0.709  -6.809 -11.364  0.00  0.00    -0.325 N 
ATOM     22  C   UNL     1       0.254  -5.861 -11.946  0.00  0.00    +0.120 C 
ATOM     23  C   UNL     1       1.352  -5.586 -10.913  0.00  0.00    +0.103 C 
BRANCH  21  24
ATOM     24  C   UNL     1      -1.084  -7.965 -12.055  0.00  0.00    +0.065 A 
ATOM     25  C   UNL     1      -2.170  -7.939 -12.919  0.00  0.00    +0.026 A 
ATOM     26  C   UNL     1      -2.537  -9.084 -13.600  0.00  0.00    +0.002 A 
ATOM     27  C   UNL     1      -1.826 -10.256 -13.421  0.00  0.00    +0.003 A 
ATOM     28  C   UNL     1      -0.744 -10.287 -12.561  0.00  0.00    +0.040 A 
ATOM     29  C   UNL     1      -0.366  -9.144 -11.881  0.00  0.00    +0.144 A 
ATOM     30  F   UNL     1       0.695  -9.174 -11.045  0.00  0.00    -0.204 F 
ENDBRANCH  21  24
ENDBRANCH  17  18
ENDBRANCH  16  17
ENDBRANCH   1  16
TORSDOF 9
