REMARK  Name = ZINC09339044
REMARK  5 active torsions:
REMARK  status: ('A' for Active; 'I' for Inactive)
REMARK    1  A    between atoms: N_12  and  C_16
REMARK    2  A    between atoms: C_16  and  C_17
REMARK    3  A    between atoms: N_19  and  N_20
REMARK    4  A    between atoms: C_21  and  C_23
REMARK    5  A    between atoms: C_28  and  N_29
REMARK                            x       y       z     vdW  Elec       q    Type
REMARK                         _______ _______ _______ _____ _____    ______ ____
ROOT
ATOM      1  C   UNL     1       7.176  -0.328   0.356  0.00  0.00    +0.247 C 
ATOM      2  O   UNL     1       7.220   0.880   0.462  0.00  0.00    -0.273 OA
ATOM      3  N   UNL     1       5.989  -0.949   0.214  0.00  0.00    -0.233 N 
ATOM      4  H   UNL     1       5.954  -1.915   0.129  0.00  0.00    +0.173 HD
ENDROOT
BRANCH   3   5
ATOM      5  N   UNL     1       4.805  -0.201   0.189  0.00  0.00    -0.230 N 
ATOM      6  C   UNL     1       3.617  -0.822   0.046  0.00  0.00    +0.262 C 
ATOM      7  O   UNL     1       3.574  -2.033  -0.060  0.00  0.00    -0.269 OA
ATOM      8  H   UNL     1       4.840   0.765   0.274  0.00  0.00    +0.173 HD
BRANCH   6   9
ATOM      9  C   UNL     1       2.370  -0.034   0.020  0.00  0.00    +0.062 A 
ATOM     10  C   UNL     1       2.402   1.339   0.273  0.00  0.00    +0.015 A 
ATOM     11  C   UNL     1       1.234   2.070   0.246  0.00  0.00    +0.001 A 
ATOM     12  C   UNL     1       0.026   1.449  -0.031  0.00  0.00    +0.002 A 
ATOM     13  C   UNL     1      -0.019   0.092  -0.283  0.00  0.00    +0.027 A 
ATOM     14  C   UNL     1       1.147  -0.659  -0.260  0.00  0.00    +0.058 A 
BRANCH  14  15
ATOM     15  N   UNL     1       1.102  -2.031  -0.515  0.00  0.00    -0.322 N 
ATOM     16  C   UNL     1       1.781  -2.680  -1.508  0.00  0.00    +0.091 A 
ATOM     17  C   UNL     1       1.486  -3.994  -1.431  0.00  0.00    +0.019 A 
ATOM     18  C   UNL     1       0.586  -4.163  -0.359  0.00  0.00    +0.019 A 
ATOM     19  C   UNL     1       0.368  -2.948   0.184  0.00  0.00    +0.091 A 
ENDBRANCH  14  15
ENDBRANCH   6   9
ENDBRANCH   3   5
BRANCH   1  20
ATOM     20  C   UNL     1       8.450  -1.133   0.383  0.00  0.00    +0.215 C 
BRANCH  20  32
ATOM     21  C   UNL     1      11.228   4.898   3.251  0.00  0.00    +0.000 A 
ATOM     22  C   UNL     1      10.023   4.460   2.735  0.00  0.00    +0.000 A 
ATOM     23  C   UNL     1       9.944   3.225   2.122  0.00  0.00    +0.006 A 
ATOM     24  C   UNL     1      11.067   2.421   2.020  0.00  0.00    -0.012 A 
ATOM     25  C   UNL     1      12.274   2.861   2.537  0.00  0.00    -0.042 A 
ATOM     26  C   UNL     1      12.350   4.099   3.152  0.00  0.00    +0.004 A 
ATOM     27  C   UNL     1      13.343   1.814   2.304  0.00  0.00    +0.038 C 
ATOM     28  C   UNL     1      12.574   0.515   1.971  0.00  0.00    +0.045 C 
ATOM     29  C   UNL     1      11.252   1.057   1.412  0.00  0.00    +0.138 C 
ATOM     30  C   UNL     1      10.103   0.141   1.740  0.00  0.00    +0.251 C 
ATOM     31  O   UNL     1       9.718  -0.192   2.841  0.00  0.00    -0.272 OA
ATOM     32  N   UNL     1       9.594  -0.232   0.546  0.00  0.00    -0.215 N 
ATOM     33  C   UNL     1      10.268   0.321  -0.471  0.00  0.00    +0.310 C 
ATOM     34  O   UNL     1      10.001   0.132  -1.642  0.00  0.00    -0.252 OA
ATOM     35  N   UNL     1      11.275   1.113  -0.050  0.00  0.00    -0.281 N 
ATOM     36  H   UNL     1      11.892   1.615  -0.605  0.00  0.00    +0.152 HD
ENDBRANCH  20  32
ENDBRANCH   1  20
TORSDOF 5
