REMARK  Name = ZINC03885853
REMARK  8 active torsions:
REMARK  status: ('A' for Active; 'I' for Inactive)
REMARK    1  A    between atoms: C_1  and  C_2
REMARK    2  A    between atoms: C_5  and  N_9
REMARK    3  A    between atoms: C_6  and  C_8
REMARK    4  A    between atoms: N_9  and  S_10
REMARK    5  A    between atoms: S_10  and  C_13
REMARK    6  A    between atoms: C_15  and  N_21
REMARK    7  A    between atoms: C_18  and  N_19
REMARK    8  A    between atoms: N_19  and  N_20
REMARK                            x       y       z     vdW  Elec       q    Type
REMARK                         _______ _______ _______ _____ _____    ______ ____
ROOT
ATOM      1  C   UNL     1       2.347  -0.088  -2.478  0.00  0.00    +0.133 A 
ATOM      2  C   UNL     1       1.194  -0.466  -3.138  0.00  0.00    +0.063 A 
ATOM      3  C   UNL     1       1.050  -0.203  -4.488  0.00  0.00    +0.128 A 
ATOM      4  C   UNL     1       2.059   0.439  -5.182  0.00  0.00    +0.034 A 
ATOM      5  C   UNL     1       3.215   0.819  -4.529  0.00  0.00    +0.028 A 
ATOM      6  C   UNL     1       3.361   0.561  -3.171  0.00  0.00    +0.068 A 
ENDROOT
BRANCH   1   7
ATOM      7  S   UNL     1       2.529  -0.423  -0.758  0.00  0.00    +0.074 S 
ATOM      8  O   UNL     1       3.795  -1.050  -0.598  0.00  0.00    -0.150 OA
ATOM      9  O   UNL     1       1.318  -1.033  -0.333  0.00  0.00    -0.150 OA
BRANCH   7  10
ATOM     10  N   UNL     1       2.623   1.036   0.018  0.00  0.00    -0.216 N 
ATOM     11  H   UNL     1       3.412   1.262   0.533  0.00  0.00    +0.174 HD
BRANCH  10  16
ATOM     12  C   UNL     1      -1.677   4.717  -0.338  0.00  0.00    +0.044 C 
ATOM     13  C   UNL     1      -0.534   3.739  -0.244  0.00  0.00    -0.050 A 
ATOM     14  C   UNL     1      -0.790   2.381  -0.203  0.00  0.00    +0.005 A 
ATOM     15  C   UNL     1       0.254   1.482  -0.111  0.00  0.00    +0.025 A 
ATOM     16  C   UNL     1       1.564   1.943  -0.070  0.00  0.00    +0.051 A 
ATOM     17  C   UNL     1       1.818   3.308  -0.117  0.00  0.00    -0.028 A 
ATOM     18  C   UNL     1       0.768   4.202  -0.204  0.00  0.00    +0.008 A 
ATOM     19  C   UNL     1       3.237   3.813  -0.073  0.00  0.00    +0.046 C 
ENDBRANCH  10  16
ENDBRANCH   7  10
ENDBRANCH   1   7
BRANCH   3  20
ATOM     20  N   UNL     1      -0.187  -0.609  -5.191  0.00  0.00    +0.056 N 
ATOM     21  O   UNL     1      -1.077  -1.175  -4.582  0.00  0.00    -0.126 OA
ATOM     22  O   UNL     1      -0.315  -0.378  -6.380  0.00  0.00    -0.126 OA
ENDBRANCH   3  20
BRANCH   6  23
ATOM     23  N   UNL     1       4.525   0.950  -2.506  0.00  0.00    -0.281 N 
ATOM     24  H   UNL     1       4.593   0.843  -1.544  0.00  0.00    +0.166 HD
BRANCH  23  25
ATOM     25  N   UNL     1       5.569   1.481  -3.210  0.00  0.00    -0.256 NA
ATOM     26  H   UNL     1       6.353   1.674  -2.604  0.00  0.00    +0.140 HD
ATOM     27  H   UNL     1       5.840   0.874  -3.969  0.00  0.00    +0.140 HD
ENDBRANCH  23  25
ENDBRANCH   6  23
TORSDOF 6
