REMARK  Name = ZINC35405811
REMARK  9 active torsions:
REMARK  status: ('A' for Active; 'I' for Inactive)
REMARK    1  A    between atoms: C_1  and  C_2
REMARK    2  A    between atoms: N_4  and  C_5
REMARK    3  A    between atoms: C_8  and  N_11
REMARK    4  A    between atoms: C_23  and  C_24
REMARK    5  A    between atoms: C_23  and  C_25
REMARK    6  A    between atoms: N_27  and  C_28
REMARK    7  A    between atoms: C_28  and  C_29
REMARK    8  A    between atoms: C_29  and  O_30
REMARK    9  A    between atoms: O_30  and  C_31
REMARK                            x       y       z     vdW  Elec       q    Type
REMARK                         _______ _______ _______ _____ _____    ______ ____
ROOT
ATOM      1  N   UNL     1      -0.747  -6.410   0.002  0.00  0.00    -0.250 N 
ATOM      2  C   UNL     1       0.481  -6.963   0.136  0.00  0.00    +0.268 C 
ATOM      3  O   UNL     1       1.404  -6.356   0.647  0.00  0.00    -0.268 OA
ATOM      4  C   UNL     1       0.642  -8.334  -0.366  0.00  0.00    +0.106 A 
ATOM      5  C   UNL     1       1.661  -9.203  -0.223  0.00  0.00    +0.041 A 
ATOM      6  C   UNL     1       1.308 -10.414  -0.894  0.00  0.00    +0.008 A 
ATOM      7  C   UNL     1       1.864 -11.735  -1.157  0.00  0.00    +0.017 A 
ATOM      8  C   UNL     1       1.148 -12.613  -1.871  0.00  0.00    +0.048 A 
ATOM      9  S   UNL     1      -0.347 -11.718  -2.246  0.00  0.00    -0.079 S 
ATOM     10  C   UNL     1       0.035 -10.186  -1.434  0.00  0.00    +0.088 A 
ATOM     11  N   UNL     1      -0.362  -8.936  -1.127  0.00  0.00    -0.328 N 
ATOM     12  C   UNL     1      -1.593  -8.218  -1.478  0.00  0.00    +0.158 C 
ATOM     13  C   UNL     1      -1.911  -7.202  -0.377  0.00  0.00    +0.133 C 
ATOM     14  C   UNL     1      -2.426  -7.946   0.856  0.00  0.00    +0.044 C 
ENDROOT
BRANCH   1  18
ATOM     15  C   UNL     1      -1.218  -2.329   0.708  0.00  0.00    +0.033 A 
ATOM     16  C   UNL     1      -0.388  -2.765  -0.316  0.00  0.00    +0.025 A 
ATOM     17  C   UNL     1      -0.232  -4.116  -0.550  0.00  0.00    +0.025 A 
ATOM     18  C   UNL     1      -0.905  -5.040   0.239  0.00  0.00    +0.038 A 
ATOM     19  C   UNL     1      -1.735  -4.603   1.264  0.00  0.00    +0.025 A 
ATOM     20  C   UNL     1      -1.887  -3.252   1.501  0.00  0.00    +0.025 A 
BRANCH  15  24
ATOM     21  C   UNL     1      -1.582   0.978   2.473  0.00  0.00    +0.109 C 
ATOM     22  C   UNL     1      -1.522  -0.504   2.207  0.00  0.00    +0.214 C 
ATOM     23  O   UNL     1      -1.605  -1.289   3.127  0.00  0.00    -0.276 OA
ATOM     24  N   UNL     1      -1.376  -0.957   0.946  0.00  0.00    -0.286 N 
ATOM     25  H   UNL     1      -1.380  -0.333   0.203  0.00  0.00    +0.155 HD
ENDBRANCH  15  24
ENDBRANCH   1  18
BRANCH  13  26
ATOM     26  C   UNL     1      -2.992  -6.274  -0.869  0.00  0.00    +0.239 C 
ATOM     27  O   UNL     1      -4.148  -6.469  -0.557  0.00  0.00    -0.273 OA
ATOM     28  N   UNL     1      -2.674  -5.226  -1.656  0.00  0.00    -0.311 N 
ATOM     29  H   UNL     1      -1.762  -5.109  -1.962  0.00  0.00    +0.149 HD
BRANCH  28  30
ATOM     30  C   UNL     1      -3.708  -4.265  -2.049  0.00  0.00    +0.132 C 
BRANCH  30  31
ATOM     31  C   UNL     1      -3.119  -3.259  -3.039  0.00  0.00    +0.178 C 
BRANCH  31  32
ATOM     32  O   UNL     1      -2.771  -3.931  -4.251  0.00  0.00    -0.381 OA
ATOM     33  C   UNL     1      -2.106  -3.101  -5.206  0.00  0.00    +0.194 C 
ENDBRANCH  31  32
ENDBRANCH  30  31
ENDBRANCH  28  30
ENDBRANCH  13  26
TORSDOF 6
