REMARK  Name = ZINC16010372
REMARK  4 active torsions:
REMARK  status: ('A' for Active; 'I' for Inactive)
REMARK    1  A    between atoms: C_1  and  C_2
REMARK    2  A    between atoms: C_2  and  C_4
REMARK    3  A    between atoms: C_2  and  O_33
REMARK    4  A    between atoms: N_12  and  C_15
REMARK                            x       y       z     vdW  Elec       q    Type
REMARK                         _______ _______ _______ _____ _____    ______ ____
ROOT
ATOM      1  C   UNL     1      -1.663  -0.415   0.307  0.00  0.00    +0.096 C 
ATOM      2  C   UNL     1      -1.438  -1.931   0.131  0.00  0.00    +0.110 C 
ATOM      3  C   UNL     1      -2.622  -2.601   0.882  0.00  0.00    +0.123 C 
ATOM      4  C   UNL     1      -1.944  -3.334   2.018  0.00  0.00    +0.233 C 
ATOM      5  O   UNL     1      -2.508  -4.003   2.856  0.00  0.00    -0.274 OA
ATOM      6  N   UNL     1      -0.623  -3.128   1.954  0.00  0.00    -0.210 N 
ATOM      7  C   UNL     1      -0.220  -2.351   0.922  0.00  0.00    +0.232 C 
ATOM      8  O   UNL     1       0.923  -2.036   0.669  0.00  0.00    -0.274 OA
ATOM      9  C   UNL     1      -3.446  -1.428   1.427  0.00  0.00    +0.136 C 
ATOM     10  N   UNL     1      -2.502  -0.290   1.529  0.00  0.00    -0.293 NA
ATOM     11  C   UNL     1      -4.617  -1.119   0.538  0.00  0.00    +0.003 A 
ATOM     12  C   UNL     1      -4.734  -0.755  -0.785  0.00  0.00    +0.008 A 
ATOM     13  C   UNL     1      -5.984  -0.533  -1.334  0.00  0.00    +0.000 A 
ATOM     14  C   UNL     1      -7.115  -0.679  -0.552  0.00  0.00    +0.002 A 
ATOM     15  C   UNL     1      -7.003  -1.043   0.774  0.00  0.00    +0.023 A 
ATOM     16  C   UNL     1      -5.748  -1.268   1.335  0.00  0.00    +0.039 A 
ATOM     17  N   UNL     1      -5.381  -1.637   2.631  0.00  0.00    -0.283 N 
ATOM     18  C   UNL     1      -4.045  -1.752   2.767  0.00  0.00    +0.243 C 
ATOM     19  O   UNL     1      -3.444  -2.057   3.775  0.00  0.00    -0.273 OA
ATOM     20  H   UNL     1      -1.937  -0.351   2.363  0.00  0.00    +0.124 HD
ATOM     21  H   UNL     1      -6.013  -1.794   3.349  0.00  0.00    +0.155 HD
ENDROOT
BRANCH   6  22
ATOM     22  C   UNL     1       0.276  -3.680   2.878  0.00  0.00    +0.044 A 
ATOM     23  C   UNL     1       1.183  -4.649   2.472  0.00  0.00    +0.027 A 
ATOM     24  C   UNL     1       2.068  -5.191   3.384  0.00  0.00    +0.040 A 
ATOM     25  C   UNL     1       2.050  -4.769   4.702  0.00  0.00    +0.124 A 
ATOM     26  C   UNL     1       1.146  -3.803   5.109  0.00  0.00    +0.040 A 
ATOM     27  C   UNL     1       0.264  -3.254   4.199  0.00  0.00    +0.027 A 
ATOM     28  F   UNL     1       2.916  -5.301   5.593  0.00  0.00    -0.205 F 
ENDBRANCH   6  22
BRANCH   1  30
ATOM     29  C   UNL     1       0.462   0.282  -0.808  0.00  0.00    +0.039 C 
ATOM     30  C   UNL     1      -0.326   0.302   0.504  0.00  0.00    +0.129 C 
BRANCH  30  31
ATOM     31  O   UNL     1      -0.565   1.656   0.895  0.00  0.00    -0.390 OA
ATOM     32  H   UNL     1       0.240   2.172   1.038  0.00  0.00    +0.210 HD
ENDBRANCH  30  31
ENDBRANCH   1  30
TORSDOF 3
