REMARK  Name = ZINC45209963
REMARK  8 active torsions:
REMARK  status: ('A' for Active; 'I' for Inactive)
REMARK    1  A    between atoms: C_1  and  C_2
REMARK    2  A    between atoms: C_6  and  C_15
REMARK    3  A    between atoms: C_7  and  O_8
REMARK    4  A    between atoms: O_8  and  C_9
REMARK    5  A    between atoms: C_9  and  C_10
REMARK    6  A    between atoms: C_10  and  C_11
REMARK    7  A    between atoms: C_10  and  C_12
REMARK    8  A    between atoms: C_10  and  N_14
REMARK                            x       y       z     vdW  Elec       q    Type
REMARK                         _______ _______ _______ _____ _____    ______ ____
ROOT
ATOM      1  O   UNL     1       0.025  -0.033   2.381  0.00  0.00    -0.489 OA
ENDROOT
BRANCH   1   8
ATOM      2  C   UNL     1      -0.018   1.503   0.010  0.00  0.00    +0.047 C 
ATOM      3  C   UNL     1       0.002  -0.004   0.002  0.00  0.00    -0.009 A 
ATOM      4  C   UNL     1       0.006  -0.689  -1.198  0.00  0.00    +0.007 A 
ATOM      5  C   UNL     1       0.024  -2.071  -1.206  0.00  0.00    +0.001 A 
ATOM      6  C   UNL     1       0.040  -2.772  -0.014  0.00  0.00    +0.007 A 
ATOM      7  C   UNL     1       0.036  -2.092   1.188  0.00  0.00    -0.009 A 
ATOM      8  C   UNL     1       0.023  -0.705   1.199  0.00  0.00    +0.126 A 
ATOM      9  C   UNL     1       0.052  -2.856   2.487  0.00  0.00    +0.047 C 
ENDBRANCH   1   8
BRANCH   1  10
ATOM     10  C   UNL     1      -1.246   0.270   2.957  0.00  0.00    +0.266 C 
BRANCH  10  11
ATOM     11  C   UNL     1      -1.043   1.022   4.274  0.00  0.00    +0.136 C 
ATOM     12  C   UNL     1      -0.393   2.378   3.992  0.00  0.00    +0.047 C 
BRANCH  11  13
ATOM     13  N   UNL     1      -0.172   0.236   5.158  0.00  0.00    -0.311 NA
ATOM     14  H   UNL     1      -0.580  -0.665   5.359  0.00  0.00    +0.120 HD
ATOM     15  H   UNL     1       0.750   0.134   4.760  0.00  0.00    +0.120 HD
ENDBRANCH  11  13
BRANCH  11  16
ATOM     16  C   UNL     1      -2.346   1.230   4.927  0.00  0.00    +0.088 C 
ATOM     17  N   UNL     1      -3.352   1.390   5.431  0.00  0.00    -0.195 NA
ENDBRANCH  11  16
ENDBRANCH  10  11
ENDBRANCH   1  10
TORSDOF 5
