REMARK  Name = ZINC05234579
REMARK  5 active torsions:
REMARK  status: ('A' for Active; 'I' for Inactive)
REMARK    1  A    between atoms: C_4  and  S_14
REMARK    2  A    between atoms: S_14  and  N_17
REMARK    3  A    between atoms: N_17  and  C_18
REMARK    4  A    between atoms: C_21  and  C_25
REMARK    5  A    between atoms: C_22  and  O_24
REMARK                            x       y       z     vdW  Elec       q    Type
REMARK                         _______ _______ _______ _____ _____    ______ ____
ROOT
ATOM      1  S   UNL     1       2.809   5.677  -0.007  0.00  0.00    +0.073 S 
ATOM      2  O   UNL     1       1.928   6.252   0.948  0.00  0.00    -0.150 OA
ATOM      3  O   UNL     1       4.223   5.761   0.112  0.00  0.00    -0.150 OA
ENDROOT
BRANCH   1   7
ATOM      4  C   UNL     1      -1.257   4.035  -0.492  0.00  0.00    +0.001 A 
ATOM      5  C   UNL     1       0.022   4.487  -0.341  0.00  0.00    +0.010 A 
ATOM      6  C   UNL     1       1.075   3.561  -0.247  0.00  0.00    +0.010 A 
ATOM      7  C   UNL     1       2.412   3.962  -0.091  0.00  0.00    +0.116 A 
ATOM      8  C   UNL     1       3.405   3.031  -0.003  0.00  0.00    +0.030 A 
ATOM      9  C   UNL     1       3.117   1.666  -0.066  0.00  0.00    +0.018 A 
ATOM     10  C   UNL     1       1.822   1.251  -0.218  0.00  0.00    +0.024 A 
ATOM     11  C   UNL     1       0.776   2.180  -0.311  0.00  0.00    +0.009 A 
ATOM     12  C   UNL     1      -0.537   1.723  -0.466  0.00  0.00    +0.038 A 
ATOM     13  C   UNL     1      -1.554   2.683  -0.550  0.00  0.00    +0.013 A 
ATOM     14  C   UNL     1      -0.674   0.242  -0.515  0.00  0.00    +0.225 C 
ATOM     15  O   UNL     1      -1.686  -0.421  -0.641  0.00  0.00    -0.279 OA
ATOM     16  S   UNL     1       1.011  -0.321  -0.343  0.00  0.00    -0.046 S 
ENDBRANCH   1   7
BRANCH   1  17
ATOM     17  N   UNL     1       2.417   6.342  -1.473  0.00  0.00    -0.216 N 
ATOM     18  H   UNL     1       1.748   7.042  -1.524  0.00  0.00    +0.174 HD
BRANCH  17  19
ATOM     19  C   UNL     1       3.048   5.897  -2.629  0.00  0.00    +0.052 A 
ATOM     20  C   UNL     1       4.432   5.732  -2.645  0.00  0.00    +0.025 A 
ATOM     21  C   UNL     1       5.061   5.291  -3.773  0.00  0.00    +0.020 A 
ATOM     22  C   UNL     1       4.319   5.011  -4.926  0.00  0.00    +0.105 A 
ATOM     23  C   UNL     1       2.925   5.181  -4.917  0.00  0.00    +0.133 A 
ATOM     24  C   UNL     1       2.297   5.624  -3.765  0.00  0.00    +0.070 A 
BRANCH  22  25
ATOM     25  C   UNL     1       4.997   4.541  -6.144  0.00  0.00    +0.390 C 
ATOM     26  O   UNL     1       4.350   4.298  -7.144  0.00  0.00    -0.240 OA
ATOM     27  O   UNL     1       6.335   4.378  -6.151  0.00  0.00    -0.240 OA
ENDBRANCH  22  25
BRANCH  23  28
ATOM     28  O   UNL     1       2.197   4.912  -6.029  0.00  0.00    -0.506 OA
ATOM     29  H   UNL     1       2.086   5.670  -6.619  0.00  0.00    +0.292 HD
ENDBRANCH  23  28
ENDBRANCH  17  19
ENDBRANCH   1  17
TORSDOF 5
