REMARK  Name = ZINC20764648
REMARK  7 active torsions:
REMARK  status: ('A' for Active; 'I' for Inactive)
REMARK    1  A    between atoms: C_1  and  C_2
REMARK    2  A    between atoms: C_2  and  O_3
REMARK    3  A    between atoms: O_3  and  C_4
REMARK    4  A    between atoms: C_7  and  C_10
REMARK    5  A    between atoms: C_12  and  C_26
REMARK    6  A    between atoms: C_15  and  C_18
REMARK    7  A    between atoms: C_23  and  O_24
REMARK                            x       y       z     vdW  Elec       q    Type
REMARK                         _______ _______ _______ _____ _____    ______ ____
ROOT
ATOM      1  C   UNL     1       1.170   3.561   0.009  0.00  0.00    +0.047 C 
ATOM      2  N   UNL     1       0.038   4.159   0.023  0.00  0.00    -0.264 NA
ATOM      3  C   UNL     1      -0.121   5.608   0.043  0.00  0.00    +0.206 C 
ATOM      4  N   UNL     1       1.120   6.271  -0.374  0.00  0.00    -0.284 NA
ATOM      5  C   UNL     1       2.260   5.752   0.402  0.00  0.00    +0.095 C 
ATOM      6  C   UNL     1       2.485   4.290   0.007  0.00  0.00    +0.079 C 
ATOM      7  H   UNL     1       1.296   6.082  -1.443  0.00  0.00    +0.125 HD
ENDROOT
BRANCH   5   8
ATOM      8  C   UNL     1       3.495   6.559   0.094  0.00  0.00    +0.013 A 
ATOM      9  C   UNL     1       3.559   7.310  -1.064  0.00  0.00    +0.028 A 
ATOM     10  C   UNL     1       4.692   8.051  -1.347  0.00  0.00    +0.042 A 
ATOM     11  C   UNL     1       5.764   8.042  -0.471  0.00  0.00    +0.023 A 
ATOM     12  C   UNL     1       5.703   7.292   0.687  0.00  0.00    +0.047 A 
ATOM     13  C   UNL     1       4.565   6.553   0.976  0.00  0.00    +0.122 A 
ATOM     14 CL   UNL     1       4.770   8.994  -2.802  0.00  0.00    -0.084 Cl
BRANCH  13  15
ATOM     15  O   UNL     1       4.502   5.819   2.118  0.00  0.00    -0.506 OA
ATOM     16  H   UNL     1       5.351   5.815   2.817  0.00  0.00    +0.292 HD
ENDBRANCH  13  15
ENDBRANCH   5   8
BRANCH   3  17
ATOM     17  C   UNL     1      -1.232   5.998  -0.898  0.00  0.00    +0.026 A 
ATOM     18  C   UNL     1      -1.151   7.180  -1.610  0.00  0.00    +0.010 A 
ATOM     19  C   UNL     1      -2.167   7.536  -2.478  0.00  0.00    +0.001 A 
ATOM     20  C   UNL     1      -3.270   6.715  -2.626  0.00  0.00    +0.003 A 
ATOM     21  C   UNL     1      -3.355   5.536  -1.911  0.00  0.00    +0.039 A 
ATOM     22  C   UNL     1      -2.335   5.176  -1.046  0.00  0.00    +0.130 A 
ATOM     23  F   UNL     1      -2.418   4.023  -0.346  0.00  0.00    -0.205 F 
ENDBRANCH   3  17
BRANCH   1  27
ATOM     24  C   UNL     1       1.214  -0.684  -0.013  0.00  0.00    +0.121 A 
ATOM     25  C   UNL     1       0.002  -0.004   0.002  0.00  0.00    +0.046 A 
ATOM     26  C   UNL     1      -0.017   1.373   0.010  0.00  0.00    +0.013 A 
ATOM     27  C   UNL     1       1.185   2.086   0.002  0.00  0.00    -0.004 A 
ATOM     28  C   UNL     1       2.401   1.398  -0.013  0.00  0.00    +0.013 A 
ATOM     29  C   UNL     1       2.411   0.021  -0.020  0.00  0.00    +0.046 A 
BRANCH  24  30
ATOM     30  O   UNL     1       1.228  -2.042  -0.019  0.00  0.00    -0.492 OA
BRANCH  30  32
ATOM     31  C   UNL     1       2.322  -4.196  -0.040  0.00  0.00    +0.048 C 
ATOM     32  C   UNL     1       2.507  -2.678  -0.035  0.00  0.00    +0.225 C 
ENDBRANCH  30  32
ENDBRANCH  24  30
ENDBRANCH   1  27
TORSDOF 6
