REMARK  Name = ZINC55185686
REMARK  3 active torsions:
REMARK  status: ('A' for Active; 'I' for Inactive)
REMARK    1  A    between atoms: C_1  and  C_2
REMARK    2  A    between atoms: C_2  and  C_3
REMARK    3  A    between atoms: C_10  and  C_12
REMARK                            x       y       z     vdW  Elec       q    Type
REMARK                         _______ _______ _______ _____ _____    ______ ____
ROOT
ATOM      1  C   UNL     1       0.784  -0.764  -1.093  0.00  0.00    +0.102 C 
ATOM      2  C   UNL     1       0.508  -2.233  -0.754  0.00  0.00    +0.182 C 
ATOM      3  O   UNL     1       1.405  -3.064  -1.494  0.00  0.00    -0.376 OA
ATOM      4  C   UNL     1       2.785  -2.860  -1.180  0.00  0.00    +0.179 C 
ATOM      5  C   UNL     1       3.178  -1.423  -1.541  0.00  0.00    +0.136 C 
ATOM      6  N   UNL     1       2.220  -0.505  -0.904  0.00  0.00    -0.289 N 
ATOM      7  C   UNL     1       2.646   0.541  -0.169  0.00  0.00    +0.266 C 
ATOM      8  O   UNL     1       1.850   1.189   0.484  0.00  0.00    -0.268 OA
ENDROOT
BRANCH   7   9
ATOM      9  C   UNL     1       4.073   0.899  -0.155  0.00  0.00    +0.135 A 
ATOM     10  C   UNL     1       4.545   1.845   0.720  0.00  0.00    +0.081 A 
ATOM     11  S   UNL     1       6.281   1.858   0.292  0.00  0.00    -0.060 S 
ATOM     12  C   UNL     1       6.208   0.618  -0.993  0.00  0.00    +0.156 A 
ATOM     13  N   UNL     1       4.929   0.304  -0.989  0.00  0.00    -0.221 NA
ATOM     14  N   UNL     1       7.230   0.115  -1.781  0.00  0.00    -0.338 N 
ATOM     15  H   UNL     1       8.136   0.442  -1.667  0.00  0.00    +0.144 HD
ATOM     16  H   UNL     1       7.039  -0.564  -2.447  0.00  0.00    +0.144 HD
ENDBRANCH   7   9
BRANCH   1  18
ATOM     17  C   UNL     1      -1.522  -0.119  -0.380  0.00  0.00    +0.006 C 
ATOM     18  C   UNL     1      -0.029   0.141  -0.166  0.00  0.00    +0.021 C 
ENDBRANCH   1  18
TORSDOF 2
