REMARK  Name = ZINC09290492
REMARK  9 active torsions:
REMARK  status: ('A' for Active; 'I' for Inactive)
REMARK    1  A    between atoms: C_1  and  C_2
REMARK    2  A    between atoms: C_5  and  C_8
REMARK    3  A    between atoms: C_8  and  N_60
REMARK    4  A    between atoms: C_17  and  S_19
REMARK    5  A    between atoms: S_19  and  C_20
REMARK    6  A    between atoms: C_20  and  C_21
REMARK    7  A    between atoms: N_23  and  C_24
REMARK    8  A    between atoms: C_26  and  C_31
REMARK    9  A    between atoms: C_29  and  C_30
REMARK                            x       y       z     vdW  Elec       q    Type
REMARK                         _______ _______ _______ _____ _____    ______ ____
ROOT
ATOM      1  C   UNL     1       1.382  -0.509  -0.367  0.00  0.00    -0.072 C 
ATOM      2  C   UNL     1       0.002  -0.006   0.056  0.00  0.00    +0.037 C 
ATOM      3  C   UNL     1      -0.018   1.501   0.058  0.00  0.00    +0.049 A 
ATOM      4  C   UNL     1       1.129   2.232   0.056  0.00  0.00    +0.022 A 
ATOM      5  C   UNL     1       1.042   3.638   0.064  0.00  0.00    +0.254 A 
ATOM      6  O   UNL     1       2.053   4.321   0.066  0.00  0.00    -0.268 OA
ATOM      7  N   UNL     1      -0.176   4.218   0.070  0.00  0.00    -0.302 N 
ATOM      8  H   UNL     1      -0.257   5.184   0.076  0.00  0.00    +0.171 HD
ATOM      9  C   UNL     1      -1.292   3.437   0.067  0.00  0.00    +0.170 A 
ATOM     10  N   UNL     1      -1.201   2.123   0.067  0.00  0.00    -0.228 NA
ATOM     11  C   UNL     1       2.490   1.591   0.044  0.00  0.00    -0.035 C 
ATOM     12  N   UNL     1       2.388   0.183   0.464  0.00  0.00    +0.385 N 
ATOM     13  H   UNL     1       2.094   0.146   1.447  0.00  0.00    -0.081 HD
ENDROOT
BRANCH  12  14
ATOM     14  C   UNL     1       3.704  -0.482   0.329  0.00  0.00    -0.043 C 
BRANCH  14  19
ATOM     15  C   UNL     1       7.769   2.828   2.759  0.00  0.00    +0.044 C 
ATOM     16  C   UNL     1       6.710   1.964   2.125  0.00  0.00    -0.050 A 
ATOM     17  C   UNL     1       6.038   1.025   2.885  0.00  0.00    +0.003 A 
ATOM     18  C   UNL     1       5.065   0.233   2.303  0.00  0.00    +0.002 A 
ATOM     19  C   UNL     1       4.764   0.381   0.962  0.00  0.00    -0.064 A 
ATOM     20  C   UNL     1       5.440   1.317   0.201  0.00  0.00    +0.002 A 
ATOM     21  C   UNL     1       6.409   2.111   0.784  0.00  0.00    +0.003 A 
ENDBRANCH  14  19
ENDBRANCH  12  14
BRANCH   9  22
ATOM     22  S   UNL     1      -2.882   4.196   0.071  0.00  0.00    -0.078 S 
BRANCH  22  23
ATOM     23  C   UNL     1      -3.934   2.722   0.066  0.00  0.00    +0.173 C 
BRANCH  23  24
ATOM     24  C   UNL     1      -5.382   3.139   0.068  0.00  0.00    +0.227 C 
ATOM     25  O   UNL     1      -5.674   4.316   0.073  0.00  0.00    -0.275 OA
ATOM     26  N   UNL     1      -6.352   2.204   0.065  0.00  0.00    -0.285 N 
ATOM     27  H   UNL     1      -6.121   1.265  -0.020  0.00  0.00    +0.155 HD
BRANCH  26  28
ATOM     28  C   UNL     1      -7.693   2.586   0.184  0.00  0.00    +0.037 A 
ATOM     29  C   UNL     1      -8.023   3.785   0.802  0.00  0.00    +0.027 A 
ATOM     30  C   UNL     1      -9.346   4.162   0.913  0.00  0.00    -0.049 A 
ATOM     31  C   UNL     1     -10.344   3.341   0.419  0.00  0.00    +0.004 A 
ATOM     32  C   UNL     1     -10.020   2.144  -0.192  0.00  0.00    +0.005 A 
ATOM     33  C   UNL     1      -8.697   1.764  -0.311  0.00  0.00    -0.029 A 
ATOM     34  C   UNL     1      -8.344   0.459  -0.977  0.00  0.00    +0.045 C 
ATOM     35  C   UNL     1      -9.704   5.465   1.579  0.00  0.00    +0.044 C 
ENDBRANCH  26  28
ENDBRANCH  23  24
ENDBRANCH  22  23
ENDBRANCH   9  22
TORSDOF 6
