REMARK  Name = ZINC58900060
REMARK  6 active torsions:
REMARK  status: ('A' for Active; 'I' for Inactive)
REMARK    1  A    between atoms: C_1  and  C_2
REMARK    2  A    between atoms: N_5  and  C_7
REMARK    3  A    between atoms: C_7  and  N_9
REMARK    4  A    between atoms: C_11  and  N_24
REMARK    5  A    between atoms: C_12  and  C_22
REMARK    6  A    between atoms: C_13  and  C_15
REMARK                            x       y       z     vdW  Elec       q    Type
REMARK                         _______ _______ _______ _____ _____    ______ ____
ROOT
ATOM      1  C   UNL     1      -0.018   1.503   0.010  0.00  0.00    +0.068 C 
ATOM      2  C   UNL     1       0.002  -0.004   0.002  0.00  0.00    +0.068 A 
ATOM      3  C   UNL     1       0.008  -0.812  -1.129  0.00  0.00    +0.050 A 
ATOM      4  C   UNL     1       0.027  -2.115  -0.720  0.00  0.00    +0.231 A 
ATOM      5  N   UNL     1       0.034  -2.115   0.634  0.00  0.00    -0.179 N 
ATOM      6  N   UNL     1       0.023  -0.777   1.061  0.00  0.00    -0.167 NA
ATOM      7  O   UNL     1       0.034  -3.156  -1.588  0.00  0.00    -0.423 OA
ATOM      8  C   UNL     1      -0.254  -2.894  -2.879  0.00  0.00    +0.200 C 
ATOM      9  C   UNL     1      -0.290  -1.649  -3.404  0.00  0.00    +0.098 C 
ATOM     10  C   UNL     1      -0.003  -0.417  -2.584  0.00  0.00    +0.101 C 
ENDROOT
BRANCH  10  11
ATOM     11  C   UNL     1       1.340   0.147  -2.968  0.00  0.00    -0.034 A 
ATOM     12  C   UNL     1       2.476  -0.632  -2.851  0.00  0.00    +0.007 A 
ATOM     13  C   UNL     1       3.708  -0.116  -3.203  0.00  0.00    +0.038 A 
ATOM     14  C   UNL     1       3.806   1.182  -3.674  0.00  0.00    +0.123 A 
ATOM     15  C   UNL     1       2.668   1.962  -3.791  0.00  0.00    +0.038 A 
ATOM     16  C   UNL     1       1.435   1.442  -3.443  0.00  0.00    +0.007 A 
ATOM     17  F   UNL     1       5.010   1.688  -4.018  0.00  0.00    -0.205 F 
ENDBRANCH  10  11
BRANCH   8  18
ATOM     18  N   UNL     1      -0.526  -3.954  -3.709  0.00  0.00    -0.328 N 
ATOM     19  H   UNL     1      -0.507  -4.859  -3.361  0.00  0.00    +0.145 HD
ATOM     20  H   UNL     1      -0.737  -3.797  -4.643  0.00  0.00    +0.145 HD
ENDBRANCH   8  18
BRANCH   5  21
ATOM     21  C   UNL     1       0.053  -3.203   1.430  0.00  0.00    +0.167 C 
ATOM     22  S   UNL     1       0.071  -4.769   0.738  0.00  0.00    -0.014 S 
BRANCH  21  23
ATOM     23  N   UNL     1       0.058  -3.058   2.770  0.00  0.00    -0.337 N 
ATOM     24  H   UNL     1       0.048  -2.171   3.162  0.00  0.00    +0.144 HD
ATOM     25  H   UNL     1       0.072  -3.841   3.342  0.00  0.00    +0.144 HD
ENDBRANCH  21  23
ENDBRANCH   5  21
BRANCH   9  26
ATOM     26  C   UNL     1      -0.613  -1.495  -4.791  0.00  0.00    +0.101 C 
ATOM     27  N   UNL     1      -0.869  -1.372  -5.891  0.00  0.00    -0.191 NA
ENDBRANCH   9  26
TORSDOF 5
