REMARK  Name = ZINC35197577
REMARK  10 active torsions:
REMARK  status: ('A' for Active; 'I' for Inactive)
REMARK    1  A    between atoms: C_1  and  C_2
REMARK    2  A    between atoms: C_5  and  N_9
REMARK    3  A    between atoms: C_7  and  C_8
REMARK    4  A    between atoms: C_13  and  C_25
REMARK    5  A    between atoms: C_17  and  C_19
REMARK    6  A    between atoms: C_25  and  O_27
REMARK    7  A    between atoms: O_27  and  C_28
REMARK    8  A    between atoms: C_28  and  C_29
REMARK    9  A    between atoms: C_29  and  C_30
REMARK   10  A    between atoms: C_29  and  C_31
REMARK                            x       y       z     vdW  Elec       q    Type
REMARK                         _______ _______ _______ _____ _____    ______ ____
ROOT
ATOM      1  N   UNL     1       2.179  -4.269  -0.497  0.00  0.00    -0.269 N 
ATOM      2  C   UNL     1       1.536  -5.307   0.074  0.00  0.00    +0.308 C 
ATOM      3  O   UNL     1       1.373  -5.332   1.279  0.00  0.00    -0.252 OA
ATOM      4  N   UNL     1       1.072  -6.316  -0.690  0.00  0.00    -0.259 N 
ATOM      5  C   UNL     1       0.241  -7.383  -0.141  0.00  0.00    +0.197 C 
ATOM      6  C   UNL     1      -0.761  -7.910  -1.210  0.00  0.00    +0.105 C 
ATOM      7  S   UNL     1       0.354  -7.838  -2.683  0.00  0.00    -0.136 S 
ATOM      8  C   UNL     1       1.371  -6.404  -2.132  0.00  0.00    +0.139 C 
ATOM      9  H   UNL     1       2.291  -4.239  -1.460  0.00  0.00    +0.156 HD
ENDROOT
BRANCH   1  14
ATOM     10  C   UNL     1       4.234  -0.081   2.731  0.00  0.00    +0.044 C 
ATOM     11  C   UNL     1       3.688  -1.194   1.874  0.00  0.00    -0.047 A 
ATOM     12  C   UNL     1       2.546  -1.869   2.264  0.00  0.00    +0.005 A 
ATOM     13  C   UNL     1       2.043  -2.889   1.480  0.00  0.00    +0.023 A 
ATOM     14  C   UNL     1       2.686  -3.236   0.299  0.00  0.00    +0.035 A 
ATOM     15  C   UNL     1       3.832  -2.556  -0.090  0.00  0.00    +0.027 A 
ATOM     16  C   UNL     1       4.327  -1.533   0.695  0.00  0.00    -0.046 A 
ATOM     17  C   UNL     1       5.567  -0.790   0.271  0.00  0.00    +0.044 C 
ENDBRANCH   1  14
BRANCH   8  18
ATOM     18  C   UNL     1       2.858  -6.678  -2.361  0.00  0.00    +0.020 C 
ATOM     19  C   UNL     1       3.683  -5.514  -1.808  0.00  0.00    +0.006 C 
ATOM     20  C   UNL     1       5.170  -5.788  -2.037  0.00  0.00    +0.000 C 
ATOM     21  C   UNL     1       5.437  -5.936  -3.537  0.00  0.00    +0.000 C 
ATOM     22  C   UNL     1       4.613  -7.100  -4.089  0.00  0.00    +0.000 C 
ATOM     23  C   UNL     1       3.125  -6.826  -3.861  0.00  0.00    +0.006 C 
ENDBRANCH   8  18
BRANCH   5  24
ATOM     24  C   UNL     1      -0.531  -6.852   1.040  0.00  0.00    +0.329 C 
ATOM     25  O   UNL     1      -0.911  -5.705   1.047  0.00  0.00    -0.249 OA
BRANCH  24  26
ATOM     26  O   UNL     1      -0.795  -7.653   2.084  0.00  0.00    -0.463 OA
BRANCH  26  27
ATOM     27  C   UNL     1      -1.531  -7.084   3.169  0.00  0.00    +0.235 C 
BRANCH  27  28
ATOM     28  C   UNL     1      -1.734  -8.140   4.257  0.00  0.00    +0.020 C 
ATOM     29  C   UNL     1      -0.378  -8.530   4.848  0.00  0.00    +0.010 C 
ATOM     30  C   UNL     1      -2.627  -7.569   5.361  0.00  0.00    +0.010 C 
ENDBRANCH  27  28
ENDBRANCH  26  27
ENDBRANCH  24  26
ENDBRANCH   5  24
TORSDOF 6
