REMARK  Name = ZINC03610256
REMARK  4 active torsions:
REMARK  status: ('A' for Active; 'I' for Inactive)
REMARK    1  A    between atoms: C_1  and  C_2
REMARK    2  A    between atoms: N_10  and  C_14
REMARK    3  A    between atoms: C_14  and  C_15
REMARK    4  A    between atoms: N_17  and  C_18
REMARK                            x       y       z     vdW  Elec       q    Type
REMARK                         _______ _______ _______ _____ _____    ______ ____
ROOT
ATOM      1  C   UNL     1      -8.621   5.956  -0.504  0.00  0.00    +0.007 C 
ATOM      2  C   UNL     1      -7.515   5.038  -1.028  0.00  0.00    -0.014 C 
ATOM      3  C   UNL     1      -6.158   5.535  -0.523  0.00  0.00    +0.006 C 
ATOM      4  C   UNL     1      -5.051   4.622  -1.058  0.00  0.00    +0.035 C 
ATOM      5  C   UNL     1      -5.295   3.193  -0.587  0.00  0.00    +0.113 C 
ATOM      6  C   UNL     1      -6.655   2.692  -1.061  0.00  0.00    +0.035 C 
ATOM      7  C   UNL     1      -7.756   3.612  -0.526  0.00  0.00    +0.006 C 
ATOM      8  C   UNL     1      -4.197   2.280  -1.081  0.00  0.00    +0.247 C 
ATOM      9  O   UNL     1      -3.905   2.041  -2.234  0.00  0.00    -0.273 OA
ATOM     10  N   UNL     1      -3.608   1.789   0.029  0.00  0.00    -0.215 N 
ATOM     11  C   UNL     1      -4.185   2.260   1.141  0.00  0.00    +0.310 C 
ATOM     12  O   UNL     1      -3.833   1.958   2.265  0.00  0.00    -0.252 OA
ATOM     13  N   UNL     1      -5.197   3.108   0.876  0.00  0.00    -0.285 N 
ATOM     14  H   UNL     1      -5.754   3.569   1.523  0.00  0.00    +0.151 HD
ENDROOT
BRANCH  10  15
ATOM     15  C   UNL     1      -2.482   0.853   0.018  0.00  0.00    +0.213 C 
BRANCH  15  16
ATOM     16  C   UNL     1      -1.187   1.624   0.017  0.00  0.00    +0.231 C 
ATOM     17  O   UNL     1      -1.204   2.837   0.023  0.00  0.00    -0.274 OA
ATOM     18  N   UNL     1      -0.011   0.966   0.007  0.00  0.00    -0.311 N 
ATOM     19  H   UNL     1       0.002  -0.004   0.002  0.00  0.00    +0.149 HD
BRANCH  18  20
ATOM     20  C   UNL     1       1.248   1.716  -0.001  0.00  0.00    +0.073 C 
ATOM     21  C   UNL     1       1.660   2.041  -1.451  0.00  0.00    +0.022 C 
ATOM     22  C   UNL     1       3.203   1.904  -1.448  0.00  0.00    +0.002 C 
ATOM     23  C   UNL     1       3.436   0.690  -0.514  0.00  0.00    +0.002 C 
ATOM     24  C   UNL     1       2.377   0.856   0.595  0.00  0.00    +0.022 C 
ENDBRANCH  18  20
ENDBRANCH  15  16
ENDBRANCH  10  15
TORSDOF 3
