REMARK  Name = ZINC67617658
REMARK  13 active torsions:
REMARK  status: ('A' for Active; 'I' for Inactive)
REMARK    1  A    between atoms: C_1  and  C_2
REMARK    2  A    between atoms: N_5  and  C_8
REMARK    3  A    between atoms: C_8  and  C_9
REMARK    4  A    between atoms: C_9  and  C_11
REMARK    5  A    between atoms: C_9  and  O_29
REMARK    6  A    between atoms: C_11  and  N_12
REMARK    7  A    between atoms: N_15  and  C_16
REMARK    8  A    between atoms: C_16  and  C_18
REMARK    9  A    between atoms: C_16  and  C_19
REMARK   10  A    between atoms: C_22  and  O_25
REMARK   11  A    between atoms: O_25  and  C_26
REMARK   12  A    between atoms: C_26  and  C_27
REMARK   13  A    between atoms: C_26  and  C_28
REMARK                            x       y       z     vdW  Elec       q    Type
REMARK                         _______ _______ _______ _____ _____    ______ ____
ROOT
ATOM      1  N   UNL     1       0.859  -6.505   3.678  0.00  0.00    -0.297 N 
ATOM      2  C   UNL     1       0.871  -7.777   4.124  0.00  0.00    +0.300 C 
ATOM      3  O   UNL     1       0.406  -8.666   3.436  0.00  0.00    -0.253 OA
ATOM      4  N   UNL     1       1.397  -8.064   5.331  0.00  0.00    -0.293 N 
ATOM      5  H   UNL     1       1.230  -5.796   4.227  0.00  0.00    +0.150 HD
ATOM      6  H   UNL     1       1.767  -7.354   5.879  0.00  0.00    +0.151 HD
ENDROOT
BRANCH   4   7
ATOM      7  C   UNL     1       1.409  -9.446   5.815  0.00  0.00    +0.102 C 
ATOM      8  C   UNL     1       0.071  -9.764   6.486  0.00  0.00    +0.033 C 
BRANCH   7   9
ATOM      9  C   UNL     1       2.525  -9.619   6.813  0.00  0.00    -0.027 A 
ATOM     10  C   UNL     1       2.785  -8.624   7.737  0.00  0.00    +0.009 A 
ATOM     11  C   UNL     1       3.807  -8.780   8.652  0.00  0.00    +0.046 A 
ATOM     12  C   UNL     1       4.573  -9.937   8.645  0.00  0.00    +0.121 A 
ATOM     13  C   UNL     1       4.310 -10.934   7.717  0.00  0.00    +0.046 A 
ATOM     14  C   UNL     1       3.283 -10.775   6.807  0.00  0.00    +0.009 A 
BRANCH  12  15
ATOM     15  O   UNL     1       5.580 -10.093   9.544  0.00  0.00    -0.489 OA
BRANCH  15  16
ATOM     16  C   UNL     1       5.718  -9.082  10.544  0.00  0.00    +0.167 C 
ATOM     17  C   UNL     1       6.417  -9.671  11.772  0.00  0.00    +0.051 C 
ATOM     18  C   UNL     1       6.552  -7.926   9.990  0.00  0.00    +0.051 C 
ENDBRANCH  15  16
ENDBRANCH  12  15
ENDBRANCH   7   9
ENDBRANCH   4   7
BRANCH   1  19
ATOM     19  C   UNL     1       0.287  -6.193   2.366  0.00  0.00    +0.135 C 
BRANCH  19  20
ATOM     20  C   UNL     1       0.400  -4.690   2.105  0.00  0.00    +0.115 C 
BRANCH  20  21
ATOM     21  O   UNL     1      -0.313  -3.976   3.117  0.00  0.00    -0.392 OA
ATOM     22  H   UNL     1      -1.256  -4.189   3.159  0.00  0.00    +0.210 HD
ENDBRANCH  20  21
BRANCH  20  23
ATOM     23  C   UNL     1      -0.198  -4.364   0.735  0.00  0.00    -0.046 C 
BRANCH  23  28
ATOM     24  C   UNL     1       1.143   0.746  -1.414  0.00  0.00    +0.007 C 
ATOM     25  C   UNL     1       0.981  -0.763  -1.214  0.00  0.00    -0.018 C 
ATOM     26  C   UNL     1      -0.507  -1.107  -1.105  0.00  0.00    -0.016 C 
ATOM     27  C   UNL     1      -0.659  -2.604  -0.826  0.00  0.00    -0.078 C 
ATOM     28  N   UNL     1       0.017  -2.943   0.432  0.00  0.00    +0.381 N 
ATOM     29  C   UNL     1       1.456  -2.682   0.309  0.00  0.00    -0.078 C 
ATOM     30  C   UNL     1       1.690  -1.188   0.075  0.00  0.00    -0.016 C 
ATOM     31  H   UNL     1      -0.363  -2.381   1.179  0.00  0.00    -0.082 HD
ENDBRANCH  23  28
ENDBRANCH  20  23
ENDBRANCH  19  20
ENDBRANCH   1  19
TORSDOF 9
