REMARK  Name = ZINC19769060
REMARK  11 active torsions:
REMARK  status: ('A' for Active; 'I' for Inactive)
REMARK    1  A    between atoms: C_1  and  C_2
REMARK    2  A    between atoms: C_2  and  C_3
REMARK    3  A    between atoms: N_7  and  C_19
REMARK    4  A    between atoms: C_10  and  C_15
REMARK    5  A    between atoms: C_15  and  C_17
REMARK    6  A    between atoms: C_15  and  N_18
REMARK    7  A    between atoms: C_19  and  C_20
REMARK    8  A    between atoms: N_22  and  C_23
REMARK    9  A    between atoms: C_23  and  C_24
REMARK   10  A    between atoms: C_24  and  C_25
REMARK   11  A    between atoms: C_24  and  C_26
REMARK                            x       y       z     vdW  Elec       q    Type
REMARK                         _______ _______ _______ _____ _____    ______ ____
ROOT
ATOM      1  C   UNL     1       0.060   4.098   0.620  0.00  0.00    +0.259 C 
ATOM      2  C   UNL     1      -1.228   3.409   0.245  0.00  0.00    +0.261 C 
ATOM      3  O   UNL     1      -2.255   4.047   0.151  0.00  0.00    -0.271 OA
ATOM      4  N   UNL     1      -1.232   2.079   0.015  0.00  0.00    -0.256 N 
ATOM      5  C   UNL     1      -0.017   1.381   0.010  0.00  0.00    +0.079 A 
ATOM      6  C   UNL     1       0.002  -0.004   0.002  0.00  0.00    +0.029 A 
ATOM      7  C   UNL     1       1.210  -0.677  -0.000  0.00  0.00    -0.060 A 
ATOM      8  C   UNL     1       2.399   0.030   0.005  0.00  0.00    +0.005 A 
ATOM      9  C   UNL     1       2.387   1.413   0.007  0.00  0.00    +0.048 A 
ATOM     10  C   UNL     1       1.181   2.093   0.002  0.00  0.00    +0.143 A 
ATOM     11  O   UNL     1       1.157   3.452  -0.030  0.00  0.00    -0.478 OA
ENDROOT
BRANCH   1  13
ATOM     12  C   UNL     1       1.491   4.835   2.531  0.00  0.00    +0.008 C 
ATOM     13  C   UNL     1       0.253   4.027   2.136  0.00  0.00    +0.051 C 
ENDBRANCH   1  13
BRANCH   7  14
ATOM     14  C   UNL     1       1.231  -2.183  -0.009  0.00  0.00    -0.047 C 
ATOM     15  C   UNL     1       1.488  -2.698   1.409  0.00  0.00    -0.009 C 
BRANCH  14  16
ATOM     16  N   UNL     1       2.300  -2.653  -0.900  0.00  0.00    +0.382 N 
ATOM     17  H   UNL     1       2.316  -3.753  -0.906  0.00  0.00    -0.089 HD
ATOM     18  H   UNL     1       3.269  -2.275  -0.542  0.00  0.00    -0.089 HD
ATOM     19  H   UNL     1       2.116  -2.284  -1.920  0.00  0.00    -0.089 HD
ENDBRANCH  14  16
ENDBRANCH   7  14
BRANCH   4  20
ATOM     20  C   UNL     1      -2.493   1.373  -0.226  0.00  0.00    +0.209 C 
BRANCH  20  21
ATOM     21  C   UNL     1      -3.057   0.890   1.086  0.00  0.00    +0.231 C 
ATOM     22  O   UNL     1      -2.464   1.113   2.120  0.00  0.00    -0.274 OA
ATOM     23  N   UNL     1      -4.220   0.209   1.109  0.00  0.00    -0.314 N 
ATOM     24  H   UNL     1      -4.758   0.007   0.171  0.00  0.00    +0.149 HD
BRANCH  23  25
ATOM     25  C   UNL     1      -4.769  -0.260   2.384  0.00  0.00    +0.107 C 
BRANCH  25  26
ATOM     26  C   UNL     1      -6.085  -0.997   2.132  0.00  0.00    -0.000 C 
ATOM     27  C   UNL     1      -5.813  -2.264   1.318  0.00  0.00    +0.009 C 
ATOM     28  C   UNL     1      -6.720  -1.379   3.471  0.00  0.00    +0.009 C 
ENDBRANCH  25  26
ENDBRANCH  23  25
ENDBRANCH  20  21
ENDBRANCH   4  20
TORSDOF 7
