REMARK  Name = ZINC04655785
REMARK  2 active torsions:
REMARK  status: ('A' for Active; 'I' for Inactive)
REMARK    1  A    between atoms: C_15  and  N_16
REMARK    2  A    between atoms: N_24  and  N_25
REMARK                            x       y       z     vdW  Elec       q    Type
REMARK                         _______ _______ _______ _____ _____    ______ ____
ROOT
ATOM      1  N   UNL     1       3.841  -1.572   1.093  0.00  0.00    -0.254 N 
ATOM      2  C   UNL     1       4.946  -2.368   1.372  0.00  0.00    +0.047 A 
ATOM      3  C   UNL     1       6.161  -2.524   0.715  0.00  0.00    +0.024 A 
ATOM      4  C   UNL     1       7.109  -3.398   1.209  0.00  0.00    +0.002 A 
ATOM      5  C   UNL     1       6.864  -4.126   2.361  0.00  0.00    +0.001 A 
ATOM      6  C   UNL     1       5.663  -3.984   3.027  0.00  0.00    +0.012 A 
ATOM      7  C   UNL     1       4.702  -3.106   2.537  0.00  0.00    +0.028 A 
ATOM      8  C   UNL     1       3.346  -2.728   2.997  0.00  0.00    +0.153 C 
ATOM      9  N   UNL     1       2.707  -3.173   4.051  0.00  0.00    -0.173 NA
ATOM     10  C   UNL     1       2.873  -1.734   2.012  0.00  0.00    +0.272 C 
ATOM     11  O   UNL     1       1.798  -1.165   2.028  0.00  0.00    -0.268 OA
ENDROOT
BRANCH   1  26
ATOM     12  C   UNL     1      -0.364  -0.005  -1.049  0.00  0.00    +0.001 A 
ATOM     13  C   UNL     1       0.470   1.058  -0.748  0.00  0.00    +0.000 A 
ATOM     14  C   UNL     1       1.795   0.832  -0.426  0.00  0.00    +0.006 A 
ATOM     15  C   UNL     1       2.299  -0.456  -0.400  0.00  0.00    -0.015 A 
ATOM     16  C   UNL     1       1.466  -1.531  -0.695  0.00  0.00    -0.020 A 
ATOM     17  C   UNL     1       0.124  -1.292  -1.026  0.00  0.00    +0.008 A 
ATOM     18  C   UNL     1       1.952  -2.912  -0.660  0.00  0.00    +0.009 C 
ATOM     19  C   UNL     1       3.116  -3.340  -1.094  0.00  0.00    +0.009 C 
ATOM     20  C   UNL     1       4.169  -2.525  -1.704  0.00  0.00    -0.020 A 
ATOM     21  C   UNL     1       4.874  -3.037  -2.803  0.00  0.00    +0.008 A 
ATOM     22  C   UNL     1       5.873  -2.294  -3.390  0.00  0.00    +0.001 A 
ATOM     23  C   UNL     1       6.186  -1.039  -2.897  0.00  0.00    +0.000 A 
ATOM     24  C   UNL     1       5.495  -0.526  -1.815  0.00  0.00    +0.006 A 
ATOM     25  C   UNL     1       4.486  -1.260  -1.217  0.00  0.00    -0.015 A 
ATOM     26  C   UNL     1       3.745  -0.666  -0.054  0.00  0.00    +0.143 C 
ENDBRANCH   1  26
BRANCH   9  27
ATOM     27  N   UNL     1       1.419  -2.704   4.340  0.00  0.00    -0.190 N 
ATOM     28  C   UNL     1       0.761  -3.162   5.423  0.00  0.00    +0.317 C 
ATOM     29  O   UNL     1      -0.356  -2.754   5.674  0.00  0.00    -0.251 OA
ATOM     30  N   UNL     1       1.343  -4.072   6.229  0.00  0.00    -0.312 N 
ATOM     31  H   UNL     1       1.000  -2.049   3.759  0.00  0.00    +0.179 HD
ATOM     32  H   UNL     1       2.235  -4.397   6.030  0.00  0.00    +0.147 HD
ATOM     33  H   UNL     1       0.870  -4.402   7.009  0.00  0.00    +0.147 HD
ENDBRANCH   9  27
TORSDOF 2
