REMARK  Name = ZINC37549029
REMARK  6 active torsions:
REMARK  status: ('A' for Active; 'I' for Inactive)
REMARK    1  A    between atoms: C_1  and  C_2
REMARK    2  A    between atoms: C_5  and  N_12
REMARK    3  A    between atoms: C_6  and  C_8
REMARK    4  A    between atoms: C_9  and  C_10
REMARK    5  A    between atoms: C_10  and  O_11
REMARK    6  A    between atoms: C_13  and  C_15
REMARK                            x       y       z     vdW  Elec       q    Type
REMARK                         _______ _______ _______ _____ _____    ______ ____
ROOT
ATOM      1  C   UNL     1      -0.059   1.502  -0.008  0.00  0.00    +0.044 C 
ATOM      2  C   UNL     1      -0.028  -0.004  -0.012  0.00  0.00    -0.049 A 
ATOM      3  C   UNL     1      -0.022  -0.691  -1.214  0.00  0.00    +0.005 A 
ATOM      4  C   UNL     1       0.007  -2.072  -1.230  0.00  0.00    +0.025 A 
ATOM      5  C   UNL     1       0.030  -2.780  -0.037  0.00  0.00    +0.049 A 
ATOM      6  C   UNL     1       0.024  -2.088   1.182  0.00  0.00    +0.046 A 
ATOM      7  C   UNL     1      -0.000  -0.693   1.183  0.00  0.00    +0.022 A 
ENDROOT
BRANCH   5   8
ATOM      8  N   UNL     1       0.059  -4.176  -0.050  0.00  0.00    -0.278 N 
ATOM      9  C   UNL     1       0.556  -4.829  -1.119  0.00  0.00    +0.284 C 
ATOM     10  O   UNL     1       1.071  -4.205  -2.029  0.00  0.00    -0.266 OA
ATOM     11  H   UNL     1      -0.278  -4.675   0.710  0.00  0.00    +0.155 HD
BRANCH   9  12
ATOM     12  C   UNL     1       0.477  -6.290  -1.187  0.00  0.00    +0.191 A 
ATOM     13  C   UNL     1       0.943  -7.073  -2.205  0.00  0.00    +0.056 A 
ATOM     14  C   UNL     1       0.658  -8.401  -1.856  0.00  0.00    +0.063 A 
ATOM     15  C   UNL     1       0.036  -8.373  -0.653  0.00  0.00    +0.195 A 
ATOM     16  O   UNL     1      -0.065  -7.099  -0.252  0.00  0.00    -0.439 OA
ATOM     17 CL   UNL     1      -0.530  -9.758   0.226  0.00  0.00    -0.043 Cl
ENDBRANCH   9  12
ENDBRANCH   5   8
BRANCH   6  18
ATOM     18  C   UNL     1       0.047  -2.809   2.419  0.00  0.00    -0.062 C 
ATOM     19  C   UNL     1       0.066  -3.400   3.434  0.00  0.00    -0.069 C 
BRANCH  19  20
ATOM     20  C   UNL     1       0.090  -4.140   4.705  0.00  0.00    +0.244 C 
BRANCH  20  21
ATOM     21  O   UNL     1       0.078  -3.216   5.795  0.00  0.00    -0.383 OA
ATOM     22  H   UNL     1       0.092  -3.635   6.667  0.00  0.00    +0.211 HD
ENDBRANCH  20  21
ENDBRANCH  19  20
ENDBRANCH   6  18
TORSDOF 5
