REMARK  Name = ZINC31919299
REMARK  3 active torsions:
REMARK  status: ('A' for Active; 'I' for Inactive)
REMARK    1  A    between atoms: C_1  and  C_2
REMARK    2  A    between atoms: C_14  and  C_17
REMARK    3  A    between atoms: C_20  and  N_23
REMARK                            x       y       z     vdW  Elec       q    Type
REMARK                         _______ _______ _______ _____ _____    ______ ____
ROOT
ATOM      1  C   UNL     1      -0.013   1.086   0.008  0.00  0.00    +0.029 C 
ATOM      2  C   UNL     1      -0.729   1.579   1.267  0.00  0.00    +0.082 C 
ATOM      3  C   UNL     1       0.038   1.138   2.524  0.00  0.00    +0.059 C 
ATOM      4  C   UNL     1       0.426   2.431   3.206  0.00  0.00    -0.024 A 
ATOM      5  C   UNL     1       1.127   2.666   4.373  0.00  0.00    +0.005 A 
ATOM      6  C   UNL     1       1.359   3.961   4.795  0.00  0.00    +0.000 A 
ATOM      7  C   UNL     1       0.888   5.024   4.046  0.00  0.00    +0.002 A 
ATOM      8  C   UNL     1       0.188   4.795   2.881  0.00  0.00    +0.024 A 
ATOM      9  C   UNL     1      -0.050   3.489   2.447  0.00  0.00    +0.039 A 
ATOM     10  N   UNL     1      -0.731   3.044   1.310  0.00  0.00    -0.276 N 
ATOM     11  C   UNL     1      -1.320   3.866   0.361  0.00  0.00    +0.166 A 
ATOM     12  N   UNL     1      -1.377   5.184   0.318  0.00  0.00    -0.224 NA
ATOM     13  C   UNL     1      -1.985   5.813  -0.678  0.00  0.00    +0.080 A 
ATOM     14  C   UNL     1      -2.573   5.084  -1.673  0.00  0.00    +0.076 A 
ATOM     15  S   UNL     1      -2.210   3.421  -1.124  0.00  0.00    -0.060 S 
ENDROOT
BRANCH  13  16
ATOM     16  C   UNL     1      -2.032   7.296  -0.710  0.00  0.00    +0.001 A 
ATOM     17  C   UNL     1      -1.347   8.036   0.253  0.00  0.00    +0.012 A 
ATOM     18  C   UNL     1      -1.387   9.414   0.218  0.00  0.00    +0.023 A 
ATOM     19  C   UNL     1      -2.119  10.065  -0.768  0.00  0.00    +0.025 A 
ATOM     20  C   UNL     1      -2.807   9.328  -1.725  0.00  0.00    +0.023 A 
ATOM     21  C   UNL     1      -2.765   7.950  -1.698  0.00  0.00    +0.012 A 
BRANCH  19  22
ATOM     22  N   UNL     1      -2.163  11.460  -0.798  0.00  0.00    -0.358 N 
ATOM     23  H   UNL     1      -2.743  11.976  -1.578  0.00  0.00    +0.142 HD
ATOM     24  H   UNL     1      -1.619  12.044  -0.041  0.00  0.00    +0.142 HD
ENDBRANCH  19  22
ENDBRANCH  13  16
TORSDOF 2
