REMARK  Name = ZINC39915863
REMARK  9 active torsions:
REMARK  status: ('A' for Active; 'I' for Inactive)
REMARK    1  A    between atoms: C_8  and  S_18
REMARK    2  A    between atoms: N_9  and  C_10
REMARK    3  A    between atoms: C_10  and  C_11
REMARK    4  A    between atoms: S_18  and  C_19
REMARK    5  A    between atoms: C_21  and  O_34
REMARK    6  A    between atoms: C_23  and  O_33
REMARK    7  A    between atoms: C_25  and  O_32
REMARK    8  A    between atoms: C_27  and  C_30
REMARK    9  A    between atoms: C_30  and  O_31
REMARK                            x       y       z     vdW  Elec       q    Type
REMARK                         _______ _______ _______ _____ _____    ______ ____
ROOT
ATOM      1  C   UNL     1      -0.326   1.381   0.278  0.00  0.00    +0.002 A 
ATOM      2  C   UNL     1       0.826   2.152   0.309  0.00  0.00    +0.002 A 
ATOM      3  C   UNL     1       2.069   1.554   0.281  0.00  0.00    +0.028 A 
ATOM      4  C   UNL     1       2.169   0.173   0.220  0.00  0.00    +0.070 A 
ATOM      5  C   UNL     1       1.006  -0.614   0.188  0.00  0.00    +0.090 A 
ATOM      6  C   UNL     1      -0.246   0.007   0.217  0.00  0.00    +0.030 A 
ATOM      7  N   UNL     1       1.402  -1.912   0.131  0.00  0.00    -0.222 NA
ATOM      8  C   UNL     1       2.711  -1.973   0.126  0.00  0.00    +0.173 A 
ATOM      9  N   UNL     1       3.234  -0.712   0.180  0.00  0.00    -0.314 N 
ENDROOT
BRANCH   9  10
ATOM     10  C   UNL     1       4.656  -0.361   0.192  0.00  0.00    +0.159 C 
BRANCH  10  11
ATOM     11  C   UNL     1       5.147  -0.302   1.615  0.00  0.00    -0.028 A 
ATOM     12  C   UNL     1       5.080   0.885   2.321  0.00  0.00    +0.007 A 
ATOM     13  C   UNL     1       5.530   0.940   3.626  0.00  0.00    +0.020 A 
ATOM     14  C   UNL     1       6.048  -0.194   4.227  0.00  0.00    +0.041 A 
ATOM     15  C   UNL     1       6.115  -1.381   3.521  0.00  0.00    +0.020 A 
ATOM     16  C   UNL     1       5.659  -1.436   2.217  0.00  0.00    +0.007 A 
ATOM     17 CL   UNL     1       6.614  -0.125   5.867  0.00  0.00    -0.084 Cl
ENDBRANCH  10  11
ENDBRANCH   9  10
BRANCH   8  18
ATOM     18  S   UNL     1       3.655  -3.459   0.059  0.00  0.00    -0.054 S 
BRANCH  18  19
ATOM     19  C   UNL     1       2.405  -4.772   0.004  0.00  0.00    +0.214 C 
ATOM     20  C   UNL     1       3.094  -6.126  -0.181  0.00  0.00    +0.185 C 
ATOM     21  C   UNL     1       2.037  -7.235  -0.166  0.00  0.00    +0.177 C 
ATOM     22  C   UNL     1       1.250  -7.157   1.146  0.00  0.00    +0.176 C 
ATOM     23  C   UNL     1       0.632  -5.763   1.280  0.00  0.00    +0.176 C 
ATOM     24  O   UNL     1       1.666  -4.778   1.228  0.00  0.00    -0.355 OA
BRANCH  22  25
ATOM     25  O   UNL     1       0.214  -8.142   1.140  0.00  0.00    -0.386 OA
ATOM     26  H   UNL     1       0.535  -9.050   1.053  0.00  0.00    +0.210 HD
ENDBRANCH  22  25
BRANCH  21  27
ATOM     27  O   UNL     1       1.146  -7.061  -1.270  0.00  0.00    -0.386 OA
ATOM     28  H   UNL     1       1.580  -7.092  -2.134  0.00  0.00    +0.210 HD
ENDBRANCH  21  27
BRANCH  20  29
ATOM     29  O   UNL     1       4.024  -6.338   0.882  0.00  0.00    -0.386 OA
ATOM     30  H   UNL     1       4.721  -5.669   0.935  0.00  0.00    +0.210 HD
ENDBRANCH  20  29
BRANCH  23  31
ATOM     31  C   UNL     1      -0.354  -5.530   0.133  0.00  0.00    +0.190 C 
BRANCH  31  32
ATOM     32  O   UNL     1      -1.043  -4.295   0.342  0.00  0.00    -0.392 OA
ATOM     33  H   UNL     1      -1.685  -4.082  -0.349  0.00  0.00    +0.210 HD
ENDBRANCH  31  32
ENDBRANCH  23  31
ENDBRANCH  18  19
ENDBRANCH   8  18
TORSDOF 9
