REMARK  Name = ZINC34783191
REMARK  11 active torsions:
REMARK  status: ('A' for Active; 'I' for Inactive)
REMARK    1  A    between atoms: C_1  and  C_2
REMARK    2  A    between atoms: C_5  and  N_8
REMARK    3  A    between atoms: C_9  and  C_11
REMARK    4  A    between atoms: C_11  and  N_12
REMARK    5  A    between atoms: C_16  and  C_31
REMARK    6  A    between atoms: C_17  and  C_27
REMARK    7  A    between atoms: N_20  and  C_23
REMARK    8  A    between atoms: C_23  and  C_24
REMARK    9  A    between atoms: C_24  and  C_25
REMARK   10  A    between atoms: C_24  and  C_26
REMARK   11  A    between atoms: N_29  and  N_30
REMARK                            x       y       z     vdW  Elec       q    Type
REMARK                         _______ _______ _______ _____ _____    ______ ____
ROOT
ATOM      1  N   UNL     1       0.420  -6.845   2.495  0.00  0.00    -0.251 N 
ATOM      2  C   UNL     1       1.638  -6.956   3.054  0.00  0.00    +0.266 A 
ATOM      3  O   UNL     1       2.634  -6.650   2.426  0.00  0.00    -0.267 OA
ATOM      4  C   UNL     1       1.752  -7.457   4.446  0.00  0.00    +0.074 A 
ATOM      5  C   UNL     1       2.907  -7.649   5.213  0.00  0.00    -0.017 A 
ATOM      6  C   UNL     1       2.740  -8.126   6.481  0.00  0.00    +0.081 A 
ATOM      7  S   UNL     1       0.972  -8.306   6.602  0.00  0.00    -0.065 S 
ATOM      8  C   UNL     1       0.541  -7.780   5.075  0.00  0.00    +0.097 A 
ATOM      9  N   UNL     1      -0.652  -7.635   4.427  0.00  0.00    -0.287 N 
ATOM     10  C   UNL     1      -0.698  -7.170   3.164  0.00  0.00    +0.333 A 
ATOM     11  O   UNL     1      -1.776  -7.047   2.616  0.00  0.00    -0.246 OA
ATOM     12  C   UNL     1       4.277  -7.344   4.663  0.00  0.00    +0.046 C 
ENDROOT
BRANCH   6  13
ATOM     13  C   UNL     1       3.760  -8.418   7.491  0.00  0.00    +0.264 C 
ATOM     14  O   UNL     1       4.937  -8.236   7.238  0.00  0.00    -0.268 OA
ATOM     15  N   UNL     1       3.396  -8.888   8.701  0.00  0.00    -0.249 N 
ATOM     16  H   UNL     1       2.459  -9.034   8.902  0.00  0.00    +0.169 HD
BRANCH  15  17
ATOM     17  N   UNL     1       4.348  -9.160   9.642  0.00  0.00    -0.254 NA
ATOM     18  H   UNL     1       3.927  -9.504  10.493  0.00  0.00    +0.140 HD
ATOM     19  H   UNL     1       5.031  -9.813   9.288  0.00  0.00    +0.140 HD
ENDBRANCH  15  17
ENDBRANCH   6  13
BRANCH   1  20
ATOM     20  C   UNL     1       0.309  -6.349   1.121  0.00  0.00    +0.226 C 
BRANCH  20  22
ATOM     21  N   UNL     1       0.059  -4.170  -0.021  0.00  0.00    -0.284 N 
ATOM     22  C   UNL     1       0.175  -4.848   1.138  0.00  0.00    +0.237 C 
ATOM     23  O   UNL     1       0.173  -4.251   2.193  0.00  0.00    -0.274 OA
ATOM     24  H   UNL     1      -0.017  -4.651  -0.860  0.00  0.00    +0.155 HD
BRANCH  21  29
ATOM     25  C   UNL     1       0.008   1.503   0.007  0.00  0.00    +0.044 C 
ATOM     26  C   UNL     1       0.022  -0.004  -0.001  0.00  0.00    -0.050 A 
ATOM     27  C   UNL     1       0.777  -0.692   0.931  0.00  0.00    +0.005 A 
ATOM     28  C   UNL     1       0.791  -2.073   0.927  0.00  0.00    +0.023 A 
ATOM     29  C   UNL     1       0.046  -2.771  -0.014  0.00  0.00    +0.033 A 
ATOM     30  C   UNL     1      -0.712  -2.077  -0.948  0.00  0.00    +0.023 A 
ATOM     31  C   UNL     1      -0.726  -0.696  -0.936  0.00  0.00    +0.005 A 
ENDBRANCH  21  29
ENDBRANCH  20  22
ENDBRANCH   1  20
BRANCH   9  32
ATOM     32  C   UNL     1      -1.897  -7.982   5.116  0.00  0.00    +0.130 C 
BRANCH  32  33
ATOM     33  C   UNL     1      -2.435  -6.752   5.850  0.00  0.00    +0.003 C 
ATOM     34  C   UNL     1      -3.796  -7.080   6.466  0.00  0.00    +0.009 C 
ATOM     35  C   UNL     1      -1.457  -6.352   6.957  0.00  0.00    +0.009 C 
ENDBRANCH  32  33
ENDBRANCH   9  32
TORSDOF 7
