REMARK  Name = ZINC67474385
REMARK  9 active torsions:
REMARK  status: ('A' for Active; 'I' for Inactive)
REMARK    1  A    between atoms: C_1  and  C_2
REMARK    2  A    between atoms: C_4  and  N_15
REMARK    3  A    between atoms: C_7  and  O_8
REMARK    4  A    between atoms: O_8  and  C_9
REMARK    5  A    between atoms: C_16  and  C_18
REMARK    6  A    between atoms: C_18  and  C_20
REMARK    7  A    between atoms: C_18  and  N_23
REMARK    8  A    between atoms: C_20  and  C_21
REMARK    9  A    between atoms: C_20  and  C_22
REMARK                            x       y       z     vdW  Elec       q    Type
REMARK                         _______ _______ _______ _____ _____    ______ ____
ROOT
ATOM      1  N   UNL     1      -0.583  -3.186  -2.756  0.00  0.00    -0.284 N 
ATOM      2  C   UNL     1      -0.099  -4.398  -3.093  0.00  0.00    +0.238 C 
ATOM      3  O   UNL     1       0.466  -5.078  -2.263  0.00  0.00    -0.273 OA
ATOM      4  H   UNL     1      -0.979  -2.616  -3.433  0.00  0.00    +0.155 HD
ENDROOT
BRANCH   1   8
ATOM      5  C   UNL     1      -0.003   0.482   0.468  0.00  0.00    +0.047 C 
ATOM      6  C   UNL     1      -0.234  -0.976   0.164  0.00  0.00    -0.006 A 
ATOM      7  C   UNL     1      -0.301  -1.406  -1.147  0.00  0.00    +0.030 A 
ATOM      8  C   UNL     1      -0.513  -2.749  -1.426  0.00  0.00    +0.034 A 
ATOM      9  C   UNL     1      -0.657  -3.660  -0.388  0.00  0.00    +0.027 A 
ATOM     10  C   UNL     1      -0.589  -3.229   0.922  0.00  0.00    +0.048 A 
ATOM     11  C   UNL     1      -0.371  -1.887   1.201  0.00  0.00    +0.132 A 
BRANCH  11  12
ATOM     12  O   UNL     1      -0.298  -1.465   2.491  0.00  0.00    -0.454 OA
BRANCH  12  13
ATOM     13  C   UNL     1      -0.336  -2.403   3.473  0.00  0.00    +0.146 A 
ATOM     14  C   UNL     1       0.799  -3.147   3.782  0.00  0.00    +0.049 A 
ATOM     15  C   UNL     1       0.712  -4.092   4.791  0.00  0.00    +0.023 A 
ATOM     16  C   UNL     1      -0.490  -4.264   5.453  0.00  0.00    +0.111 A 
ATOM     17  N   UNL     1      -1.547  -3.543   5.135  0.00  0.00    -0.260 NA
ATOM     18  C   UNL     1      -1.504  -2.630   4.186  0.00  0.00    +0.156 A 
ENDBRANCH  12  13
ENDBRANCH  11  12
ENDBRANCH   1   8
BRANCH   2  19
ATOM     19  C   UNL     1      -0.261  -4.908  -4.502  0.00  0.00    +0.163 C 
BRANCH  19  20
ATOM     20  N   UNL     1      -0.289  -6.372  -4.491  0.00  0.00    -0.288 N 
ATOM     21  C   UNL     1      -0.905  -7.042  -5.485  0.00  0.00    +0.298 C 
ATOM     22  O   UNL     1      -1.438  -6.431  -6.391  0.00  0.00    -0.253 OA
ATOM     23  N   UNL     1      -0.931  -8.390  -5.474  0.00  0.00    -0.313 N 
ATOM     24  H   UNL     1       0.136  -6.860  -3.768  0.00  0.00    +0.151 HD
ATOM     25  H   UNL     1      -0.506  -8.877  -4.752  0.00  0.00    +0.146 HD
ATOM     26  H   UNL     1      -1.375  -8.872  -6.190  0.00  0.00    +0.146 HD
ENDBRANCH  19  20
BRANCH  19  27
ATOM     27  C   UNL     1       0.914  -4.427  -5.356  0.00  0.00    +0.012 C 
ATOM     28  C   UNL     1       0.712  -4.881  -6.803  0.00  0.00    +0.009 C 
ATOM     29  C   UNL     1       0.989  -2.900  -5.307  0.00  0.00    +0.009 C 
ENDBRANCH  19  27
ENDBRANCH   2  19
TORSDOF 6
