REMARK  Name = ZINC22159247
REMARK  8 active torsions:
REMARK  status: ('A' for Active; 'I' for Inactive)
REMARK    1  A    between atoms: C_1  and  C_2
REMARK    2  A    between atoms: C_2  and  C_3
REMARK    3  A    between atoms: C_2  and  N_4
REMARK    4  A    between atoms: N_4  and  S_5
REMARK    5  A    between atoms: S_5  and  C_8
REMARK    6  A    between atoms: C_10  and  C_14
REMARK    7  A    between atoms: N_11  and  C_13
REMARK    8  A    between atoms: N_16  and  N_17
REMARK                            x       y       z     vdW  Elec       q    Type
REMARK                         _______ _______ _______ _____ _____    ______ ____
ROOT
ATOM      1  C   UNL     1      -0.708   3.548   0.016  0.00  0.00    +0.123 A 
ATOM      2  C   UNL     1       0.691   3.574   0.017  0.00  0.00    +0.061 A 
ATOM      3  C   UNL     1       1.120   2.264   0.012  0.00  0.00    +0.107 A 
ATOM      4  N   UNL     1       0.002   1.461   0.007  0.00  0.00    -0.344 N 
ATOM      5  C   UNL     1      -1.099   2.252   0.004  0.00  0.00    +0.114 A 
ATOM      6  C   UNL     1       0.001  -0.004   0.000  0.00  0.00    +0.149 C 
ENDROOT
BRANCH   3   7
ATOM      7  C   UNL     1       2.514   1.808   0.011  0.00  0.00    +0.274 C 
ATOM      8  O   UNL     1       2.766   0.622  -0.087  0.00  0.00    -0.267 OA
ATOM      9  N   UNL     1       3.516   2.704   0.118  0.00  0.00    -0.248 N 
ATOM     10  H   UNL     1       3.288   3.766   0.289  0.00  0.00    +0.169 HD
BRANCH   9  11
ATOM     11  N   UNL     1       4.814   2.292   0.013  0.00  0.00    -0.254 NA
ATOM     12  H   UNL     1       5.483   3.158   0.126  0.00  0.00    +0.140 HD
ATOM     13  H   UNL     1       5.030   1.556   0.802  0.00  0.00    +0.140 HD
ENDBRANCH   9  11
ENDBRANCH   3   7
BRANCH   1  14
ATOM     14  S   UNL     1      -1.771   4.953   0.021  0.00  0.00    +0.060 S 
ATOM     15  O   UNL     1      -3.009   4.523   0.570  0.00  0.00    -0.153 OA
ATOM     16  O   UNL     1      -1.023   6.026   0.577  0.00  0.00    -0.153 OA
BRANCH  14  17
ATOM     17  N   UNL     1      -2.065   5.351  -1.559  0.00  0.00    -0.187 NA
ATOM     18  H   UNL     1      -1.566   6.229  -1.994  0.00  0.00    +0.148 HD
BRANCH  17  20
ATOM     19  C   UNL     1      -4.285   4.807  -2.431  0.00  0.00    +0.025 C 
ATOM     20  C   UNL     1      -2.803   4.425  -2.422  0.00  0.00    +0.070 C 
ATOM     21  C   UNL     1      -2.248   4.502  -3.845  0.00  0.00    +0.025 C 
ENDBRANCH  17  20
ENDBRANCH  14  17
ENDBRANCH   1  14
TORSDOF 5
