REMARK  Name = ZINC19715406
REMARK  8 active torsions:
REMARK  status: ('A' for Active; 'I' for Inactive)
REMARK    1  A    between atoms: C_1  and  C_2
REMARK    2  A    between atoms: N_10  and  C_14
REMARK    3  A    between atoms: C_14  and  C_15
REMARK    4  A    between atoms: N_17  and  C_18
REMARK    5  A    between atoms: C_18  and  C_20
REMARK    6  A    between atoms: C_18  and  C_21
REMARK    7  A    between atoms: C_21  and  C_22
REMARK    8  A    between atoms: C_22  and  N_23
REMARK                            x       y       z     vdW  Elec       q    Type
REMARK                         _______ _______ _______ _____ _____    ______ ____
ROOT
ATOM      1  C   UNL     1       1.396   1.982  -0.001  0.00  0.00    +0.231 C 
ATOM      2  O   UNL     1       2.328   1.207  -0.014  0.00  0.00    -0.274 OA
ATOM      3  N   UNL     1       1.624   3.311   0.004  0.00  0.00    -0.311 N 
ATOM      4  H   UNL     1       0.779   4.014   0.016  0.00  0.00    +0.149 HD
ENDROOT
BRANCH   3   5
ATOM      5  C   UNL     1       2.999   3.818  -0.006  0.00  0.00    +0.068 C 
ATOM      6  C   UNL     1       3.534   3.869   1.426  0.00  0.00    +0.028 C 
BRANCH   5   7
ATOM      7  C   UNL     1       3.019   5.224  -0.608  0.00  0.00    +0.003 C 
BRANCH   7   8
ATOM      8  C   UNL     1       2.602   5.155  -2.079  0.00  0.00    -0.077 C 
BRANCH   8   9
ATOM      9  N   UNL     1       2.621   6.505  -2.657  0.00  0.00    +0.380 N 
ATOM     10  C   UNL     1       1.665   7.395  -1.960  0.00  0.00    -0.079 C 
ATOM     11  C   UNL     1       1.449   8.698  -2.680  0.00  0.00    -0.019 C 
ATOM     12  C   UNL     1       0.216   8.552  -3.596  0.00  0.00    -0.002 C 
ATOM     13  C   UNL     1       0.525   7.832  -4.827  0.00  0.00    -0.002 C 
ATOM     14  C   UNL     1       1.016   6.395  -4.552  0.00  0.00    -0.019 C 
ATOM     15  C   UNL     1       2.458   6.455  -4.127  0.00  0.00    -0.079 C 
ATOM     16  H   UNL     1       3.613   6.950  -2.487  0.00  0.00    -0.082 HD
ENDBRANCH   8   9
ENDBRANCH   7   8
ENDBRANCH   5   7
ENDBRANCH   3   5
BRANCH   1  17
ATOM     17  C   UNL     1      -0.018   1.461   0.010  0.00  0.00    +0.213 C 
BRANCH  17  27
ATOM     18  C   UNL     1       0.094  -6.521   0.545  0.00  0.00    +0.007 C 
ATOM     19  C   UNL     1       0.080  -5.082   1.067  0.00  0.00    -0.014 C 
ATOM     20  C   UNL     1       1.315  -4.341   0.551  0.00  0.00    +0.006 C 
ATOM     21  C   UNL     1       1.306  -2.906   1.083  0.00  0.00    +0.035 C 
ATOM     22  C   UNL     1       0.037  -2.197   0.621  0.00  0.00    +0.113 C 
ATOM     23  C   UNL     1      -1.203  -2.939   1.107  0.00  0.00    +0.035 C 
ATOM     24  C   UNL     1      -1.184  -4.374   0.575  0.00  0.00    +0.006 C 
ATOM     25  C   UNL     1       0.023  -0.768   1.114  0.00  0.00    +0.247 C 
ATOM     26  O   UNL     1       0.030  -0.389   2.265  0.00  0.00    -0.273 OA
ATOM     27  N   UNL     1       0.002  -0.004   0.002  0.00  0.00    -0.215 N 
ATOM     28  C   UNL     1      -0.004  -0.750  -1.109  0.00  0.00    +0.310 C 
ATOM     29  O   UNL     1      -0.027  -0.289  -2.233  0.00  0.00    -0.252 OA
ATOM     30  N   UNL     1       0.021  -2.070  -0.842  0.00  0.00    -0.285 N 
ATOM     31  H   UNL     1       0.031  -2.971  -1.472  0.00  0.00    +0.151 HD
ENDBRANCH  17  27
ENDBRANCH   1  17
TORSDOF 6
