REMARK  Name = ZINC03400432
REMARK  6 active torsions:
REMARK  status: ('A' for Active; 'I' for Inactive)
REMARK    1  A    between atoms: C_4  and  N_9
REMARK    2  A    between atoms: C_5  and  C_7
REMARK    3  A    between atoms: C_10  and  C_12
REMARK    4  A    between atoms: C_12  and  O_13
REMARK    5  A    between atoms: O_13  and  C_14
REMARK    6  A    between atoms: C_14  and  C_16
REMARK                            x       y       z     vdW  Elec       q    Type
REMARK                         _______ _______ _______ _____ _____    ______ ____
ROOT
ATOM      1  C   UNL     1      -3.640  -0.936   0.013  0.00  0.00    +0.328 C 
ENDROOT
BRANCH   1   3
ATOM      2  N   UNL     1      -6.089  -0.586   0.055  0.00  0.00    -0.282 N 
ATOM      3  C   UNL     1      -4.855  -0.044   0.041  0.00  0.00    +0.255 C 
ATOM      4  O   UNL     1      -4.722   1.161   0.050  0.00  0.00    -0.272 OA
ATOM      5  H   UNL     1      -6.197  -1.547  -0.019  0.00  0.00    +0.155 HD
BRANCH   2   9
ATOM      6  C   UNL     1      -9.441   1.871   0.412  0.00  0.00    +0.001 A 
ATOM      7  C   UNL     1      -8.330   2.303  -0.293  0.00  0.00    +0.002 A 
ATOM      8  C   UNL     1      -7.217   1.494  -0.409  0.00  0.00    +0.024 A 
ATOM      9  C   UNL     1      -7.210   0.234   0.174  0.00  0.00    +0.051 A 
ATOM     10  C   UNL     1      -8.333  -0.206   0.890  0.00  0.00    +0.073 A 
ATOM     11  C   UNL     1      -9.449   0.625   1.003  0.00  0.00    +0.021 A 
BRANCH  10  12
ATOM     12  C   UNL     1      -8.334  -1.501   1.502  0.00  0.00    +0.101 C 
ATOM     13  N   UNL     1      -8.336  -2.528   1.988  0.00  0.00    -0.191 NA
ENDBRANCH  10  12
ENDBRANCH   2   9
ENDBRANCH   1   3
BRANCH   1  14
ATOM     14  O   UNL     1      -2.440  -0.118   0.003  0.00  0.00    -0.452 OA
BRANCH  14  15
ATOM     15  C   UNL     1      -1.259  -0.767  -0.022  0.00  0.00    +0.340 C 
ATOM     16  O   UNL     1      -1.233  -1.981  -0.034  0.00  0.00    -0.245 OA
BRANCH  15  17
ATOM     17  C   UNL     1       0.001  -0.002  -0.034  0.00  0.00    +0.060 A 
ATOM     18  C   UNL     1      -0.018   1.401  -0.021  0.00  0.00    +0.017 A 
ATOM     19  C   UNL     1       1.129   2.124  -0.032  0.00  0.00    +0.029 A 
ATOM     20  C   UNL     1       2.392   1.486  -0.058  0.00  0.00    +0.078 A 
ATOM     21  C   UNL     1       2.388   0.070  -0.071  0.00  0.00    +0.040 A 
ATOM     22  C   UNL     1       1.232  -0.664  -0.060  0.00  0.00    +0.032 A 
ATOM     23  S   UNL     1       4.122  -0.306  -0.102  0.00  0.00    -0.075 S 
ATOM     24  C   UNL     1       4.711   1.327  -0.096  0.00  0.00    +0.157 A 
ATOM     25  N   UNL     1       3.619   2.040  -0.072  0.00  0.00    -0.247 NA
ENDBRANCH  15  17
ENDBRANCH  14  15
ENDBRANCH   1  14
TORSDOF 6
