REMARK  Name = ZINC40052414
REMARK  6 active torsions:
REMARK  status: ('A' for Active; 'I' for Inactive)
REMARK    1  A    between atoms: C_1  and  C_2
REMARK    2  A    between atoms: C_5  and  C_7
REMARK    3  A    between atoms: C_7  and  C_9
REMARK    4  A    between atoms: C_7  and  N_10
REMARK    5  A    between atoms: C_11  and  C_13
REMARK    6  A    between atoms: C_16  and  C_18
REMARK                            x       y       z     vdW  Elec       q    Type
REMARK                         _______ _______ _______ _____ _____    ______ ____
ROOT
ATOM      1  N   UNL     1       2.811  -2.961  -0.914  0.00  0.00    -0.301 N 
ATOM      2  C   UNL     1       3.494  -3.975  -1.482  0.00  0.00    +0.263 C 
ATOM      3  O   UNL     1       3.174  -5.126  -1.254  0.00  0.00    -0.268 OA
ATOM      4  H   UNL     1       3.066  -2.043  -1.096  0.00  0.00    +0.150 HD
ENDROOT
BRANCH   2   5
ATOM      5  C   UNL     1       4.627  -3.689  -2.378  0.00  0.00    +0.133 A 
ATOM      6  C   UNL     1       5.324  -4.712  -2.964  0.00  0.00    +0.080 A 
ATOM      7  S   UNL     1       6.484  -3.894  -3.867  0.00  0.00    -0.072 S 
ATOM      8  C   UNL     1       6.011  -2.228  -3.441  0.00  0.00    +0.144 A 
ATOM      9  N   UNL     1       4.983  -2.437  -2.634  0.00  0.00    -0.231 NA
BRANCH   8  10
ATOM     10  C   UNL     1       6.604  -0.954  -3.876  0.00  0.00    +0.160 A 
ATOM     11  C   UNL     1       7.661  -0.812  -4.723  0.00  0.00    +0.052 A 
ATOM     12  C   UNL     1       7.888   0.571  -4.860  0.00  0.00    +0.042 A 
ATOM     13  C   UNL     1       6.969   1.200  -4.100  0.00  0.00    +0.196 A 
ATOM     14  O   UNL     1       6.192   0.277  -3.512  0.00  0.00    -0.461 OA
ENDBRANCH   8  10
ENDBRANCH   2   5
BRANCH   1  15
ATOM     15  C   UNL     1       1.684  -3.245  -0.023  0.00  0.00    +0.136 C 
ATOM     16  C   UNL     1       2.205  -3.494   1.394  0.00  0.00    +0.036 C 
BRANCH  15  21
ATOM     17  C   UNL     1      -0.018   1.503   0.010  0.00  0.00    +0.086 C 
ATOM     18  C   UNL     1       0.002  -0.004   0.002  0.00  0.00    +0.102 A 
ATOM     19  C   UNL     1      -1.078  -0.805   0.003  0.00  0.00    +0.045 A 
ATOM     20  C   UNL     1      -0.601  -2.136  -0.007  0.00  0.00    +0.047 A 
ATOM     21  C   UNL     1       0.742  -2.069  -0.013  0.00  0.00    +0.125 A 
ATOM     22  O   UNL     1       1.102  -0.775  -0.013  0.00  0.00    -0.463 OA
ENDBRANCH  15  21
ENDBRANCH   1  15
TORSDOF 4
