REMARK  Name = ZINC51990817
REMARK  5 active torsions:
REMARK  status: ('A' for Active; 'I' for Inactive)
REMARK    1  A    between atoms: C_1  and  C_2
REMARK    2  A    between atoms: C_3  and  C_4
REMARK    3  A    between atoms: C_5  and  C_6
REMARK    4  A    between atoms: N_8  and  C_9
REMARK    5  A    between atoms: C_15  and  O_17
REMARK                            x       y       z     vdW  Elec       q    Type
REMARK                         _______ _______ _______ _____ _____    ______ ____
ROOT
ATOM      1  C   UNL     1       1.204  -4.246  -2.047  0.00  0.00    +0.237 C 
ATOM      2  O   UNL     1       0.694  -4.867  -1.132  0.00  0.00    -0.271 OA
ATOM      3  N   UNL     1       1.787  -4.906  -3.067  0.00  0.00    -0.307 N 
ATOM      4  H   UNL     1       2.193  -4.412  -3.796  0.00  0.00    +0.149 HD
ENDROOT
BRANCH   3   5
ATOM      5  C   UNL     1       1.806  -6.371  -3.075  0.00  0.00    +0.102 C 
ATOM      6  C   UNL     1       3.003  -6.870  -2.261  0.00  0.00    +0.025 C 
ATOM      7  C   UNL     1       4.297  -6.338  -2.881  0.00  0.00    +0.002 C 
ATOM      8  C   UNL     1       4.416  -6.839  -4.322  0.00  0.00    +0.003 C 
ATOM      9  C   UNL     1       3.220  -6.341  -5.135  0.00  0.00    +0.033 C 
ATOM     10  C   UNL     1       1.925  -6.872  -4.516  0.00  0.00    +0.135 C 
BRANCH  10  11
ATOM     11  O   UNL     1       0.808  -6.406  -5.275  0.00  0.00    -0.390 OA
ATOM     12  H   UNL     1       0.818  -6.686  -6.201  0.00  0.00    +0.210 HD
ENDBRANCH  10  11
ENDBRANCH   3   5
BRANCH   1  14
ATOM     13  C   UNL     1       0.599  -2.121  -1.016  0.00  0.00    +0.005 C 
ATOM     14  C   UNL     1       1.184  -2.784  -2.039  0.00  0.00    +0.067 C 
BRANCH  13  17
ATOM     15  C   UNL     1      -0.018   1.503   0.010  0.00  0.00    +0.035 C 
ATOM     16  C   UNL     1       0.002  -0.004   0.002  0.00  0.00    -0.030 C 
ATOM     17  C   UNL     1       0.579  -0.658  -1.008  0.00  0.00    -0.004 C 
ENDBRANCH  13  17
ENDBRANCH   1  14
TORSDOF 4
