REMARK  Name = ZINC05634381
REMARK  11 active torsions:
REMARK  status: ('A' for Active; 'I' for Inactive)
REMARK    1  A    between atoms: C_1  and  C_2
REMARK    2  A    between atoms: C_2  and  C_3
REMARK    3  A    between atoms: C_3  and  C_4
REMARK    4  A    between atoms: C_4  and  N_5
REMARK    5  A    between atoms: N_5  and  C_6
REMARK    6  A    between atoms: C_7  and  N_18
REMARK    7  A    between atoms: N_8  and  C_15
REMARK    8  A    between atoms: C_15  and  C_16
REMARK    9  A    between atoms: C_16  and  C_17
REMARK   10  A    between atoms: C_19  and  C_21
REMARK   11  A    between atoms: C_22  and  C_23
REMARK                            x       y       z     vdW  Elec       q    Type
REMARK                         _______ _______ _______ _____ _____    ______ ____
ROOT
ATOM      1  N   UNL     1       1.279   3.364  -0.070  0.00  0.00    -0.261 N 
ATOM      2  C   UNL     1       1.335   2.018  -0.119  0.00  0.00    +0.244 C 
ATOM      3  O   UNL     1       2.400   1.460  -0.313  0.00  0.00    -0.270 OA
ENDROOT
BRANCH   1   4
ATOM      4  C   UNL     1       2.465   4.122  -0.149  0.00  0.00    +0.140 A 
ATOM      5  C   UNL     1       3.436   4.011   0.825  0.00  0.00    +0.127 A 
ATOM      6  N   UNL     1       4.584   4.761   0.717  0.00  0.00    -0.280 N 
ATOM      7  C   UNL     1       4.754   5.600  -0.320  0.00  0.00    +0.331 A 
ATOM      8  O   UNL     1       5.774   6.258  -0.395  0.00  0.00    -0.246 OA
ATOM      9  N   UNL     1       3.817   5.725  -1.276  0.00  0.00    -0.273 N 
ATOM     10  H   UNL     1       3.968   6.357  -2.037  0.00  0.00    +0.173 HD
ATOM     11  C   UNL     1       2.676   5.010  -1.221  0.00  0.00    +0.277 A 
ATOM     12  O   UNL     1       1.833   5.131  -2.093  0.00  0.00    -0.266 OA
BRANCH   5  13
ATOM     13  N   UNL     1       3.260   3.158   1.888  0.00  0.00    -0.343 N 
ATOM     14  H   UNL     1       2.407   2.716   2.019  0.00  0.00    +0.144 HD
ATOM     15  H   UNL     1       3.989   2.998   2.507  0.00  0.00    +0.144 HD
ENDBRANCH   5  13
BRANCH   6  16
ATOM     16  C   UNL     1       5.626   4.649   1.741  0.00  0.00    +0.128 C 
BRANCH  16  17
ATOM     17  C   UNL     1       5.361   5.668   2.851  0.00  0.00    +0.018 C 
ATOM     18  C   UNL     1       6.449   5.551   3.921  0.00  0.00    +0.005 C 
ENDBRANCH  16  17
ENDBRANCH   6  16
ENDBRANCH   1   4
BRANCH   2  19
ATOM     19  C   UNL     1       0.116   1.227   0.062  0.00  0.00    +0.068 C 
ATOM     20  C   UNL     1       0.172  -0.119   0.013  0.00  0.00    +0.013 C 
BRANCH  20  21
ATOM     21  C   UNL     1      -1.053  -0.914   0.194  0.00  0.00    -0.025 A 
ATOM     22  C   UNL     1      -2.276  -0.277   0.423  0.00  0.00    +0.008 A 
ATOM     23  C   UNL     1      -3.421  -1.028   0.587  0.00  0.00    +0.001 A 
ATOM     24  C   UNL     1      -3.359  -2.410   0.535  0.00  0.00    +0.000 A 
ATOM     25  C   UNL     1      -2.151  -3.048   0.315  0.00  0.00    +0.001 A 
ATOM     26  C   UNL     1      -0.999  -2.310   0.144  0.00  0.00    +0.008 A 
ENDBRANCH  20  21
ENDBRANCH   2  19
BRANCH   1  27
ATOM     27  C   UNL     1      -0.014   4.038   0.067  0.00  0.00    +0.114 C 
BRANCH  27  28
ATOM     28  C   UNL     1      -0.396   4.115   1.546  0.00  0.00    +0.019 C 
BRANCH  28  30
ATOM     29  C   UNL     1      -2.129   4.896   3.168  0.00  0.00    +0.004 C 
ATOM     30  C   UNL     1      -1.747   4.819   1.688  0.00  0.00    -0.002 C 
ENDBRANCH  28  30
ENDBRANCH  27  28
ENDBRANCH   1  27
TORSDOF 9
