REMARK  Name = ZINC04388463
REMARK  9 active torsions:
REMARK  status: ('A' for Active; 'I' for Inactive)
REMARK    1  A    between atoms: C_1  and  C_2
REMARK    2  A    between atoms: C_2  and  N_3
REMARK    3  A    between atoms: C_8  and  C_27
REMARK    4  A    between atoms: C_10  and  C_15
REMARK    5  A    between atoms: C_10  and  C_23
REMARK    6  A    between atoms: C_15  and  C_16
REMARK    7  A    between atoms: C_19  and  O_22
REMARK    8  A    between atoms: C_23  and  O_25
REMARK    9  A    between atoms: O_25  and  C_26
REMARK                            x       y       z     vdW  Elec       q    Type
REMARK                         _______ _______ _______ _____ _____    ______ ____
ROOT
ATOM      1  N   UNL     1      -2.182   1.020   0.073  0.00  0.00    -0.242 N 
ATOM      2  C   UNL     1      -1.774   0.828   1.362  0.00  0.00    +0.224 C 
ATOM      3  O   UNL     1      -2.389   0.276   2.249  0.00  0.00    -0.275 OA
ATOM      4  C   UNL     1      -0.404   1.440   1.454  0.00  0.00    +0.077 C 
ATOM      5  C   UNL     1       0.713   0.719   2.204  0.00  0.00    -0.024 C 
ATOM      6  C   UNL     1       1.479   1.407   0.011  0.00  0.00    +0.048 C 
ATOM      7  C   UNL     1       0.046   1.068  -0.013  0.00  0.00    +0.086 C 
ATOM      8  C   UNL     1      -1.156   1.353  -0.755  0.00  0.00    +0.225 C 
ATOM      9  O   UNL     1      -1.244   1.790  -1.882  0.00  0.00    -0.275 OA
ATOM     10  N   UNL     1       1.907   0.834   1.326  0.00  0.00    +0.396 N 
ATOM     11  H   UNL     1       2.320  -0.095   1.180  0.00  0.00    -0.083 HD
ATOM     12  H   UNL     1       2.601   1.451   1.764  0.00  0.00    -0.083 HD
ENDROOT
BRANCH   5  13
ATOM     13  C   UNL     1       0.353  -0.729   2.413  0.00  0.00    -0.025 A 
ATOM     14  C   UNL     1       0.697  -1.671   1.462  0.00  0.00    +0.005 A 
ATOM     15  C   UNL     1       0.367  -3.000   1.654  0.00  0.00    +0.000 A 
ATOM     16  C   UNL     1      -0.308  -3.388   2.797  0.00  0.00    +0.003 A 
ATOM     17  C   UNL     1      -0.653  -2.447   3.748  0.00  0.00    +0.038 A 
ATOM     18  C   UNL     1      -0.319  -1.117   3.560  0.00  0.00    +0.125 A 
ATOM     19  F   UNL     1      -0.651  -0.198   4.492  0.00  0.00    -0.205 F 
ENDBRANCH   5  13
BRANCH   1  21
ATOM     20  C   UNL     1      -4.281   2.237  -0.239  0.00  0.00    +0.025 C 
ATOM     21  C   UNL     1      -3.574   0.886  -0.366  0.00  0.00    +0.113 C 
ENDBRANCH   1  21
BRANCH   6  22
ATOM     22  C   UNL     1       2.205   0.752  -1.135  0.00  0.00    +0.297 C 
ATOM     23  O   UNL     1       1.604   0.453  -2.139  0.00  0.00    -0.252 OA
BRANCH  22  24
ATOM     24  O   UNL     1       3.521   0.501  -1.040  0.00  0.00    -0.469 OA
ATOM     25  C   UNL     1       4.155  -0.132  -2.183  0.00  0.00    +0.280 C 
ENDBRANCH  22  24
ENDBRANCH   6  22
BRANCH   6  26
ATOM     26  C   UNL     1       1.680   2.923  -0.014  0.00  0.00    +0.034 C 
BRANCH  26  27
ATOM     27  C   UNL     1       3.155   3.235   0.013  0.00  0.00    -0.048 A 
ATOM     28  C   UNL     1       3.802   3.406   1.222  0.00  0.00    +0.007 A 
ATOM     29  C   UNL     1       5.155   3.686   1.249  0.00  0.00    +0.045 A 
ATOM     30  C   UNL     1       5.861   3.806   0.061  0.00  0.00    +0.117 A 
ATOM     31  C   UNL     1       5.208   3.639  -1.151  0.00  0.00    +0.045 A 
ATOM     32  C   UNL     1       3.856   3.354  -1.173  0.00  0.00    +0.007 A 
BRANCH  30  33
ATOM     33  O   UNL     1       7.191   4.087   0.085  0.00  0.00    -0.507 OA
ATOM     34  H   UNL     1       7.393   5.032   0.071  0.00  0.00    +0.292 HD
ENDBRANCH  30  33
ENDBRANCH  26  27
ENDBRANCH   6  26
TORSDOF 7
