REMARK  Name = ZINC27556011
REMARK  7 active torsions:
REMARK  status: ('A' for Active; 'I' for Inactive)
REMARK    1  A    between atoms: C_1  and  C_2
REMARK    2  A    between atoms: C_6  and  C_14
REMARK    3  A    between atoms: C_12  and  C_13
REMARK    4  A    between atoms: C_14  and  N_15
REMARK    5  A    between atoms: C_19  and  S_26
REMARK    6  A    between atoms: C_23  and  C_25
REMARK    7  A    between atoms: S_26  and  N_29
REMARK                            x       y       z     vdW  Elec       q    Type
REMARK                         _______ _______ _______ _____ _____    ______ ____
ROOT
ATOM      1  N   UNL     1      -0.252   0.010   0.170  0.00  0.00    -0.322 N 
ATOM      2  C   UNL     1       0.335  -0.485   1.341  0.00  0.00    +0.034 A 
ATOM      3  C   UNL     1       0.373   0.059   2.623  0.00  0.00    +0.025 A 
ATOM      4  C   UNL     1       1.011  -0.613   3.644  0.00  0.00    +0.030 A 
ATOM      5  C   UNL     1       1.618  -1.832   3.403  0.00  0.00    +0.105 A 
ATOM      6  C   UNL     1       1.589  -2.377   2.133  0.00  0.00    +0.034 A 
ATOM      7  C   UNL     1       0.954  -1.708   1.107  0.00  0.00    -0.023 A 
ATOM      8  C   UNL     1       0.778  -2.048  -0.359  0.00  0.00    +0.059 C 
ATOM      9  C   UNL     1       0.358  -0.695  -0.978  0.00  0.00    +0.075 C 
ATOM     10  C   UNL     1      -0.667  -0.903  -2.094  0.00  0.00    +0.028 C 
ENDROOT
BRANCH   5  11
ATOM     11  S   UNL     1       2.429  -2.688   4.713  0.00  0.00    +0.056 S 
ATOM     12  O   UNL     1       3.387  -3.545   4.106  0.00  0.00    -0.153 OA
ATOM     13  O   UNL     1       2.786  -1.709   5.678  0.00  0.00    -0.153 OA
BRANCH  11  14
ATOM     14  N   UNL     1       1.302  -3.670   5.427  0.00  0.00    -0.204 NA
ATOM     15  H   UNL     1       1.771  -4.224   6.254  0.00  0.00    +0.144 HD
ATOM     16  H   UNL     1       0.911  -4.380   4.684  0.00  0.00    +0.144 HD
ENDBRANCH  11  14
ENDBRANCH   5  11
BRANCH   1  17
ATOM     17  C   UNL     1      -0.060   1.462   0.059  0.00  0.00    +0.141 C 
BRANCH  17  23
ATOM     18  C   UNL     1      -6.285   2.273  -2.136  0.00  0.00    +0.044 C 
ATOM     19  C   UNL     1      -4.798   2.188  -1.906  0.00  0.00    -0.044 A 
ATOM     20  C   UNL     1      -4.317   1.739  -0.685  0.00  0.00    +0.004 A 
ATOM     21  C   UNL     1      -2.972   1.655  -0.458  0.00  0.00    +0.012 A 
ATOM     22  C   UNL     1      -2.074   2.024  -1.464  0.00  0.00    +0.023 A 
ATOM     23  C   UNL     1      -0.626   1.944  -1.252  0.00  0.00    -0.013 A 
ATOM     24  C   UNL     1       0.192   2.312  -2.271  0.00  0.00    +0.097 A 
ATOM     25  C   UNL     1      -0.363   2.760  -3.490  0.00  0.00    +0.338 A 
ATOM     26  O   UNL     1       0.381   3.086  -4.396  0.00  0.00    -0.245 OA
ATOM     27  O   UNL     1      -1.690   2.835  -3.674  0.00  0.00    -0.422 OA
ATOM     28  C   UNL     1      -2.558   2.485  -2.701  0.00  0.00    +0.142 A 
ATOM     29  C   UNL     1      -3.929   2.568  -2.908  0.00  0.00    -0.005 A 
ATOM     30  C   UNL     1      -4.466   3.055  -4.229  0.00  0.00    +0.048 C 
ENDBRANCH  17  23
ENDBRANCH   1  17
TORSDOF 4
