REMARK  Name = ZINC57142619
REMARK  7 active torsions:
REMARK  status: ('A' for Active; 'I' for Inactive)
REMARK    1  A    between atoms: C_1  and  C_2
REMARK    2  A    between atoms: C_2  and  C_4
REMARK    3  A    between atoms: C_2  and  O_33
REMARK    4  A    between atoms: C_7  and  C_21
REMARK    5  A    between atoms: N_23  and  C_24
REMARK    6  A    between atoms: C_29  and  O_30
REMARK    7  A    between atoms: O_30  and  C_31
REMARK                            x       y       z     vdW  Elec       q    Type
REMARK                         _______ _______ _______ _____ _____    ______ ____
ROOT
ATOM      1  C   UNL     1       0.714  -0.547   1.227  0.00  0.00    +0.084 C 
ATOM      2  C   UNL     1       0.778  -2.095   1.233  0.00  0.00    +0.036 C 
ATOM      3  C   UNL     1       2.034  -2.356   2.109  0.00  0.00    +0.110 C 
ATOM      4  C   UNL     1       2.959  -1.188   1.734  0.00  0.00    +0.135 C 
ATOM      5  N   UNL     1       2.128  -0.108   1.187  0.00  0.00    -0.294 NA
ATOM      6  C   UNL     1       3.744  -0.722   2.931  0.00  0.00    +0.005 A 
ATOM      7  C   UNL     1       3.381  -0.202   4.153  0.00  0.00    +0.027 A 
ATOM      8  C   UNL     1       4.355   0.141   5.076  0.00  0.00    +0.041 A 
ATOM      9  C   UNL     1       5.691  -0.042   4.766  0.00  0.00    +0.022 A 
ATOM     10  C   UNL     1       6.057  -0.562   3.542  0.00  0.00    +0.025 A 
ATOM     11  C   UNL     1       5.083  -0.908   2.608  0.00  0.00    +0.039 A 
ATOM     12  N   UNL     1       5.201  -1.441   1.323  0.00  0.00    -0.283 N 
ATOM     13  C   UNL     1       4.002  -1.634   0.741  0.00  0.00    +0.243 C 
ATOM     14  O   UNL     1       3.800  -2.080  -0.368  0.00  0.00    -0.273 OA
ATOM     15 CL   UNL     1       3.901   0.798   6.617  0.00  0.00    -0.084 Cl
ATOM     16  H   UNL     1       2.408   0.122   0.245  0.00  0.00    +0.124 HD
ATOM     17  H   UNL     1       6.048  -1.648   0.898  0.00  0.00    +0.155 HD
ENDROOT
BRANCH   3  18
ATOM     18  C   UNL     1       1.681  -2.314   3.574  0.00  0.00    +0.223 C 
ATOM     19  O   UNL     1       0.824  -1.553   3.970  0.00  0.00    -0.275 OA
ATOM     20  N   UNL     1       2.318  -3.124   4.443  0.00  0.00    -0.282 N 
ATOM     21  H   UNL     1       3.059  -3.672   4.142  0.00  0.00    +0.155 HD
BRANCH  20  22
ATOM     22  C   UNL     1       1.909  -3.173   5.782  0.00  0.00    +0.077 A 
ATOM     23  C   UNL     1       0.568  -3.021   6.106  0.00  0.00    +0.047 A 
ATOM     24  C   UNL     1       0.167  -3.070   7.429  0.00  0.00    +0.043 A 
ATOM     25  C   UNL     1       1.100  -3.271   8.431  0.00  0.00    +0.024 A 
ATOM     26  C   UNL     1       2.437  -3.423   8.115  0.00  0.00    +0.049 A 
ATOM     27  C   UNL     1       2.846  -3.381   6.792  0.00  0.00    +0.141 A 
ATOM     28 CL   UNL     1      -1.511  -2.879   7.832  0.00  0.00    -0.083 Cl
BRANCH  27  29
ATOM     29  O   UNL     1       4.160  -3.537   6.479  0.00  0.00    -0.493 OA
ATOM     30  C   UNL     1       5.065  -3.747   7.566  0.00  0.00    +0.277 C 
ENDBRANCH  27  29
ENDBRANCH  20  22
ENDBRANCH   3  18
BRANCH   1  32
ATOM     31  C   UNL     1      -0.051   1.480  -0.017  0.00  0.00    +0.039 C 
ATOM     32  C   UNL     1      -0.033  -0.050  -0.012  0.00  0.00    +0.128 C 
BRANCH  32  33
ATOM     33  O   UNL     1      -1.375  -0.541   0.013  0.00  0.00    -0.391 OA
ATOM     34  H   UNL     1      -1.883  -0.259   0.785  0.00  0.00    +0.210 HD
ENDBRANCH  32  33
ENDBRANCH   1  32
TORSDOF 5
