REMARK  Name = ZINC39938710
REMARK  6 active torsions:
REMARK  status: ('A' for Active; 'I' for Inactive)
REMARK    1  A    between atoms: C_4  and  C_7
REMARK    2  A    between atoms: C_12  and  C_14
REMARK    3  A    between atoms: C_14  and  S_15
REMARK    4  A    between atoms: S_15  and  C_16
REMARK    5  A    between atoms: C_20  and  C_25
REMARK    6  A    between atoms: N_21  and  C_22
REMARK                            x       y       z     vdW  Elec       q    Type
REMARK                         _______ _______ _______ _____ _____    ______ ____
ROOT
ATOM      1  C   UNL     1       9.815   2.712  -0.026  0.00  0.00    +0.237 C 
ATOM      2  N   UNL     1       9.287   3.481  -1.165  0.00  0.00    -0.237 N 
ATOM      3  N   UNL     1       8.249   4.274  -0.662  0.00  0.00    -0.169 NA
ATOM      4  C   UNL     1       8.084   4.083   0.620  0.00  0.00    +0.147 C 
ATOM      5  N   UNL     1       8.995   3.144   1.118  0.00  0.00    -0.282 N 
ATOM      6  H   UNL     1       9.599   3.446  -2.083  0.00  0.00    +0.171 HD
ENDROOT
BRANCH   4   7
ATOM      7  C   UNL     1       7.119   4.739   1.400  0.00  0.00    +0.022 C 
ATOM      8  C   UNL     1       6.122   5.607   0.954  0.00  0.00    +0.006 A 
ATOM      9  C   UNL     1       5.775   6.081  -0.330  0.00  0.00    +0.010 A 
ATOM     10  C   UNL     1       4.731   6.939  -0.471  0.00  0.00    +0.001 A 
ATOM     11  C   UNL     1       3.985   7.370   0.627  0.00  0.00    +0.002 A 
ATOM     12  C   UNL     1       4.262   6.955   1.888  0.00  0.00    +0.026 A 
ATOM     13  C   UNL     1       5.338   6.058   2.115  0.00  0.00    +0.043 A 
ATOM     14  N   UNL     1       5.802   5.516   3.224  0.00  0.00    -0.380 N 
ATOM     15  C   UNL     1       6.937   4.646   2.899  0.00  0.00    +0.152 C 
ATOM     16  H   UNL     1       5.446   5.665   4.113  0.00  0.00    +0.160 HD
ENDBRANCH   4   7
BRANCH   5  17
ATOM     17  C   UNL     1       9.110   2.680   2.503  0.00  0.00    +0.078 C 
ATOM     18  C   UNL     1      10.249   1.712   2.831  0.00  0.00    +0.024 C 
ATOM     19  C   UNL     1       8.805   1.207   2.783  0.00  0.00    +0.024 C 
ENDBRANCH   5  17
BRANCH   1  20
ATOM     20  S   UNL     1       9.615   0.933  -0.314  0.00  0.00    -0.109 S 
BRANCH  20  21
ATOM     21  C   UNL     1       7.834   0.731  -0.594  0.00  0.00    +0.170 C 
BRANCH  21  27
ATOM     22  C   UNL     1       4.037  -0.880  -1.364  0.00  0.00    +0.068 C 
ATOM     23  N   UNL     1       5.146  -0.273  -1.119  0.00  0.00    -0.181 NA
ATOM     24  N   UNL     1       6.259  -1.111  -1.085  0.00  0.00    -0.192 N 
ATOM     25  C   UNL     1       5.822  -2.492  -1.348  0.00  0.00    +0.141 C 
ATOM     26  C   UNL     1       4.298  -2.359  -1.537  0.00  0.00    +0.078 C 
ATOM     27  C   UNL     1       7.527  -0.722  -0.850  0.00  0.00    +0.245 C 
ATOM     28  O   UNL     1       8.422  -1.541  -0.844  0.00  0.00    -0.273 OA
BRANCH  22  32
ATOM     29  C   UNL     1       0.233   0.984  -1.629  0.00  0.00    +0.000 A 
ATOM     30  C   UNL     1       1.357   1.747  -1.365  0.00  0.00    +0.001 A 
ATOM     31  C   UNL     1       2.596   1.148  -1.278  0.00  0.00    +0.010 A 
ATOM     32  C   UNL     1       2.715  -0.232  -1.456  0.00  0.00    -0.002 A 
ATOM     33  C   UNL     1       1.576  -0.996  -1.721  0.00  0.00    +0.010 A 
ATOM     34  C   UNL     1       0.343  -0.384  -1.806  0.00  0.00    +0.001 A 
ENDBRANCH  22  32
ENDBRANCH  21  27
ENDBRANCH  20  21
ENDBRANCH   1  20
TORSDOF 6
