REMARK  Name = ZINC40735366
REMARK  8 active torsions:
REMARK  status: ('A' for Active; 'I' for Inactive)
REMARK    1  A    between atoms: C_1  and  C_2
REMARK    2  A    between atoms: C_7  and  C_9
REMARK    3  A    between atoms: C_7  and  C_10
REMARK    4  A    between atoms: C_14  and  N_28
REMARK    5  A    between atoms: C_15  and  N_19
REMARK    6  A    between atoms: N_19  and  C_20
REMARK    7  A    between atoms: C_20  and  C_21
REMARK    8  A    between atoms: C_21  and  N_22
REMARK                            x       y       z     vdW  Elec       q    Type
REMARK                         _______ _______ _______ _____ _____    ______ ____
ROOT
ATOM      1  C   UNL     1      -1.167   2.280  -2.025  0.00  0.00    +0.013 C 
ATOM      2  C   UNL     1      -1.298   0.794  -1.655  0.00  0.00    -0.014 C 
ATOM      3  C   UNL     1      -2.599   0.158  -2.217  0.00  0.00    +0.030 C 
ATOM      4  C   UNL     1      -2.212  -1.340  -2.129  0.00  0.00    +0.076 C 
ATOM      5  C   UNL     1      -2.311  -1.747  -0.661  0.00  0.00    +0.029 C 
ATOM      6  C   UNL     1      -1.483  -0.885   0.275  0.00  0.00    -0.033 C 
ATOM      7  C   UNL     1      -1.294   0.560  -0.145  0.00  0.00    +0.014 C 
ATOM      8  C   UNL     1      -0.118  -1.546   0.516  0.00  0.00    +0.011 C 
ATOM      9  C   UNL     1      -2.210  -0.872   1.643  0.00  0.00    +0.011 C 
ATOM     10  N   UNL     1      -0.799  -1.393  -2.553  0.00  0.00    -0.310 N 
ATOM     11  C   UNL     1      -0.199  -0.072  -2.308  0.00  0.00    +0.113 C 
ATOM     12  C   UNL     1      -0.149  -2.494  -3.097  0.00  0.00    +0.147 A 
ATOM     13  C   UNL     1       1.156  -2.381  -3.577  0.00  0.00    +0.105 A 
ATOM     14  C   UNL     1       1.762  -3.518  -4.114  0.00  0.00    +0.145 A 
ATOM     15  N   UNL     1       1.077  -4.659  -4.147  0.00  0.00    -0.219 NA
ATOM     16  C   UNL     1      -0.154  -4.723  -3.683  0.00  0.00    +0.225 A 
ATOM     17  N   UNL     1      -0.761  -3.675  -3.164  0.00  0.00    -0.219 NA
ENDROOT
BRANCH  13  18
ATOM     18  N   UNL     1       1.842  -1.156  -3.523  0.00  0.00    -0.353 N 
ATOM     19  H   UNL     1       1.720  -0.566  -2.763  0.00  0.00    +0.143 HD
ATOM     20  H   UNL     1       2.437  -0.900  -4.245  0.00  0.00    +0.143 HD
ENDBRANCH  13  18
BRANCH  14  21
ATOM     21  N   UNL     1       3.061  -3.460  -4.606  0.00  0.00    -0.326 N 
ATOM     22  H   UNL     1       3.553  -2.625  -4.579  0.00  0.00    +0.148 HD
BRANCH  21  23
ATOM     23  C   UNL     1       3.686  -4.661  -5.167  0.00  0.00    +0.118 C 
BRANCH  23  24
ATOM     24  C   UNL     1       5.104  -4.327  -5.633  0.00  0.00    +0.103 C 
BRANCH  24  25
ATOM     25  N   UNL     1       5.731  -5.530  -6.196  0.00  0.00    -0.297 NA
ATOM     26  C   UNL     1       5.053  -5.949  -7.431  0.00  0.00    +0.112 C 
ATOM     27  C   UNL     1       5.699  -7.237  -7.949  0.00  0.00    +0.175 C 
ATOM     28  O   UNL     1       7.098  -7.017  -8.147  0.00  0.00    -0.377 OA
ATOM     29  C   UNL     1       7.789  -6.609  -6.964  0.00  0.00    +0.175 C 
ATOM     30  C   UNL     1       7.165  -5.314  -6.436  0.00  0.00    +0.112 C 
ENDBRANCH  24  25
ENDBRANCH  23  24
ENDBRANCH  21  23
ENDBRANCH  14  21
TORSDOF 5
