REMARK  Name = ZINC66899225
REMARK  4 active torsions:
REMARK  status: ('A' for Active; 'I' for Inactive)
REMARK    1  A    between atoms: C_1  and  C_2
REMARK    2  A    between atoms: C_4  and  C_7
REMARK    3  A    between atoms: N_9  and  C_10
REMARK    4  A    between atoms: C_18  and  C_23
REMARK                            x       y       z     vdW  Elec       q    Type
REMARK                         _______ _______ _______ _____ _____    ______ ____
ROOT
ATOM      1  C   UNL     1      -4.223  -3.678   0.013  0.00  0.00    +0.105 C 
ATOM      2  C   UNL     1      -5.478  -3.057  -0.597  0.00  0.00    +0.027 C 
ATOM      3  C   UNL     1      -6.642  -4.035  -0.396  0.00  0.00    +0.008 C 
ATOM      4  C   UNL     1      -6.976  -4.080   1.094  0.00  0.00    +0.054 C 
ATOM      5  C   UNL     1      -5.734  -4.331   1.912  0.00  0.00    +0.024 A 
ATOM      6  C   UNL     1      -4.488  -4.141   1.422  0.00  0.00    -0.007 A 
ATOM      7  C   UNL     1      -3.374  -4.380   2.238  0.00  0.00    +0.025 A 
ATOM      8  C   UNL     1      -3.558  -4.814   3.546  0.00  0.00    +0.101 A 
ATOM      9  C   UNL     1      -4.884  -5.005   4.014  0.00  0.00    +0.261 A 
ATOM     10  O   UNL     1      -5.083  -5.387   5.154  0.00  0.00    -0.267 OA
ATOM     11  N   UNL     1      -5.916  -4.763   3.193  0.00  0.00    -0.325 N 
ATOM     12  H   UNL     1      -6.819  -4.898   3.520  0.00  0.00    +0.169 HD
ENDROOT
BRANCH   8  13
ATOM     13  C   UNL     1      -2.406  -5.069   4.423  0.00  0.00    +0.247 C 
ATOM     14  O   UNL     1      -1.276  -5.004   3.978  0.00  0.00    -0.270 OA
ATOM     15  N   UNL     1      -2.603  -5.375   5.721  0.00  0.00    -0.325 N 
ATOM     16  H   UNL     1      -3.503  -5.499   6.059  0.00  0.00    +0.145 HD
ATOM     17  H   UNL     1      -1.843  -5.472   6.317  0.00  0.00    +0.145 HD
ENDBRANCH   8  13
BRANCH   1  20
ATOM     18  C   UNL     1      -1.862  -3.076   0.017  0.00  0.00    +0.263 C 
ATOM     19  O   UNL     1      -1.590  -4.262  -0.004  0.00  0.00    -0.268 OA
ATOM     20  N   UNL     1      -3.150  -2.680   0.027  0.00  0.00    -0.303 N 
ATOM     21  H   UNL     1      -3.367  -1.735   0.043  0.00  0.00    +0.150 HD
BRANCH  18  25
ATOM     22  C   UNL     1      -0.059   1.572   0.092  0.00  0.00    +0.073 C 
ATOM     23  C   UNL     1      -0.027   0.065   0.067  0.00  0.00    +0.076 A 
ATOM     24  N   UNL     1      -1.037  -0.761   0.055  0.00  0.00    -0.240 NA
ATOM     25  C   UNL     1      -0.783  -2.074   0.031  0.00  0.00    +0.133 A 
ATOM     26  C   UNL     1       0.539  -2.431   0.022  0.00  0.00    +0.080 A 
ATOM     27  S   UNL     1       1.316  -0.942   0.039  0.00  0.00    -0.080 S 
ENDBRANCH  18  25
ENDBRANCH   1  20
TORSDOF 3
