REMARK  Name = ZINC33457892
REMARK  8 active torsions:
REMARK  status: ('A' for Active; 'I' for Inactive)
REMARK    1  A    between atoms: C_1  and  C_2
REMARK    2  A    between atoms: C_2  and  C_3
REMARK    3  A    between atoms: C_3  and  C_5
REMARK    4  A    between atoms: C_3  and  O_6
REMARK    5  A    between atoms: O_6  and  C_7
REMARK    6  A    between atoms: C_12  and  C_13
REMARK    7  A    between atoms: N_20  and  C_23
REMARK    8  A    between atoms: C_28  and  C_29
REMARK                            x       y       z     vdW  Elec       q    Type
REMARK                         _______ _______ _______ _____ _____    ______ ____
ROOT
ATOM      1  C   UNL     1       4.657   0.817   1.069  0.00  0.00    +0.030 C 
ATOM      2  C   UNL     1       5.986   1.210   1.081  0.00  0.00    +0.102 C 
ATOM      3  C   UNL     1       6.771   1.303  -0.161  0.00  0.00    +0.274 C 
ATOM      4  O   UNL     1       6.213   1.008  -1.354  0.00  0.00    -0.268 OA
ATOM      5  N   UNL     1       8.033   1.683  -0.080  0.00  0.00    -0.153 NA
ATOM      6  C   UNL     1       8.609   1.981   1.082  0.00  0.00    +0.171 C 
ATOM      7  S   UNL     1      10.252   2.463   1.070  0.00  0.00    -0.016 S 
ATOM      8  N   UNL     1       7.974   1.925   2.261  0.00  0.00    -0.216 N 
ATOM      9  C   UNL     1       6.677   1.558   2.338  0.00  0.00    +0.262 C 
ATOM     10  O   UNL     1       6.098   1.512   3.408  0.00  0.00    -0.269 OA
ENDROOT
BRANCH   8  11
ATOM     11  C   UNL     1       8.666   2.258   3.433  0.00  0.00    +0.048 A 
ATOM     12  C   UNL     1       8.668   3.570   3.891  0.00  0.00    +0.024 A 
ATOM     13  C   UNL     1       9.351   3.895   5.046  0.00  0.00    +0.003 A 
ATOM     14  C   UNL     1      10.033   2.918   5.748  0.00  0.00    +0.020 A 
ATOM     15  C   UNL     1      10.033   1.610   5.295  0.00  0.00    +0.046 A 
ATOM     16  C   UNL     1       9.347   1.278   4.141  0.00  0.00    -0.010 A 
ATOM     17  C   UNL     1       9.342  -0.148   3.651  0.00  0.00    +0.047 C 
ATOM     18 CL   UNL     1      10.890   0.386   6.178  0.00  0.00    -0.083 Cl
ENDBRANCH   8  11
BRANCH   1  24
ATOM     19  C   UNL     1       3.080  -0.118   2.696  0.00  0.00    +0.128 A 
ATOM     20  C   UNL     1       2.316   0.031   3.843  0.00  0.00    +0.046 A 
ATOM     21  C   UNL     1       2.324   1.228   4.530  0.00  0.00    +0.004 A 
ATOM     22  C   UNL     1       3.093   2.293   4.083  0.00  0.00    +0.001 A 
ATOM     23  C   UNL     1       3.858   2.169   2.947  0.00  0.00    +0.011 A 
ATOM     24  C   UNL     1       3.867   0.957   2.239  0.00  0.00    +0.018 A 
BRANCH  19  25
ATOM     25  O   UNL     1       3.073  -1.294   2.020  0.00  0.00    -0.489 OA
BRANCH  25  26
ATOM     26  C   UNL     1       2.175  -2.303   2.484  0.00  0.00    +0.170 C 
ATOM     27  C   UNL     1       2.880  -3.174   3.526  0.00  0.00    +0.052 C 
BRANCH  26  29
ATOM     28  C   UNL     1       0.920  -2.329   0.323  0.00  0.00    +0.007 C 
ATOM     29  C   UNL     1       1.734  -3.174   1.306  0.00  0.00    +0.041 C 
ENDBRANCH  26  29
ENDBRANCH  25  26
ENDBRANCH  19  25
ENDBRANCH   1  24
TORSDOF 5
