REMARK  Name = ZINC40734147
REMARK  5 active torsions:
REMARK  status: ('A' for Active; 'I' for Inactive)
REMARK    1  A    between atoms: C_1  and  C_2
REMARK    2  A    between atoms: C_2  and  C_3
REMARK    3  A    between atoms: C_11  and  N_28
REMARK    4  A    between atoms: C_12  and  N_16
REMARK    5  A    between atoms: C_20  and  C_23
REMARK                            x       y       z     vdW  Elec       q    Type
REMARK                         _______ _______ _______ _____ _____    ______ ____
ROOT
ATOM      1  C   UNL     1       1.253   0.560  -2.730  0.00  0.00    +0.075 C 
ATOM      2  C   UNL     1       2.131  -0.098  -1.661  0.00  0.00    +0.022 C 
ATOM      3  C   UNL     1       2.115  -1.616  -1.857  0.00  0.00    +0.003 C 
ATOM      4  C   UNL     1       0.686  -2.138  -1.695  0.00  0.00    +0.019 C 
ATOM      5  C   UNL     1      -0.209  -1.503  -2.764  0.00  0.00    +0.107 C 
ATOM      6  N   UNL     1      -0.087  -0.041  -2.680  0.00  0.00    -0.311 N 
ATOM      7  C   UNL     1      -1.217   0.758  -2.551  0.00  0.00    +0.147 A 
ATOM      8  C   UNL     1      -1.934   1.160  -3.681  0.00  0.00    +0.104 A 
ATOM      9  C   UNL     1      -3.060   1.962  -3.495  0.00  0.00    +0.127 A 
ATOM     10  N   UNL     1      -3.407   2.311  -2.258  0.00  0.00    -0.333 N 
ATOM     11  C   UNL     1      -2.703   1.911  -1.219  0.00  0.00    +0.200 A 
ATOM     12  N   UNL     1      -1.636   1.148  -1.350  0.00  0.00    -0.221 NA
ATOM     13  H   UNL     1      -4.188   2.869  -2.120  0.00  0.00    +0.168 HD
ENDROOT
BRANCH   9  14
ATOM     14  N   UNL     1      -3.810   2.391  -4.586  0.00  0.00    -0.283 N 
ATOM     15  C   UNL     1      -4.836   3.313  -4.406  0.00  0.00    +0.142 A 
ATOM     16  C   UNL     1      -5.667   3.639  -5.475  0.00  0.00    +0.081 A 
ATOM     17  C   UNL     1      -6.683   4.558  -5.281  0.00  0.00    +0.037 A 
ATOM     18  C   UNL     1      -6.835   5.122  -4.021  0.00  0.00    +0.074 A 
ATOM     19  C   UNL     1      -5.975   4.753  -3.007  0.00  0.00    +0.125 A 
ATOM     20  N   UNL     1      -5.017   3.870  -3.219  0.00  0.00    -0.238 NA
ATOM     21 CL   UNL     1      -5.431   2.902  -7.029  0.00  0.00    -0.080 Cl
ATOM     22  H   UNL     1      -3.617   2.046  -5.472  0.00  0.00    +0.155 HD
BRANCH  18  23
ATOM     23  C   UNL     1      -7.927   6.128  -3.765  0.00  0.00    +0.419 C 
ATOM     24  F   UNL     1      -9.085   5.463  -3.346  0.00  0.00    -0.166 F 
ATOM     25  F   UNL     1      -7.516   7.019  -2.768  0.00  0.00    -0.166 F 
ATOM     26  F   UNL     1      -8.196   6.836  -4.941  0.00  0.00    -0.166 F 
ENDBRANCH  18  23
ENDBRANCH   9  14
BRANCH   8  27
ATOM     27  N   UNL     1      -1.531   0.768  -4.967  0.00  0.00    -0.353 N 
ATOM     28  H   UNL     1      -0.706   0.273  -5.088  0.00  0.00    +0.143 HD
ATOM     29  H   UNL     1      -2.078   0.993  -5.736  0.00  0.00    +0.143 HD
ENDBRANCH   8  27
BRANCH   1  31
ATOM     30  C   UNL     1       2.524   2.710  -2.656  0.00  0.00    +0.006 C 
ATOM     31  C   UNL     1       1.152   2.062  -2.457  0.00  0.00    +0.019 C 
ENDBRANCH   1  31
TORSDOF 4
