REMARK  Name = ZINC49508413
REMARK  8 active torsions:
REMARK  status: ('A' for Active; 'I' for Inactive)
REMARK    1  A    between atoms: C_1  and  C_2
REMARK    2  A    between atoms: C_2  and  C_4
REMARK    3  A    between atoms: C_2  and  N_11
REMARK    4  A    between atoms: N_9  and  C_10
REMARK    5  A    between atoms: N_11  and  C_12
REMARK    6  A    between atoms: C_17  and  C_18
REMARK    7  A    between atoms: C_18  and  O_19
REMARK    8  A    between atoms: O_19  and  C_20
REMARK                            x       y       z     vdW  Elec       q    Type
REMARK                         _______ _______ _______ _____ _____    ______ ____
ROOT
ATOM      1  C   UNL     1      -0.019   1.526   0.010  0.00  0.00    +0.038 C 
ATOM      2  C   UNL     1       0.002  -0.004   0.002  0.00  0.00    +0.154 C 
ENDROOT
BRANCH   2   3
ATOM      3  C   UNL     1       0.731  -0.503   1.223  0.00  0.00    +0.240 C 
ATOM      4  O   UNL     1       1.725  -1.186   1.099  0.00  0.00    -0.273 OA
ATOM      5  N   UNL     1       0.278  -0.191   2.453  0.00  0.00    -0.239 N 
ATOM      6  C   UNL     1       0.930  -0.637   3.545  0.00  0.00    +0.306 C 
ATOM      7  O   UNL     1       1.926  -1.322   3.420  0.00  0.00    -0.252 OA
ATOM      8  N   UNL     1       0.476  -0.324   4.775  0.00  0.00    -0.302 N 
ATOM      9  C   UNL     1       1.185  -0.810   5.962  0.00  0.00    +0.129 C 
ATOM     10  H   UNL     1      -0.517   0.356   2.553  0.00  0.00    +0.159 HD
ATOM     11  H   UNL     1      -0.319   0.222   4.875  0.00  0.00    +0.150 HD
ENDBRANCH   2   3
BRANCH   2  12
ATOM     12  N   UNL     1       0.688  -0.476  -1.203  0.00  0.00    -0.333 N 
ATOM     13  H   UNL     1       1.632  -0.695  -1.170  0.00  0.00    +0.147 HD
BRANCH  12  14
ATOM     14  C   UNL     1      -0.019  -0.613  -2.401  0.00  0.00    +0.033 A 
ATOM     15  C   UNL     1      -1.370  -0.295  -2.451  0.00  0.00    +0.023 A 
ATOM     16  C   UNL     1      -2.065  -0.431  -3.637  0.00  0.00    +0.002 A 
ATOM     17  C   UNL     1      -1.418  -0.883  -4.772  0.00  0.00    +0.000 A 
ATOM     18  C   UNL     1      -0.073  -1.200  -4.725  0.00  0.00    +0.008 A 
ATOM     19  C   UNL     1       0.630  -1.061  -3.544  0.00  0.00    -0.001 A 
BRANCH  19  20
ATOM     20  C   UNL     1       2.097  -1.400  -3.495  0.00  0.00    +0.196 C 
BRANCH  20  21
ATOM     21  O   UNL     1       2.529  -1.834  -4.787  0.00  0.00    -0.378 OA
ATOM     22  C   UNL     1       3.914  -2.182  -4.850  0.00  0.00    +0.194 C 
ENDBRANCH  20  21
ENDBRANCH  19  20
ENDBRANCH  12  14
ENDBRANCH   2  12
TORSDOF 5
