REMARK  Name = ZINC11896563
REMARK  12 active torsions:
REMARK  status: ('A' for Active; 'I' for Inactive)
REMARK    1  A    between atoms: C_1  and  C_2
REMARK    2  A    between atoms: C_2  and  C_3
REMARK    3  A    between atoms: C_3  and  C_4
REMARK    4  A    between atoms: C_4  and  N_5
REMARK    5  A    between atoms: N_5  and  C_6
REMARK    6  A    between atoms: C_7  and  N_18
REMARK    7  A    between atoms: N_8  and  C_15
REMARK    8  A    between atoms: C_15  and  C_16
REMARK    9  A    between atoms: C_16  and  C_17
REMARK   10  A    between atoms: C_19  and  C_21
REMARK   11  A    between atoms: C_21  and  N_22
REMARK   12  A    between atoms: C_26  and  C_27
REMARK                            x       y       z     vdW  Elec       q    Type
REMARK                         _______ _______ _______ _____ _____    ______ ____
ROOT
ATOM      1  N   UNL     1       9.027   2.641  -1.730  0.00  0.00    -0.263 N 
ATOM      2  C   UNL     1       7.756   3.006  -1.462  0.00  0.00    +0.238 C 
ATOM      3  O   UNL     1       7.023   3.358  -2.363  0.00  0.00    -0.274 OA
ENDROOT
BRANCH   1   4
ATOM      4  C   UNL     1       9.476   2.577  -3.066  0.00  0.00    +0.140 A 
ATOM      5  C   UNL     1       8.919   1.675  -3.951  0.00  0.00    +0.127 A 
ATOM      6  N   UNL     1       9.375   1.640  -5.248  0.00  0.00    -0.280 N 
ATOM      7  C   UNL     1      10.357   2.467  -5.648  0.00  0.00    +0.331 A 
ATOM      8  O   UNL     1      10.749   2.417  -6.798  0.00  0.00    -0.246 OA
ATOM      9  N   UNL     1      10.915   3.348  -4.798  0.00  0.00    -0.273 N 
ATOM     10  H   UNL     1      11.645   3.951  -5.121  0.00  0.00    +0.173 HD
ATOM     11  C   UNL     1      10.502   3.427  -3.518  0.00  0.00    +0.277 A 
ATOM     12  O   UNL     1      11.015   4.229  -2.756  0.00  0.00    -0.266 OA
BRANCH   5  13
ATOM     13  N   UNL     1       7.919   0.826  -3.541  0.00  0.00    -0.343 N 
ATOM     14  H   UNL     1       7.638   0.820  -2.613  0.00  0.00    +0.144 HD
ATOM     15  H   UNL     1       7.495   0.233  -4.180  0.00  0.00    +0.144 HD
ENDBRANCH   5  13
BRANCH   6  16
ATOM     16  C   UNL     1       8.789   0.692  -6.199  0.00  0.00    +0.128 C 
BRANCH  16  17
ATOM     17  C   UNL     1       9.568  -0.624  -6.153  0.00  0.00    +0.018 C 
ATOM     18  C   UNL     1       8.957  -1.614  -7.147  0.00  0.00    +0.005 C 
ENDBRANCH  16  17
ENDBRANCH   6  16
ENDBRANCH   1   4
BRANCH   1  19
ATOM     19  C   UNL     1       9.941   2.312  -0.634  0.00  0.00    +0.114 C 
BRANCH  19  20
ATOM     20  C   UNL     1       9.865   0.813  -0.338  0.00  0.00    +0.019 C 
BRANCH  20  22
ATOM     21  C   UNL     1      10.743  -1.030   1.102  0.00  0.00    +0.004 C 
ATOM     22  C   UNL     1      10.819   0.469   0.807  0.00  0.00    -0.002 C 
ENDBRANCH  20  22
ENDBRANCH  19  20
ENDBRANCH   1  19
BRANCH   2  23
ATOM     23  C   UNL     1       7.246   2.975  -0.044  0.00  0.00    +0.213 C 
BRANCH  23  24
ATOM     24  N   UNL     1       5.848   3.412  -0.019  0.00  0.00    -0.219 N 
ATOM     25  C   UNL     1       4.883   2.519  -0.154  0.00  0.00    +0.261 C 
ATOM     26  O   UNL     1       5.139   1.337  -0.301  0.00  0.00    -0.269 OA
ATOM     27  C   UNL     1       3.533   2.980  -0.124  0.00  0.00    +0.080 C 
ATOM     28  C   UNL     1       2.372   2.274  -0.241  0.00  0.00    +0.035 C 
ATOM     29  S   UNL     1       3.777   4.737   0.099  0.00  0.00    -0.026 S 
ATOM     30  C   UNL     1       5.563   4.723   0.144  0.00  0.00    +0.286 C 
ATOM     31  O   UNL     1       6.329   5.658   0.281  0.00  0.00    -0.262 OA
BRANCH  28  32
ATOM     32  C   UNL     1       1.128   2.943  -0.182  0.00  0.00    +0.013 A 
ATOM     33  C   UNL     1      -0.156   2.418  -0.277  0.00  0.00    +0.015 A 
ATOM     34  C   UNL     1      -1.200   3.305  -0.192  0.00  0.00    +0.008 A 
ATOM     35  C   UNL     1      -0.936   4.626  -0.011  0.00  0.00    +0.046 A 
ATOM     36  S   UNL     1       0.796   4.683   0.034  0.00  0.00    -0.097 S 
ENDBRANCH  28  32
ENDBRANCH  23  24
ENDBRANCH   2  23
TORSDOF 10
