REMARK  Name = ZINC26384774
REMARK  13 active torsions:
REMARK  status: ('A' for Active; 'I' for Inactive)
REMARK    1  A    between atoms: C_1  and  C_2
REMARK    2  A    between atoms: C_2  and  C_3
REMARK    3  A    between atoms: C_2  and  C_4
REMARK    4  A    between atoms: C_2  and  N_40
REMARK    5  A    between atoms: N_6  and  C_7
REMARK    6  A    between atoms: C_7  and  C_9
REMARK    7  A    between atoms: C_7  and  C_18
REMARK    8  A    between atoms: C_9  and  C_10
REMARK    9  A    between atoms: C_10  and  C_11
REMARK   10  A    between atoms: C_11  and  C_12
REMARK   11  A    between atoms: C_27  and  C_35
REMARK   12  A    between atoms: C_35  and  C_36
REMARK   13  A    between atoms: C_36  and  C_37
REMARK                            x       y       z     vdW  Elec       q    Type
REMARK                         _______ _______ _______ _____ _____    ______ ____
ROOT
ATOM      1  C   UNL     1      -5.534  -0.609   3.573  0.00  0.00    +0.159 C 
ENDROOT
BRANCH   1   2
ATOM      2  C   UNL     1      -4.984   0.779   3.364  0.00  0.00    +0.236 C 
ATOM      3  O   UNL     1      -5.563   1.737   3.830  0.00  0.00    -0.274 OA
ATOM      4  N   UNL     1      -3.849   0.955   2.659  0.00  0.00    -0.300 N 
ATOM      5  C   UNL     1      -3.301   2.302   2.448  0.00  0.00    +0.108 C 
ATOM      6  C   UNL     1      -3.100   2.521   0.944  0.00  0.00    +0.030 C 
ATOM      7  C   UNL     1      -2.250   1.388   0.376  0.00  0.00    -0.001 C 
ATOM      8  C   UNL     1      -2.938   0.042   0.588  0.00  0.00    +0.030 C 
ATOM      9  C   UNL     1      -3.137  -0.197   2.089  0.00  0.00    +0.108 C 
ATOM     10  C   UNL     1      -0.863   1.382   1.051  0.00  0.00    +0.020 C 
ATOM     11  C   UNL     1       0.059   0.934  -0.104  0.00  0.00    +0.021 C 
ATOM     12  C   UNL     1      -0.656   1.355  -1.371  0.00  0.00    -0.041 A 
ATOM     13  C   UNL     1      -1.986   1.615  -1.093  0.00  0.00    -0.038 A 
ATOM     14  C   UNL     1      -2.835   2.018  -2.110  0.00  0.00    +0.004 A 
ATOM     15  C   UNL     1      -2.359   2.161  -3.399  0.00  0.00    +0.000 A 
ATOM     16  C   UNL     1      -1.030   1.900  -3.676  0.00  0.00    +0.000 A 
ATOM     17  C   UNL     1      -0.181   1.497  -2.664  0.00  0.00    +0.004 A 
BRANCH  11  18
ATOM     18  C   UNL     1       1.415   1.635  -0.003  0.00  0.00    +0.019 C 
BRANCH  18  19
ATOM     19  C   UNL     1       2.178   1.097   1.210  0.00  0.00    +0.126 C 
BRANCH  19  20
ATOM     20  C   UNL     1       3.543   1.733   1.267  0.00  0.00    +0.356 C 
ATOM     21  O   UNL     1       3.872   2.535   0.425  0.00  0.00    -0.246 OA
ATOM     22  O   UNL     1       4.393   1.409   2.254  0.00  0.00    -0.246 OA
ENDBRANCH  19  20
ENDBRANCH  18  19
ENDBRANCH  11  18
ENDBRANCH   1   2
BRANCH   1  25
ATOM     23  C   UNL     1      -7.336   0.148   5.028  0.00  0.00    +0.202 C 
ATOM     24  O   UNL     1      -6.505   0.682   5.731  0.00  0.00    -0.277 OA
ATOM     25  N   UNL     1      -6.954  -0.523   3.924  0.00  0.00    -0.305 N 
ATOM     26  H   UNL     1      -7.707  -1.008   3.286  0.00  0.00    +0.149 HD
BRANCH  23  28
ATOM     27  C   UNL     1      -8.937   0.463   6.895  0.00  0.00    -0.001 C 
ATOM     28  C   UNL     1      -8.797   0.236   5.388  0.00  0.00    +0.001 C 
ATOM     29  C   UNL     1      -9.439   1.402   4.635  0.00  0.00    -0.001 C 
BRANCH  28  30
ATOM     30  N   UNL     1      -9.469  -1.017   5.017  0.00  0.00    +0.387 N 
ATOM     31  H   UNL     1      -9.367  -1.180   3.934  0.00  0.00    -0.089 HD
ATOM     32  H   UNL     1     -10.535  -0.953   5.280  0.00  0.00    -0.089 HD
ATOM     33  H   UNL     1      -9.007  -1.855   5.559  0.00  0.00    -0.089 HD
ENDBRANCH  28  30
ENDBRANCH  23  28
ENDBRANCH   1  25
BRANCH   1  34
ATOM     34  C   UNL     1      -4.769  -1.295   4.707  0.00  0.00    +0.032 C 
BRANCH  34  35
ATOM     35  C   UNL     1      -5.241  -2.744   4.837  0.00  0.00    +0.007 C 
BRANCH  35  36
ATOM     36  C   UNL     1      -4.476  -3.430   5.970  0.00  0.00    +0.035 C 
BRANCH  36  37
ATOM     37  C   UNL     1      -4.941  -4.858   6.098  0.00  0.00    -0.047 A 
ATOM     38  C   UNL     1      -5.994  -5.169   6.938  0.00  0.00    +0.003 A 
ATOM     39  C   UNL     1      -6.424  -6.478   7.052  0.00  0.00    +0.000 A 
ATOM     40  C   UNL     1      -5.795  -7.477   6.333  0.00  0.00    +0.000 A 
ATOM     41  C   UNL     1      -4.739  -7.167   5.497  0.00  0.00    +0.000 A 
ATOM     42  C   UNL     1      -4.312  -5.857   5.379  0.00  0.00    +0.003 A 
ENDBRANCH  36  37
ENDBRANCH  35  36
ENDBRANCH  34  35
ENDBRANCH   1  34
TORSDOF 11
