REMARK  Name = ZINC16990493
REMARK  7 active torsions:
REMARK  status: ('A' for Active; 'I' for Inactive)
REMARK    1  A    between atoms: C_1  and  C_2
REMARK    2  A    between atoms: C_4  and  O_32
REMARK    3  A    between atoms: C_14  and  C_15
REMARK    4  A    between atoms: C_14  and  O_19
REMARK    5  A    between atoms: C_15  and  C_17
REMARK    6  A    between atoms: C_17  and  O_18
REMARK    7  A    between atoms: C_29  and  C_30
REMARK                            x       y       z     vdW  Elec       q    Type
REMARK                         _______ _______ _______ _____ _____    ______ ____
ROOT
ATOM      1  C   UNL     1      -0.749   0.568  -4.874  0.00  0.00    +0.015 C 
ATOM      2  C   UNL     1      -1.355   1.272  -3.644  0.00  0.00    +0.012 C 
ATOM      3  C   UNL     1      -2.722   0.726  -3.363  0.00  0.00    +0.044 C 
ATOM      4  C   UNL     1      -3.838   1.617  -3.944  0.00  0.00    +0.154 C 
ATOM      5  C   UNL     1      -3.382   2.314  -5.212  0.00  0.00    +0.153 C 
ATOM      6  C   UNL     1      -2.263   3.309  -4.879  0.00  0.00    +0.034 C 
ATOM      7  C   UNL     1      -1.350   2.800  -3.813  0.00  0.00    +0.007 C 
ATOM      8  C   UNL     1       0.151   3.097  -3.962  0.00  0.00    +0.045 C 
ATOM      9  C   UNL     1       0.806   2.123  -2.944  0.00  0.00    +0.206 C 
ATOM     10  C   UNL     1      -0.295   1.108  -2.535  0.00  0.00    +0.162 C 
ATOM     11  F   UNL     1       1.241   2.830  -1.819  0.00  0.00    -0.242 F 
ATOM     12  C   UNL     1      -1.584   3.790  -6.156  0.00  0.00    +0.011 C 
ATOM     13  C   UNL     1      -2.630   4.587  -6.965  0.00  0.00    +0.032 C 
ATOM     14  C   UNL     1      -3.815   3.662  -7.180  0.00  0.00    -0.053 C 
ATOM     15  C   UNL     1      -4.182   3.386  -8.422  0.00  0.00    +0.051 C 
ATOM     16  C   UNL     1      -5.267   2.425  -8.683  0.00  0.00    +0.179 C 
ATOM     17  O   UNL     1      -5.518   2.058  -9.816  0.00  0.00    -0.288 OA
ATOM     18  C   UNL     1      -6.040   1.916  -7.536  0.00  0.00    +0.047 C 
ATOM     19  C   UNL     1      -5.665   2.229  -6.302  0.00  0.00    -0.009 C 
ATOM     20  C   UNL     1      -4.479   3.062  -5.966  0.00  0.00    +0.044 C 
ATOM     21  C   UNL     1      -5.014   4.204  -5.109  0.00  0.00    +0.023 C 
ATOM     22  F   UNL     1      -2.909   1.348  -6.124  0.00  0.00    -0.238 F 
ENDROOT
BRANCH  10  23
ATOM     23  C   UNL     1      -0.834   1.444  -1.177  0.00  0.00    +0.193 C 
ATOM     24  O   UNL     1      -1.772   2.196  -1.069  0.00  0.00    -0.292 OA
BRANCH  23  25
ATOM     25  C   UNL     1      -0.205   0.842   0.053  0.00  0.00    +0.233 C 
BRANCH  25  26
ATOM     26  O   UNL     1      -0.890   1.311   1.216  0.00  0.00    -0.387 OA
ATOM     27  H   UNL     1      -0.538   0.963   2.047  0.00  0.00    +0.210 HD
ENDBRANCH  25  26
ENDBRANCH  23  25
ENDBRANCH  10  23
BRANCH  10  28
ATOM     28  O   UNL     1       0.224  -0.221  -2.565  0.00  0.00    -0.378 OA
ATOM     29  H   UNL     1       0.939  -0.379  -1.933  0.00  0.00    +0.211 HD
ENDBRANCH  10  28
BRANCH   4  30
ATOM     30  O   UNL     1      -4.968   0.776  -4.213  0.00  0.00    -0.389 OA
ATOM     31  H   UNL     1      -5.317   0.324  -3.433  0.00  0.00    +0.210 HD
ENDBRANCH   4  30
TORSDOF 5
