REMARK  Name = ZINC56156200
REMARK  9 active torsions:
REMARK  status: ('A' for Active; 'I' for Inactive)
REMARK    1  A    between atoms: C_1  and  C_2
REMARK    2  A    between atoms: N_8  and  C_9
REMARK    3  A    between atoms: C_9  and  C_10
REMARK    4  A    between atoms: C_15  and  C_16
REMARK    5  A    between atoms: C_16  and  N_17
REMARK    6  A    between atoms: N_17  and  C_18
REMARK    7  A    between atoms: C_18  and  C_20
REMARK    8  A    between atoms: C_18  and  C_21
REMARK    9  A    between atoms: N_26  and  C_27
REMARK                            x       y       z     vdW  Elec       q    Type
REMARK                         _______ _______ _______ _____ _____    ______ ____
ROOT
ATOM      1  C   UNL     1       3.494  -2.415   1.474  0.00  0.00    +0.117 C 
ENDROOT
BRANCH   1   7
ATOM      2  C   UNL     1       2.987  -0.152   2.416  0.00  0.00    -0.060 A 
ATOM      3  C   UNL     1       3.002   0.762   3.453  0.00  0.00    +0.002 A 
ATOM      4  C   UNL     1       3.550   0.415   4.673  0.00  0.00    +0.000 A 
ATOM      5  C   UNL     1       4.083  -0.847   4.858  0.00  0.00    +0.000 A 
ATOM      6  C   UNL     1       4.067  -1.762   3.822  0.00  0.00    +0.005 A 
ATOM      7  C   UNL     1       3.515  -1.416   2.602  0.00  0.00    -0.032 A 
BRANCH   2   8
ATOM      8  C   UNL     1       2.390   0.226   1.085  0.00  0.00    -0.042 C 
BRANCH   8  15
ATOM      9  C   UNL     1       2.479   2.021  -1.073  0.00  0.00    -0.013 C 
ATOM     10  C   UNL     1       1.278   1.970  -0.126  0.00  0.00    -0.071 C 
ATOM     11  C   UNL     1       0.653   3.363  -0.022  0.00  0.00    -0.016 C 
ATOM     12  C   UNL     1      -0.549   3.308   0.926  0.00  0.00    -0.003 C 
ATOM     13  C   UNL     1      -0.089   2.775   2.286  0.00  0.00    -0.019 C 
ATOM     14  C   UNL     1       0.564   1.404   2.096  0.00  0.00    -0.078 C 
ATOM     15  N   UNL     1       1.721   1.529   1.202  0.00  0.00    +0.384 N 
ATOM     16  H   UNL     1       2.367   2.204   1.582  0.00  0.00    -0.081 HD
ENDBRANCH   8  15
ENDBRANCH   2   8
ENDBRANCH   1   7
BRANCH   1  17
ATOM     17  N   UNL     1       4.542  -2.078   0.501  0.00  0.00    -0.302 NA
ATOM     18  H   UNL     1       4.434  -1.132   0.167  0.00  0.00    +0.123 HD
BRANCH  17  19
ATOM     19  C   UNL     1       4.550  -3.033  -0.615  0.00  0.00    +0.138 C 
ATOM     20  C   UNL     1       3.527  -2.599  -1.666  0.00  0.00    +0.034 C 
BRANCH  19  21
ATOM     21  C   UNL     1       5.923  -3.068  -1.235  0.00  0.00    +0.237 C 
ATOM     22  O   UNL     1       6.807  -2.367  -0.791  0.00  0.00    -0.274 OA
ATOM     23  N   UNL     1       6.169  -3.879  -2.284  0.00  0.00    -0.239 N 
ATOM     24  C   UNL     1       7.396  -3.910  -2.838  0.00  0.00    +0.306 C 
ATOM     25  O   UNL     1       8.282  -3.207  -2.393  0.00  0.00    -0.252 OA
ATOM     26  N   UNL     1       7.642  -4.721  -3.887  0.00  0.00    -0.296 N 
ATOM     27  H   UNL     1       5.462  -4.440  -2.639  0.00  0.00    +0.159 HD
ATOM     28  H   UNL     1       6.935  -5.282  -4.242  0.00  0.00    +0.151 HD
BRANCH  26  29
ATOM     29  C   UNL     1       8.977  -4.755  -4.490  0.00  0.00    +0.075 C 
ATOM     30  C   UNL     1       9.062  -4.755  -6.017  0.00  0.00    +0.024 C 
ATOM     31  C   UNL     1       9.384  -6.029  -5.233  0.00  0.00    +0.024 C 
ENDBRANCH  26  29
ENDBRANCH  19  21
ENDBRANCH  17  19
ENDBRANCH   1  17
TORSDOF 7
