REMARK  Name = ZINC57430199
REMARK  6 active torsions:
REMARK  status: ('A' for Active; 'I' for Inactive)
REMARK    1  A    between atoms: C_1  and  N_2
REMARK    2  A    between atoms: N_5  and  C_6
REMARK    3  A    between atoms: C_10  and  N_12
REMARK    4  A    between atoms: C_13  and  C_15
REMARK    5  A    between atoms: N_17  and  C_24
REMARK    6  A    between atoms: C_24  and  C_25
REMARK                            x       y       z     vdW  Elec       q    Type
REMARK                         _______ _______ _______ _____ _____    ______ ____
ROOT
ATOM      1  N   UNL     1       2.005  -6.055  -3.326  0.00  0.00    -0.281 N 
ATOM      2  C   UNL     1       2.744  -6.675  -4.267  0.00  0.00    +0.250 C 
ATOM      3  O   UNL     1       3.330  -6.021  -5.110  0.00  0.00    -0.270 OA
ATOM      4  H   UNL     1       1.485  -6.577  -2.696  0.00  0.00    +0.155 HD
ENDROOT
BRANCH   2   5
ATOM      5  C   UNL     1       2.842  -8.141  -4.276  0.00  0.00    +0.062 A 
ATOM      6  C   UNL     1       2.242  -9.004  -3.407  0.00  0.00    +0.100 A 
ATOM      7  N   UNL     1       2.565 -10.279  -3.731  0.00  0.00    -0.342 N 
ATOM      8  C   UNL     1       3.395 -10.300  -4.833  0.00  0.00    +0.050 A 
ATOM      9  C   UNL     1       3.603  -8.969  -5.229  0.00  0.00    +0.012 A 
ATOM     10  C   UNL     1       4.406  -8.685  -6.330  0.00  0.00    +0.011 A 
ATOM     11  C   UNL     1       4.992  -9.717  -7.031  0.00  0.00    +0.001 A 
ATOM     12  C   UNL     1       4.785 -11.033  -6.644  0.00  0.00    +0.002 A 
ATOM     13  C   UNL     1       3.999 -11.327  -5.551  0.00  0.00    +0.026 A 
BRANCH   7  14
ATOM     14  C   UNL     1       2.100 -11.468  -3.013  0.00  0.00    +0.148 C 
BRANCH  14  15
ATOM     15  C   UNL     1       3.134 -11.877  -1.995  0.00  0.00    -0.013 C 
ATOM     16  C   UNL     1       2.797 -12.009  -0.736  0.00  0.00    +0.005 C 
ENDBRANCH  14  15
ENDBRANCH   7  14
ENDBRANCH   2   5
BRANCH   1  21
ATOM     17  C   UNL     1       1.888  -2.637  -1.965  0.00  0.00    +0.037 A 
ATOM     18  C   UNL     1       1.957  -1.889  -3.134  0.00  0.00    +0.023 A 
ATOM     19  C   UNL     1       2.042  -2.524  -4.358  0.00  0.00    +0.004 A 
ATOM     20  C   UNL     1       2.058  -3.904  -4.424  0.00  0.00    +0.023 A 
ATOM     21  C   UNL     1       1.989  -4.658  -3.259  0.00  0.00    +0.035 A 
ATOM     22  C   UNL     1       1.910  -4.023  -2.027  0.00  0.00    +0.046 A 
BRANCH  17  27
ATOM     23  C   UNL     1       3.076  -2.430   2.696  0.00  0.00    +0.129 C 
ATOM     24  N   UNL     1       2.410  -1.855   1.524  0.00  0.00    -0.302 N 
ATOM     25  C   UNL     1       2.414  -2.522   0.353  0.00  0.00    +0.304 C 
ATOM     26  O   UNL     1       2.970  -3.600   0.268  0.00  0.00    -0.253 OA
ATOM     27  N   UNL     1       1.802  -1.993  -0.725  0.00  0.00    -0.269 N 
ATOM     28  H   UNL     1       1.967  -0.995   1.591  0.00  0.00    +0.150 HD
ATOM     29  H   UNL     1       1.302  -1.166  -0.642  0.00  0.00    +0.156 HD
ENDBRANCH  17  27
ENDBRANCH   1  21
TORSDOF 5
