REMARK  Name = ZINC38664297
REMARK  5 active torsions:
REMARK  status: ('A' for Active; 'I' for Inactive)
REMARK    1  A    between atoms: C_7  and  C_20
REMARK    2  A    between atoms: N_10  and  C_11
REMARK    3  A    between atoms: C_11  and  C_12
REMARK    4  A    between atoms: C_21  and  C_22
REMARK    5  A    between atoms: C_21  and  C_24
REMARK                            x       y       z     vdW  Elec       q    Type
REMARK                         _______ _______ _______ _____ _____    ______ ____
ROOT
ATOM      1  C   UNL     1      -0.017   1.378   0.010  0.00  0.00    +0.000 A 
ATOM      2  C   UNL     1       1.174   2.082   0.002  0.00  0.00    +0.002 A 
ATOM      3  C   UNL     1       2.377   1.411  -0.013  0.00  0.00    +0.023 A 
ATOM      4  C   UNL     1       2.405   0.014  -0.021  0.00  0.00    +0.034 A 
ATOM      5  C   UNL     1       1.206  -0.682  -0.013  0.00  0.00    -0.018 A 
ATOM      6  C   UNL     1       0.002  -0.004   0.002  0.00  0.00    +0.006 A 
ATOM      7  C   UNL     1       1.510  -2.163  -0.023  0.00  0.00    +0.062 C 
ATOM      8  C   UNL     1       3.046  -2.241  -0.038  0.00  0.00    +0.118 C 
ATOM      9  N   UNL     1       3.501  -0.849  -0.036  0.00  0.00    -0.320 N 
ENDROOT
BRANCH   7  10
ATOM     10  C   UNL     1       0.936  -2.809  -1.258  0.00  0.00    +0.001 C 
ATOM     11  C   UNL     1       0.059  -3.803  -1.141  0.00  0.00    +0.068 C 
BRANCH  11  12
ATOM     12  C   UNL     1      -0.516  -4.449  -2.376  0.00  0.00    +0.216 C 
ATOM     13  N   UNL     1      -1.981  -4.362  -2.355  0.00  0.00    -0.359 N 
ATOM     14  C   UNL     1      -2.445  -5.578  -2.361  0.00  0.00    +0.060 A 
ATOM     15  C   UNL     1      -3.808  -6.128  -2.348  0.00  0.00    +0.027 A 
ATOM     16  C   UNL     1      -3.986  -7.464  -2.359  0.00  0.00    +0.002 A 
ATOM     17  C   UNL     1      -2.912  -8.372  -2.383  0.00  0.00    +0.002 A 
ATOM     18  C   UNL     1      -1.624  -7.974  -2.396  0.00  0.00    +0.027 A 
ATOM     19  C   UNL     1      -1.308  -6.539  -2.386  0.00  0.00    +0.060 A 
ATOM     20  N   UNL     1      -0.186  -5.880  -2.395  0.00  0.00    -0.359 N 
ATOM     21  H   UNL     1      -2.507  -3.547  -2.339  0.00  0.00    +0.162 HD
ATOM     22  H   UNL     1       0.705  -6.263  -2.411  0.00  0.00    +0.162 HD
ENDBRANCH  11  12
BRANCH  11  23
ATOM     23  C   UNL     1      -0.340  -4.258   0.157  0.00  0.00    +0.098 C 
ATOM     24  N   UNL     1      -0.656  -4.619   1.186  0.00  0.00    -0.191 NA
ENDBRANCH  11  23
ENDBRANCH   7  10
BRANCH   9  25
ATOM     25  C   UNL     1       4.903  -0.424  -0.048  0.00  0.00    +0.201 C 
BRANCH  25  26
ATOM     26  C   UNL     1       5.399  -0.285   1.368  0.00  0.00    +0.233 C 
ATOM     27  O   UNL     1       4.654  -0.518   2.297  0.00  0.00    -0.274 OA
ATOM     28  N   UNL     1       6.669   0.098   1.603  0.00  0.00    -0.296 N 
ATOM     29  C   UNL     1       7.590   0.392   0.494  0.00  0.00    +0.136 C 
ATOM     30  C   UNL     1       8.235   1.758   0.750  0.00  0.00    +0.179 C 
ATOM     31  O   UNL     1       8.799   1.774   2.063  0.00  0.00    -0.377 OA
ATOM     32  C   UNL     1       7.842   1.609   3.113  0.00  0.00    +0.179 C 
ATOM     33  C   UNL     1       7.175   0.240   2.978  0.00  0.00    +0.136 C 
ENDBRANCH  25  26
ENDBRANCH   9  25
TORSDOF 5
