REMARK  Name = ZINC37082892
REMARK  5 active torsions:
REMARK  status: ('A' for Active; 'I' for Inactive)
REMARK    1  A    between atoms: C_1  and  C_2
REMARK    2  A    between atoms: C_2  and  C_3
REMARK    3  A    between atoms: N_9  and  S_10
REMARK    4  A    between atoms: S_10  and  C_13
REMARK    5  A    between atoms: C_15  and  N_21
REMARK                            x       y       z     vdW  Elec       q    Type
REMARK                         _______ _______ _______ _____ _____    ______ ____
ROOT
ATOM      1  S   UNL     1      -1.347   1.041   2.260  0.00  0.00    +0.064 S 
ATOM      2  O   UNL     1      -0.969   2.149   1.456  0.00  0.00    -0.153 OA
ATOM      3  O   UNL     1      -2.113   1.188   3.449  0.00  0.00    -0.153 OA
ENDROOT
BRANCH   1   4
ATOM      4  C   UNL     1       0.142   0.219   2.719  0.00  0.00    +0.144 A 
ATOM      5  C   UNL     1       1.361   0.711   2.292  0.00  0.00    +0.054 A 
ATOM      6  C   UNL     1       2.535   0.064   2.654  0.00  0.00    +0.028 A 
ATOM      7  C   UNL     1       2.482  -1.077   3.445  0.00  0.00    +0.045 A 
ATOM      8  C   UNL     1       1.261  -1.565   3.870  0.00  0.00    +0.080 A 
ATOM      9  C   UNL     1       0.091  -0.914   3.511  0.00  0.00    +0.168 A 
ATOM     10  F   UNL     1      -1.101  -1.390   3.932  0.00  0.00    -0.202 F 
ATOM     11 CL   UNL     1       1.193  -2.991   4.858  0.00  0.00    -0.080 Cl
BRANCH   6  12
ATOM     12  N   UNL     1       3.769   0.560   2.223  0.00  0.00    -0.358 N 
ATOM     13  H   UNL     1       3.805   1.357   1.671  0.00  0.00    +0.142 HD
ATOM     14  H   UNL     1       4.589   0.108   2.476  0.00  0.00    +0.142 HD
ENDBRANCH   6  12
ENDBRANCH   1   4
BRANCH   1  20
ATOM     15  C   UNL     1      -1.740  -0.256  -0.094  0.00  0.00    +0.080 C 
ATOM     16  C   UNL     1      -1.612  -1.770  -0.290  0.00  0.00    +0.021 C 
ATOM     17  C   UNL     1      -2.938  -2.441   0.075  0.00  0.00    +0.003 C 
ATOM     18  C   UNL     1      -3.261  -2.170   1.546  0.00  0.00    +0.017 C 
ATOM     19  C   UNL     1      -3.407  -0.660   1.763  0.00  0.00    +0.110 C 
ATOM     20  N   UNL     1      -2.192   0.010   1.278  0.00  0.00    -0.173 NA
BRANCH  15  22
ATOM     21  C   UNL     1       0.095   0.118  -1.749  0.00  0.00    +0.005 C 
ATOM     22  C   UNL     1      -0.380   0.407  -0.323  0.00  0.00    +0.017 C 
ENDBRANCH  15  22
ENDBRANCH   1  20
TORSDOF 4
