REMARK  Name = ZINC08915255
REMARK  5 active torsions:
REMARK  status: ('A' for Active; 'I' for Inactive)
REMARK    1  A    between atoms: C_1  and  C_2
REMARK    2  A    between atoms: C_9  and  C_13
REMARK    3  A    between atoms: N_15  and  C_16
REMARK    4  A    between atoms: C_17  and  C_25
REMARK    5  A    between atoms: C_25  and  C_27
REMARK                            x       y       z     vdW  Elec       q    Type
REMARK                         _______ _______ _______ _____ _____    ______ ____
ROOT
ATOM      1  C   UNL     1      -1.269   3.473  -0.074  0.00  0.00    +0.205 A 
ATOM      2  C   UNL     1      -2.428   4.233   0.011  0.00  0.00    +0.091 A 
ATOM      3  C   UNL     1      -1.992   5.634  -0.159  0.00  0.00    +0.033 A 
ATOM      4  C   UNL     1      -2.654   6.857  -0.173  0.00  0.00    +0.012 A 
ATOM      5  C   UNL     1      -1.937   8.019  -0.367  0.00  0.00    +0.001 A 
ATOM      6  C   UNL     1      -0.563   7.968  -0.546  0.00  0.00    +0.004 A 
ATOM      7  C   UNL     1       0.103   6.760  -0.533  0.00  0.00    +0.047 A 
ATOM      8  C   UNL     1      -0.603   5.579  -0.340  0.00  0.00    +0.138 A 
ATOM      9  O   UNL     1      -0.222   4.284  -0.282  0.00  0.00    -0.440 OA
ENDROOT
BRANCH   1  12
ATOM     10  C   UNL     1      -0.010   1.482   0.029  0.00  0.00    +0.286 C 
ATOM     11  O   UNL     1       1.014   2.135   0.023  0.00  0.00    -0.266 OA
ATOM     12  N   UNL     1      -1.206   2.103   0.032  0.00  0.00    -0.249 N 
ATOM     13  H   UNL     1      -2.022   1.585   0.108  0.00  0.00    +0.158 HD
BRANCH  10  22
ATOM     14  C   UNL     1      -3.690  -4.805   0.400  0.00  0.00    +0.044 C 
ATOM     15  C   UNL     1      -2.372  -4.086   0.273  0.00  0.00    -0.047 A 
ATOM     16  C   UNL     1      -1.198  -4.819   0.165  0.00  0.00    +0.004 A 
ATOM     17  C   UNL     1       0.007  -4.183   0.049  0.00  0.00    +0.015 A 
ATOM     18  C   UNL     1       0.053  -2.789   0.039  0.00  0.00    +0.064 A 
ATOM     19  C   UNL     1       1.333  -2.065  -0.085  0.00  0.00    +0.193 A 
ATOM     20  O   UNL     1       2.394  -2.656  -0.182  0.00  0.00    -0.287 OA
ATOM     21  C   UNL     1       1.266  -0.596  -0.084  0.00  0.00    +0.103 A 
ATOM     22  C   UNL     1       0.056   0.002   0.029  0.00  0.00    +0.194 A 
ATOM     23  O   UNL     1      -1.085  -0.694   0.144  0.00  0.00    -0.450 OA
ATOM     24  C   UNL     1      -1.131  -2.040   0.148  0.00  0.00    +0.140 A 
ATOM     25  C   UNL     1      -2.345  -2.708   0.266  0.00  0.00    +0.050 A 
ENDBRANCH  10  22
ENDBRANCH   1  12
BRANCH   2  26
ATOM     26  C   UNL     1      -3.790   3.749   0.226  0.00  0.00    +0.199 C 
ATOM     27  O   UNL     1      -4.193   3.548   1.357  0.00  0.00    -0.286 OA
BRANCH  26  28
ATOM     28  C   UNL     1      -4.679   3.504  -0.930  0.00  0.00    +0.022 A 
ATOM     29  C   UNL     1      -4.190   3.637  -2.231  0.00  0.00    +0.012 A 
ATOM     30  C   UNL     1      -5.024   3.403  -3.305  0.00  0.00    +0.001 A 
ATOM     31  C   UNL     1      -6.344   3.046  -3.096  0.00  0.00    +0.000 A 
ATOM     32  C   UNL     1      -6.836   2.917  -1.809  0.00  0.00    +0.001 A 
ATOM     33  C   UNL     1      -6.012   3.143  -0.726  0.00  0.00    +0.012 A 
ENDBRANCH  26  28
ENDBRANCH   2  26
TORSDOF 4
