REMARK  Name = ZINC12313934
REMARK  5 active torsions:
REMARK  status: ('A' for Active; 'I' for Inactive)
REMARK    1  A    between atoms: C_4  and  C_6
REMARK    2  A    between atoms: C_4  and  N_71
REMARK    3  A    between atoms: C_11  and  N_69
REMARK    4  A    between atoms: C_16  and  C_19
REMARK    5  A    between atoms: N_21  and  C_22
REMARK                            x       y       z     vdW  Elec       q    Type
REMARK                         _______ _______ _______ _____ _____    ______ ____
ROOT
ATOM      1  C   UNL     1       0.143   1.266  -0.220  0.00  0.00    +0.205 C 
ATOM      2  O   UNL     1      -1.003   1.594   0.003  0.00  0.00    -0.277 OA
ATOM      3  N   UNL     1       0.416   0.011  -0.629  0.00  0.00    -0.303 N 
ATOM      4  C   UNL     1      -0.644  -1.005  -0.689  0.00  0.00    +0.106 C 
ATOM      5  C   UNL     1      -0.659  -1.613  -2.099  0.00  0.00    +0.004 C 
ATOM      6  C   UNL     1       0.738  -2.142  -2.436  0.00  0.00    -0.066 C 
ATOM      7  C   UNL     1       1.740  -0.985  -2.421  0.00  0.00    +0.004 C 
ATOM      8  C   UNL     1       1.781  -0.368  -1.020  0.00  0.00    +0.106 C 
ENDROOT
BRANCH   6  14
ATOM      9  C   UNL     1       2.080  -3.081  -4.218  0.00  0.00    -0.078 C 
ATOM     10  C   UNL     1       2.037  -3.583  -5.663  0.00  0.00    -0.006 C 
ATOM     11  C   UNL     1       1.145  -4.825  -5.739  0.00  0.00    +0.071 C 
ATOM     12  C   UNL     1      -0.253  -4.473  -5.222  0.00  0.00    -0.006 C 
ATOM     13  C   UNL     1      -0.143  -3.945  -3.789  0.00  0.00    -0.078 C 
ATOM     14  N   UNL     1       0.708  -2.736  -3.788  0.00  0.00    +0.382 N 
ATOM     15  H   UNL     1       0.315  -2.052  -4.445  0.00  0.00    -0.081 HD
BRANCH  11  16
ATOM     16  C   UNL     1       1.049  -5.289  -7.170  0.00  0.00    +0.216 C 
ATOM     17  O   UNL     1      -0.029  -5.335  -7.722  0.00  0.00    -0.276 OA
ATOM     18  N   UNL     1       2.163  -5.654  -7.836  0.00  0.00    -0.312 N 
ATOM     19  H   UNL     1       3.026  -5.618  -7.394  0.00  0.00    +0.149 HD
BRANCH  18  20
ATOM     20  C   UNL     1       2.071  -6.105  -9.226  0.00  0.00    +0.073 C 
ATOM     21  C   UNL     1       2.884  -7.339  -9.624  0.00  0.00    +0.024 C 
ATOM     22  C   UNL     1       3.314  -5.950 -10.104  0.00  0.00    +0.024 C 
ENDBRANCH  18  20
ENDBRANCH  11  16
ENDBRANCH   6  14
BRANCH   1  26
ATOM     23  C   UNL     1       0.043   4.335  -0.276  0.00  0.00    -0.001 C 
ATOM     24  C   UNL     1       0.908   4.180  -1.544  0.00  0.00    -0.001 C 
ATOM     25  C   UNL     1       1.682   2.859  -1.389  0.00  0.00    -0.003 C 
ATOM     26  C   UNL     1       1.261   2.258  -0.033  0.00  0.00    +0.013 C 
ATOM     27  C   UNL     1       0.774   3.476   0.791  0.00  0.00    -0.003 C 
BRANCH  26  32
ATOM     28  C   UNL     1       3.549   2.564   0.742  0.00  0.00    -0.077 C 
ATOM     29  C   UNL     1       4.410   1.943   1.871  0.00  0.00    -0.020 C 
ATOM     30  C   UNL     1       3.349   1.393   2.852  0.00  0.00    -0.020 C 
ATOM     31  C   UNL     1       2.073   1.219   2.008  0.00  0.00    -0.077 C 
ATOM     32  N   UNL     1       2.428   1.616   0.645  0.00  0.00    +0.389 N 
ATOM     33  H   UNL     1       2.717   0.790   0.108  0.00  0.00    -0.080 HD
ENDBRANCH  26  32
ENDBRANCH   1  26
TORSDOF 5
