REMARK  Name = ZINC00713533
REMARK  9 active torsions:
REMARK  status: ('A' for Active; 'I' for Inactive)
REMARK    1  A    between atoms: C_1  and  C_2
REMARK    2  A    between atoms: C_2  and  C_35
REMARK    3  A    between atoms: C_6  and  C_24
REMARK    4  A    between atoms: C_8  and  C_22
REMARK    5  A    between atoms: C_9  and  N_21
REMARK    6  A    between atoms: N_10  and  C_11
REMARK    7  A    between atoms: C_15  and  C_17
REMARK    8  A    between atoms: C_27  and  O_30
REMARK    9  A    between atoms: O_30  and  C_31
REMARK                            x       y       z     vdW  Elec       q    Type
REMARK                         _______ _______ _______ _____ _____    ______ ____
ROOT
ATOM      1  C   UNL     1       3.279   5.562   2.066  0.00  0.00    +0.011 C 
ATOM      2  C   UNL     1       3.545   5.815   0.581  0.00  0.00    -0.023 C 
ATOM      3  C   UNL     1       2.393   5.248  -0.252  0.00  0.00    +0.058 C 
ATOM      4  C   UNL     1       1.108   5.946   0.120  0.00  0.00    +0.025 C 
ATOM      5  C   UNL     1       1.112   7.229   0.534  0.00  0.00    +0.025 C 
ATOM      6  C   UNL     1      -0.172   7.927   0.905  0.00  0.00    +0.097 C 
ATOM      7  C   UNL     1      -1.363   7.200   0.354  0.00  0.00    +0.077 C 
ATOM      8  C   UNL     1      -1.270   5.910  -0.058  0.00  0.00    +0.107 C 
ATOM      9  N   UNL     1      -0.066   5.247   0.018  0.00  0.00    -0.260 N 
ATOM     10  C   UNL     1       2.312   7.954   0.638  0.00  0.00    +0.162 C 
ATOM     11  O   UNL     1       2.279   9.112   1.004  0.00  0.00    -0.292 OA
ATOM     12  C   UNL     1       3.635   7.322   0.323  0.00  0.00    +0.086 C 
ATOM     13  C   UNL     1       4.856   5.140   0.172  0.00  0.00    +0.011 C 
ENDROOT
BRANCH   9  14
ATOM     14  C   UNL     1      -0.040   3.847  -0.005  0.00  0.00    +0.040 A 
ATOM     15  C   UNL     1       0.046   3.172  -1.216  0.00  0.00    +0.024 A 
ATOM     16  C   UNL     1       0.071   1.792  -1.235  0.00  0.00    +0.002 A 
ATOM     17  C   UNL     1       0.010   1.081  -0.050  0.00  0.00    +0.012 A 
ATOM     18  C   UNL     1      -0.081   1.750   1.157  0.00  0.00    +0.057 A 
ATOM     19  C   UNL     1      -0.101   3.131   1.183  0.00  0.00    +0.036 A 
BRANCH  18  20
ATOM     20  C   UNL     1      -0.153   0.972   2.446  0.00  0.00    +0.417 C 
ATOM     21  F   UNL     1      -0.111  -0.398   2.166  0.00  0.00    -0.166 F 
ATOM     22  F   UNL     1       0.932   1.315   3.259  0.00  0.00    -0.166 F 
ATOM     23  F   UNL     1      -1.347   1.276   3.108  0.00  0.00    -0.166 F 
ENDBRANCH  18  20
ENDBRANCH   9  14
BRANCH   6  24
ATOM     24  C   UNL     1      -0.283   7.990   2.406  0.00  0.00    -0.034 A 
ATOM     25  C   UNL     1      -0.345   6.821   3.143  0.00  0.00    +0.008 A 
ATOM     26  C   UNL     1      -0.441   6.876   4.520  0.00  0.00    +0.046 A 
ATOM     27  C   UNL     1      -0.487   8.105   5.163  0.00  0.00    +0.120 A 
ATOM     28  C   UNL     1      -0.430   9.276   4.421  0.00  0.00    +0.046 A 
ATOM     29  C   UNL     1      -0.328   9.216   3.044  0.00  0.00    +0.008 A 
BRANCH  27  30
ATOM     30  O   UNL     1      -0.587   8.161   6.517  0.00  0.00    -0.495 OA
ATOM     31  C   UNL     1      -0.641   6.916   7.216  0.00  0.00    +0.277 C 
ENDBRANCH  27  30
ENDBRANCH   6  24
BRANCH   8  32
ATOM     32  N   UNL     1      -2.379   5.264  -0.550  0.00  0.00    -0.345 N 
ATOM     33  H   UNL     1      -2.334   4.320  -0.767  0.00  0.00    +0.144 HD
ATOM     34  H   UNL     1      -3.206   5.753  -0.682  0.00  0.00    +0.144 HD
ENDBRANCH   8  32
BRANCH   7  35
ATOM     35  C   UNL     1      -2.621   7.880   0.260  0.00  0.00    +0.099 C 
ATOM     36  N   UNL     1      -3.618   8.418   0.185  0.00  0.00    -0.191 NA
ENDBRANCH   7  35
TORSDOF 6
