REMARK  Name = ZINC15085505
REMARK  5 active torsions:
REMARK  status: ('A' for Active; 'I' for Inactive)
REMARK    1  A    between atoms: C_1  and  S_2
REMARK    2  A    between atoms: S_2  and  C_3
REMARK    3  A    between atoms: C_14  and  C_22
REMARK    4  A    between atoms: C_16  and  C_20
REMARK    5  A    between atoms: C_17  and  N_19
REMARK                            x       y       z     vdW  Elec       q    Type
REMARK                         _______ _______ _______ _____ _____    ______ ____
ROOT
ATOM      1  C   UNL     1      -5.346   1.359  -4.384  0.00  0.00    +0.137 A 
ATOM      2  N   UNL     1      -4.316   0.552  -4.547  0.00  0.00    -0.215 NA
ATOM      3  C   UNL     1      -3.537   0.175  -3.535  0.00  0.00    +0.153 A 
ATOM      4  C   UNL     1      -3.891   0.699  -2.287  0.00  0.00    +0.100 A 
ATOM      5  S   UNL     1      -5.313   1.687  -2.679  0.00  0.00    -0.056 S 
ATOM      6  C   UNL     1      -3.184   0.408  -1.125  0.00  0.00    +0.157 A 
ATOM      7  C   UNL     1      -2.088  -0.435  -1.213  0.00  0.00    +0.073 A 
ATOM      8  C   UNL     1      -1.736  -0.958  -2.459  0.00  0.00    +0.258 A 
ATOM      9  O   UNL     1      -0.770  -1.702  -2.540  0.00  0.00    -0.267 OA
ATOM     10  N   UNL     1      -2.428  -0.665  -3.569  0.00  0.00    -0.306 N 
ATOM     11  H   UNL     1      -2.150  -1.049  -4.415  0.00  0.00    +0.170 HD
ATOM     12  C   UNL     1      -1.287  -0.785   0.010  0.00  0.00    +0.105 C 
ATOM     13  C   UNL     1      -2.066  -0.448   1.251  0.00  0.00    +0.098 C 
ATOM     14  C   UNL     1      -3.135   0.376   1.209  0.00  0.00    +0.199 C 
ATOM     15  O   UNL     1      -3.556   0.935   0.062  0.00  0.00    -0.440 OA
ENDROOT
BRANCH  12  16
ATOM     16  C   UNL     1       0.002  -0.004   0.002  0.00  0.00    -0.016 A 
ATOM     17  C   UNL     1       1.222  -0.663  -0.013  0.00  0.00    +0.007 A 
ATOM     18  C   UNL     1       2.382   0.096  -0.020  0.00  0.00    +0.020 A 
ATOM     19  C   UNL     1       2.285   1.475  -0.012  0.00  0.00    +0.111 A 
ATOM     20  N   UNL     1       1.107   2.068   0.003  0.00  0.00    -0.263 NA
ATOM     21  C   UNL     1      -0.017   1.378   0.010  0.00  0.00    +0.115 A 
ENDBRANCH  12  16
BRANCH  14  22
ATOM     22  N   UNL     1      -3.812   0.650   2.371  0.00  0.00    -0.328 N 
ATOM     23  H   UNL     1      -4.582   1.240   2.357  0.00  0.00    +0.145 HD
ATOM     24  H   UNL     1      -3.521   0.253   3.207  0.00  0.00    +0.145 HD
ENDBRANCH  14  22
BRANCH   1  26
ATOM     25  C   UNL     1      -5.808   1.152  -7.074  0.00  0.00    +0.092 C 
ATOM     26  S   UNL     1      -6.476   1.958  -5.597  0.00  0.00    -0.102 S 
ENDBRANCH   1  26
BRANCH  13  27
ATOM     27  C   UNL     1      -1.667  -1.012   2.505  0.00  0.00    +0.101 C 
ATOM     28  N   UNL     1      -1.351  -1.460   3.501  0.00  0.00    -0.191 NA
ENDBRANCH  13  27
TORSDOF 4
