REMARK  Name = ZINC40357016
REMARK  6 active torsions:
REMARK  status: ('A' for Active; 'I' for Inactive)
REMARK    1  A    between atoms: C_1  and  C_2
REMARK    2  A    between atoms: C_2  and  C_3
REMARK    3  A    between atoms: C_6  and  C_9
REMARK    4  A    between atoms: C_6  and  N_11
REMARK    5  A    between atoms: C_12  and  C_14
REMARK    6  A    between atoms: C_17  and  C_21
REMARK                            x       y       z     vdW  Elec       q    Type
REMARK                         _______ _______ _______ _____ _____    ______ ____
ROOT
ATOM      1  N   UNL     1      -2.785  -2.779   2.327  0.00  0.00    -0.293 N 
ATOM      2  C   UNL     1      -2.638  -4.116   2.418  0.00  0.00    +0.245 C 
ATOM      3  O   UNL     1      -3.122  -4.840   1.571  0.00  0.00    -0.270 OA
ATOM      4  H   UNL     1      -2.398  -2.201   3.003  0.00  0.00    +0.151 HD
ENDROOT
BRANCH   2   5
ATOM      5  C   UNL     1      -1.888  -4.701   3.550  0.00  0.00    +0.039 A 
ATOM      6  C   UNL     1      -1.336  -3.873   4.528  0.00  0.00    +0.013 A 
ATOM      7  C   UNL     1      -0.637  -4.424   5.582  0.00  0.00    +0.007 A 
ATOM      8  C   UNL     1      -0.483  -5.796   5.672  0.00  0.00    -0.015 A 
ATOM      9  C   UNL     1      -1.028  -6.625   4.705  0.00  0.00    +0.127 A 
ATOM     10  C   UNL     1      -1.734  -6.085   3.647  0.00  0.00    +0.051 A 
ATOM     11  F   UNL     1      -0.872  -7.964   4.799  0.00  0.00    -0.205 F 
ATOM     12  C   UNL     1       0.281  -6.391   6.827  0.00  0.00    +0.047 C 
ENDBRANCH   2   5
BRANCH   1  16
ATOM     13  C   UNL     1      -1.433  -0.534   0.013  0.00  0.00    -0.011 C 
ATOM     14  C   UNL     1      -2.110  -0.145   1.329  0.00  0.00    +0.006 C 
ATOM     15  C   UNL     1      -3.546  -0.675   1.340  0.00  0.00    +0.041 C 
ATOM     16  C   UNL     1      -3.528  -2.199   1.206  0.00  0.00    +0.121 C 
ATOM     17  C   UNL     1      -2.851  -2.587  -0.110  0.00  0.00    +0.041 C 
ATOM     18  C   UNL     1      -1.416  -2.058  -0.121  0.00  0.00    +0.006 C 
BRANCH  13  20
ATOM     19  C   UNL     1      -0.019   1.526   0.010  0.00  0.00    +0.004 C 
ATOM     20  C   UNL     1       0.002  -0.004   0.002  0.00  0.00    -0.000 C 
ENDBRANCH  13  20
BRANCH  16  21
ATOM     21  C   UNL     1      -4.909  -2.708   1.216  0.00  0.00    +0.088 C 
ATOM     22  N   UNL     1      -5.975  -3.102   1.224  0.00  0.00    -0.194 NA
ENDBRANCH  16  21
ENDBRANCH   1  16
TORSDOF 4
