REMARK  Name = ZINC08566304
REMARK  7 active torsions:
REMARK  status: ('A' for Active; 'I' for Inactive)
REMARK    1  A    between atoms: C_1  and  O_2
REMARK    2  A    between atoms: O_2  and  C_3
REMARK    3  A    between atoms: C_5  and  C_10
REMARK    4  A    between atoms: C_8  and  O_9
REMARK    5  A    between atoms: C_13  and  C_24
REMARK    6  A    between atoms: C_19  and  N_23
REMARK    7  A    between atoms: C_20  and  C_21
REMARK                            x       y       z     vdW  Elec       q    Type
REMARK                         _______ _______ _______ _____ _____    ______ ____
ROOT
ATOM      1  C   UNL     1      -4.942   0.367   0.030  0.00  0.00    +0.102 C 
ATOM      2  C   UNL     1      -5.764  -0.124   1.193  0.00  0.00    +0.054 A 
ATOM      3  C   UNL     1      -5.561   0.066   2.563  0.00  0.00    +0.100 A 
ATOM      4  N   UNL     1      -6.536  -0.548   3.207  0.00  0.00    -0.171 NA
ATOM      5  N   UNL     1      -7.384  -1.144   2.261  0.00  0.00    -0.246 N 
ATOM      6  H   UNL     1      -8.182  -1.661   2.455  0.00  0.00    +0.192 HD
ATOM      7  C   UNL     1      -6.895  -0.872   1.033  0.00  0.00    +0.223 A 
ATOM      8  O   UNL     1      -7.369  -1.231  -0.186  0.00  0.00    -0.423 OA
ATOM      9  C   UNL     1      -6.856  -0.606  -1.265  0.00  0.00    +0.200 C 
ATOM     10  C   UNL     1      -5.737   0.152  -1.234  0.00  0.00    +0.098 C 
ENDROOT
BRANCH   3  11
ATOM     11  C   UNL     1      -4.447   0.824   3.183  0.00  0.00    +0.006 A 
ATOM     12  C   UNL     1      -4.041   2.041   2.638  0.00  0.00    +0.014 A 
ATOM     13  C   UNL     1      -3.005   2.745   3.216  0.00  0.00    +0.050 A 
ATOM     14  C   UNL     1      -2.364   2.246   4.340  0.00  0.00    +0.166 A 
ATOM     15  C   UNL     1      -2.765   1.029   4.889  0.00  0.00    +0.167 A 
ATOM     16  C   UNL     1      -3.807   0.323   4.315  0.00  0.00    +0.059 A 
ATOM     17  O   UNL     1      -1.984   0.763   5.977  0.00  0.00    -0.453 OA
ATOM     18  C   UNL     1      -0.837   1.623   5.847  0.00  0.00    +0.466 C 
ATOM     19  O   UNL     1      -1.332   2.740   5.085  0.00  0.00    -0.453 OA
ENDBRANCH   3  11
BRANCH   1  22
ATOM     20  C   UNL     1      -1.255  -0.448  -0.102  0.00  0.00    +0.162 A 
ATOM     21  C   UNL     1      -2.443   0.263  -0.035  0.00  0.00    +0.054 A 
ATOM     22  C   UNL     1      -3.651  -0.408  -0.043  0.00  0.00    -0.031 A 
ATOM     23  C   UNL     1      -3.679  -1.788  -0.118  0.00  0.00    +0.008 A 
ATOM     24  C   UNL     1      -2.498  -2.503  -0.185  0.00  0.00    +0.049 A 
ATOM     25  C   UNL     1      -1.283  -1.837  -0.183  0.00  0.00    +0.158 A 
BRANCH  20  27
ATOM     26  C   UNL     1      -0.113   1.636  -0.009  0.00  0.00    +0.277 C 
ATOM     27  O   UNL     1      -0.065   0.210  -0.094  0.00  0.00    -0.491 OA
ENDBRANCH  20  27
BRANCH  25  28
ATOM     28  O   UNL     1      -0.120  -2.539  -0.255  0.00  0.00    -0.503 OA
ATOM     29  H   UNL     1       0.239  -2.794   0.606  0.00  0.00    +0.292 HD
ENDBRANCH  25  28
ENDBRANCH   1  22
BRANCH   9  30
ATOM     30  N   UNL     1      -7.508  -0.746  -2.465  0.00  0.00    -0.328 N 
ATOM     31  H   UNL     1      -8.314  -1.283  -2.519  0.00  0.00    +0.145 HD
ATOM     32  H   UNL     1      -7.163  -0.308  -3.258  0.00  0.00    +0.145 HD
ENDBRANCH   9  30
BRANCH  10  33
ATOM     33  C   UNL     1      -5.289   0.774  -2.444  0.00  0.00    +0.101 C 
ATOM     34  N   UNL     1      -4.934   1.267  -3.404  0.00  0.00    -0.191 NA
ENDBRANCH  10  33
TORSDOF 6
