REMARK  Name = ZINC62447311
REMARK  4 active torsions:
REMARK  status: ('A' for Active; 'I' for Inactive)
REMARK    1  A    between atoms: C_1  and  N_2
REMARK    2  A    between atoms: N_2  and  S_3
REMARK    3  A    between atoms: S_3  and  N_6
REMARK    4  A    between atoms: C_15  and  C_17
REMARK                            x       y       z     vdW  Elec       q    Type
REMARK                         _______ _______ _______ _____ _____    ______ ____
ROOT
ATOM      1  N   UNL     1       2.306  -0.405  -1.341  0.00  0.00    -0.155 NA
ATOM      2  C   UNL     1       2.714   0.816  -2.056  0.00  0.00    +0.116 C 
ATOM      3  C   UNL     1       3.205   1.825  -1.020  0.00  0.00    +0.052 C 
ATOM      4  C   UNL     1       4.163   1.179  -0.053  0.00  0.00    -0.041 A 
ATOM      5  C   UNL     1       5.014   2.010   0.664  0.00  0.00    +0.004 A 
ATOM      6  C   UNL     1       5.908   1.483   1.572  0.00  0.00    +0.000 A 
ATOM      7  C   UNL     1       5.960   0.117   1.774  0.00  0.00    +0.000 A 
ATOM      8  C   UNL     1       5.118  -0.712   1.060  0.00  0.00    +0.006 A 
ATOM      9  C   UNL     1       4.221  -0.183   0.141  0.00  0.00    -0.021 A 
ATOM     10  C   UNL     1       3.348  -1.143  -0.619  0.00  0.00    +0.142 C 
ENDROOT
BRANCH  10  11
ATOM     11  C   UNL     1       2.704  -2.105   0.345  0.00  0.00    -0.006 A 
ATOM     12  C   UNL     1       1.844  -1.636   1.320  0.00  0.00    +0.007 A 
ATOM     13  C   UNL     1       1.253  -2.518   2.204  0.00  0.00    +0.000 A 
ATOM     14  C   UNL     1       1.522  -3.872   2.114  0.00  0.00    +0.001 A 
ATOM     15  C   UNL     1       2.382  -4.342   1.140  0.00  0.00    +0.020 A 
ATOM     16  C   UNL     1       2.969  -3.460   0.251  0.00  0.00    +0.046 A 
ATOM     17 CL   UNL     1       4.044  -4.051  -0.977  0.00  0.00    -0.083 Cl
ENDBRANCH  10  11
BRANCH   1  18
ATOM     18  S   UNL     1       0.732  -0.920  -1.347  0.00  0.00    +0.098 S 
ATOM     19  O   UNL     1       0.765  -2.329  -1.161  0.00  0.00    -0.141 OA
ATOM     20  O   UNL     1       0.110  -0.314  -2.471  0.00  0.00    -0.141 OA
BRANCH  18  22
ATOM     21  C   UNL     1      -0.184   1.165   0.111  0.00  0.00    +0.129 C 
ATOM     22  N   UNL     1       0.004  -0.283  -0.003  0.00  0.00    -0.183 NA
ATOM     23  H   UNL     1      -0.298  -0.869   0.709  0.00  0.00    +0.149 HD
ENDBRANCH  18  22
ENDBRANCH   1  18
TORSDOF 3
