REMARK  Name = ZINC01203477
REMARK  7 active torsions:
REMARK  status: ('A' for Active; 'I' for Inactive)
REMARK    1  A    between atoms: C_1  and  C_2
REMARK    2  A    between atoms: C_5  and  N_11
REMARK    3  A    between atoms: C_7  and  N_8
REMARK    4  A    between atoms: N_11  and  C_12
REMARK    5  A    between atoms: C_14  and  O_24
REMARK    6  A    between atoms: C_16  and  O_23
REMARK    7  A    between atoms: C_18  and  O_22
REMARK                            x       y       z     vdW  Elec       q    Type
REMARK                         _______ _______ _______ _____ _____    ______ ____
ROOT
ATOM      1  N   UNL     1       2.298   3.905   0.474  0.00  0.00    -0.317 N 
ATOM      2  H   UNL     1       2.250   4.853   0.675  0.00  0.00    +0.149 HD
ENDROOT
BRANCH   1   7
ATOM      3  C   UNL     1      -2.455   0.961  -0.474  0.00  0.00    +0.046 C 
ATOM      4  C   UNL     1      -1.192   1.743  -0.219  0.00  0.00    -0.020 A 
ATOM      5  C   UNL     1       0.035   1.107  -0.272  0.00  0.00    +0.007 A 
ATOM      6  C   UNL     1       1.194   1.822  -0.044  0.00  0.00    +0.023 A 
ATOM      7  C   UNL     1       1.127   3.179   0.244  0.00  0.00    +0.031 A 
ATOM      8  C   UNL     1      -0.107   3.813   0.302  0.00  0.00    +0.056 A 
ATOM      9  C   UNL     1      -1.263   3.092   0.073  0.00  0.00    +0.131 A 
BRANCH   9  10
ATOM     10  N   UNL     1      -2.579   3.767   0.135  0.00  0.00    +0.057 N 
ATOM     11  O   UNL     1      -2.638   4.976   0.270  0.00  0.00    -0.126 OA
ATOM     12  O   UNL     1      -3.603   3.113   0.052  0.00  0.00    -0.126 OA
ENDBRANCH   9  10
ENDBRANCH   1   7
BRANCH   1  13
ATOM     13  C   UNL     1       3.599   3.235   0.412  0.00  0.00    +0.235 C 
ATOM     14  C   UNL     1       4.642   4.197  -0.164  0.00  0.00    +0.192 C 
ATOM     15  C   UNL     1       4.784   5.402   0.771  0.00  0.00    +0.178 C 
ATOM     16  C   UNL     1       5.160   4.907   2.171  0.00  0.00    +0.171 C 
ATOM     17  C   UNL     1       4.097   3.918   2.656  0.00  0.00    +0.196 C 
ATOM     18  O   UNL     1       3.994   2.838   1.727  0.00  0.00    -0.354 OA
BRANCH  16  19
ATOM     19  O   UNL     1       6.431   4.257   2.122  0.00  0.00    -0.387 OA
ATOM     20  H   UNL     1       6.732   3.917   2.976  0.00  0.00    +0.210 HD
ENDBRANCH  16  19
BRANCH  15  21
ATOM     21  O   UNL     1       5.808   6.270   0.280  0.00  0.00    -0.386 OA
ATOM     22  H   UNL     1       5.952   7.056   0.824  0.00  0.00    +0.210 HD
ENDBRANCH  15  21
BRANCH  14  23
ATOM     23  O   UNL     1       4.221   4.641  -1.455  0.00  0.00    -0.385 OA
ATOM     24  H   UNL     1       4.106   3.927  -2.098  0.00  0.00    +0.210 HD
ENDBRANCH  14  23
ENDBRANCH   1  13
TORSDOF 6
