REMARK  Name = ZINC12508495
REMARK  9 active torsions:
REMARK  status: ('A' for Active; 'I' for Inactive)
REMARK    1  A    between atoms: C_1  and  C_2
REMARK    2  A    between atoms: C_2  and  C_3
REMARK    3  A    between atoms: C_6  and  C_15
REMARK    4  A    between atoms: C_13  and  O_14
REMARK    5  A    between atoms: C_15  and  N_16
REMARK    6  A    between atoms: N_16  and  C_17
REMARK    7  A    between atoms: C_20  and  N_23
REMARK    8  A    between atoms: N_23  and  S_24
REMARK    9  A    between atoms: S_24  and  C_27
REMARK                            x       y       z     vdW  Elec       q    Type
REMARK                         _______ _______ _______ _____ _____    ______ ____
ROOT
ATOM      1  C   UNL     1      -8.703   3.489   1.674  0.00  0.00    -0.005 A 
ATOM      2  C   UNL     1      -7.569   3.944   1.066  0.00  0.00    +0.019 A 
ATOM      3  C   UNL     1      -7.662   4.897   0.046  0.00  0.00    +0.023 A 
ATOM      4  C   UNL     1      -6.462   5.403  -0.625  0.00  0.00    -0.013 A 
ATOM      5  C   UNL     1      -6.619   6.324  -1.612  0.00  0.00    +0.097 A 
ATOM      6  C   UNL     1      -7.911   6.768  -1.958  0.00  0.00    +0.338 A 
ATOM      7  O   UNL     1      -8.037   7.594  -2.844  0.00  0.00    -0.245 OA
ATOM      8  O   UNL     1      -9.007   6.304  -1.336  0.00  0.00    -0.422 OA
ATOM      9  C   UNL     1      -8.921   5.388  -0.347  0.00  0.00    +0.143 A 
ATOM     10  C   UNL     1     -10.062   4.920   0.285  0.00  0.00    +0.092 A 
ATOM     11  C   UNL     1      -9.953   3.967   1.286  0.00  0.00    +0.124 A 
ENDROOT
BRANCH   1  13
ATOM     12  C   UNL     1      -8.719   3.157   4.131  0.00  0.00    +0.009 C 
ATOM     13  C   UNL     1      -8.603   2.463   2.773  0.00  0.00    +0.035 C 
ENDBRANCH   1  13
BRANCH  11  14
ATOM     14  O   UNL     1     -11.071   3.506   1.901  0.00  0.00    -0.506 OA
ATOM     15  H   UNL     1     -11.333   4.019   2.678  0.00  0.00    +0.292 HD
ENDBRANCH  11  14
BRANCH   4  16
ATOM     16  C   UNL     1      -5.092   4.911  -0.236  0.00  0.00    +0.137 C 
BRANCH  16  17
ATOM     17  N   UNL     1      -4.845   3.609  -0.861  0.00  0.00    -0.340 N 
ATOM     18  H   UNL     1      -5.523   3.205  -1.425  0.00  0.00    +0.146 HD
BRANCH  17  19
ATOM     19  C   UNL     1      -3.630   2.948  -0.644  0.00  0.00    +0.027 A 
ATOM     20  C   UNL     1      -3.395   1.714  -1.237  0.00  0.00    +0.025 A 
ATOM     21  C   UNL     1      -2.197   1.063  -1.024  0.00  0.00    +0.026 A 
ATOM     22  C   UNL     1      -1.226   1.641  -0.217  0.00  0.00    +0.048 A 
ATOM     23  C   UNL     1      -1.462   2.873   0.380  0.00  0.00    +0.026 A 
ATOM     24  C   UNL     1      -2.659   3.527   0.162  0.00  0.00    +0.025 A 
BRANCH  22  25
ATOM     25  N   UNL     1      -0.010   0.981  -0.002  0.00  0.00    -0.221 N 
ATOM     26  H   UNL     1      -0.003   0.033   0.206  0.00  0.00    +0.173 HD
BRANCH  25  27
ATOM     27  S   UNL     1       1.416   1.816  -0.108  0.00  0.00    +0.040 S 
ATOM     28  O   UNL     1       1.270   2.900   0.799  0.00  0.00    -0.155 OA
ATOM     29  O   UNL     1       2.426   0.836   0.091  0.00  0.00    -0.155 OA
ATOM     30  C   UNL     1       1.470   2.431  -1.813  0.00  0.00    +0.218 C 
ENDBRANCH  25  27
ENDBRANCH  22  25
ENDBRANCH  17  19
ENDBRANCH  16  17
ENDBRANCH   4  16
TORSDOF 7
