REMARK  Name = ZINC35026151
REMARK  8 active torsions:
REMARK  status: ('A' for Active; 'I' for Inactive)
REMARK    1  A    between atoms: C_1  and  C_2
REMARK    2  A    between atoms: C_2  and  O_3
REMARK    3  A    between atoms: O_3  and  C_4
REMARK    4  A    between atoms: C_4  and  C_6
REMARK    5  A    between atoms: C_8  and  C_20
REMARK    6  A    between atoms: C_14  and  C_15
REMARK    7  A    between atoms: C_14  and  O_19
REMARK    8  A    between atoms: C_23  and  C_26
REMARK                            x       y       z     vdW  Elec       q    Type
REMARK                         _______ _______ _______ _____ _____    ______ ____
ROOT
ATOM      1  C   UNL     1      -2.128  -2.754   0.585  0.00  0.00    +0.181 C 
ATOM      2  C   UNL     1      -2.787  -3.951  -0.109  0.00  0.00    +0.123 C 
ATOM      3  N   UNL     1      -2.798  -5.092   0.808  0.00  0.00    -0.292 N 
ATOM      4  C   UNL     1      -2.846  -4.918   2.137  0.00  0.00    +0.302 C 
ATOM      5  O   UNL     1      -2.864  -5.900   2.854  0.00  0.00    -0.253 OA
ATOM      6  N   UNL     1      -2.875  -3.704   2.707  0.00  0.00    -0.264 N 
ATOM      7  C   UNL     1      -2.867  -2.479   1.898  0.00  0.00    +0.246 C 
ATOM      8  H   UNL     1      -2.771  -5.992   0.447  0.00  0.00    +0.151 HD
ATOM      9  H   UNL     1      -2.901  -3.633   3.674  0.00  0.00    +0.153 HD
ENDROOT
BRANCH   2  10
ATOM     10  C   UNL     1      -2.007  -4.307  -1.348  0.00  0.00    -0.026 A 
ATOM     11  C   UNL     1      -2.399  -3.805  -2.577  0.00  0.00    +0.007 A 
ATOM     12  C   UNL     1      -1.689  -4.127  -3.715  0.00  0.00    +0.019 A 
ATOM     13  C   UNL     1      -0.573  -4.961  -3.626  0.00  0.00    +0.052 A 
ATOM     14  C   UNL     1      -0.183  -5.464  -2.383  0.00  0.00    +0.019 A 
ATOM     15  C   UNL     1      -0.899  -5.130  -1.252  0.00  0.00    +0.007 A 
BRANCH  13  16
ATOM     16  C   UNL     1       0.168  -5.300  -4.803  0.00  0.00    +0.099 C 
ATOM     17  N   UNL     1       0.755  -5.569  -5.738  0.00  0.00    -0.191 NA
ENDBRANCH  13  16
ENDBRANCH   2  10
BRANCH   7  18
ATOM     18  C   UNL     1      -4.307  -2.058   1.596  0.00  0.00    +0.436 C 
ATOM     19  F   UNL     1      -4.957  -3.084   0.902  0.00  0.00    -0.166 F 
ATOM     20  F   UNL     1      -4.981  -1.806   2.796  0.00  0.00    -0.166 F 
ATOM     21  F   UNL     1      -4.299  -0.898   0.814  0.00  0.00    -0.166 F 
ENDBRANCH   7  18
BRANCH   1  22
ATOM     22  C   UNL     1      -0.683  -3.070   0.875  0.00  0.00    +0.317 C 
ATOM     23  O   UNL     1      -0.386  -3.671   1.880  0.00  0.00    -0.250 OA
BRANCH  22  24
ATOM     24  O   UNL     1       0.274  -2.684   0.016  0.00  0.00    -0.465 OA
BRANCH  24  26
ATOM     25  C   UNL     1       2.563  -2.499  -0.735  0.00  0.00    +0.048 C 
ATOM     26  C   UNL     1       1.622  -3.017   0.354  0.00  0.00    +0.229 C 
ENDBRANCH  24  26
ENDBRANCH  22  24
ENDBRANCH   1  22
BRANCH   7  27
ATOM     27  O   UNL     1      -2.202  -1.433   2.611  0.00  0.00    -0.364 OA
ATOM     28  H   UNL     1      -2.618  -1.206   3.454  0.00  0.00    +0.212 HD
ENDBRANCH   7  27
TORSDOF 7
