REMARK  Name = ZINC67359080
REMARK  5 active torsions:
REMARK  status: ('A' for Active; 'I' for Inactive)
REMARK    1  A    between atoms: C_1  and  C_2
REMARK    2  A    between atoms: C_2  and  C_3
REMARK    3  A    between atoms: C_2  and  C_4
REMARK    4  A    between atoms: C_2  and  N_11
REMARK    5  A    between atoms: N_14  and  C_15
REMARK                            x       y       z     vdW  Elec       q    Type
REMARK                         _______ _______ _______ _____ _____    ______ ____
ROOT
ATOM      1  N   UNL     1       0.556  -0.272  -1.327  0.00  0.00    -0.290 N 
ATOM      2  C   UNL     1       1.849   0.006  -1.587  0.00  0.00    +0.301 C 
ATOM      3  O   UNL     1       2.556   0.479  -0.719  0.00  0.00    -0.253 OA
ATOM      4  N   UNL     1       2.358  -0.241  -2.811  0.00  0.00    -0.295 N 
ATOM      5  H   UNL     1      -0.008  -0.650  -2.021  0.00  0.00    +0.151 HD
ATOM      6  H   UNL     1       1.794  -0.618  -3.504  0.00  0.00    +0.151 HD
ENDROOT
BRANCH   4   7
ATOM      7  C   UNL     1       3.764   0.061  -3.093  0.00  0.00    +0.097 C 
ATOM      8  C   UNL     1       3.902   1.529  -3.530  0.00  0.00    +0.046 C 
ATOM      9  C   UNL     1       5.307   1.770  -4.133  0.00  0.00    +0.168 C 
ATOM     10  S   UNL     1       5.750   0.115  -4.801  0.00  0.00    -0.029 S 
ATOM     11  O   UNL     1       6.894  -0.371  -4.113  0.00  0.00    -0.174 OA
ATOM     12  O   UNL     1       5.762   0.178  -6.221  0.00  0.00    -0.174 OA
ATOM     13  C   UNL     1       4.271  -0.840  -4.255  0.00  0.00    +0.188 C 
ENDBRANCH   4   7
BRANCH   1  15
ATOM     14  C   UNL     1       0.155   1.483   0.328  0.00  0.00    +0.036 C 
ATOM     15  C   UNL     1       0.002  -0.004   0.002  0.00  0.00    +0.056 C 
ATOM     16  C   UNL     1       0.753  -0.835   1.044  0.00  0.00    +0.036 C 
BRANCH  15  17
ATOM     17  C   UNL     1      -1.458  -0.375   0.022  0.00  0.00    -0.025 A 
ATOM     18  C   UNL     1      -2.073  -0.700   1.217  0.00  0.00    +0.007 A 
ATOM     19  C   UNL     1      -3.412  -1.040   1.236  0.00  0.00    +0.020 A 
ATOM     20  C   UNL     1      -4.138  -1.055   0.058  0.00  0.00    +0.041 A 
ATOM     21  C   UNL     1      -3.523  -0.729  -1.138  0.00  0.00    +0.020 A 
ATOM     22  C   UNL     1      -2.185  -0.384  -1.154  0.00  0.00    +0.007 A 
ATOM     23 CL   UNL     1      -5.821  -1.482   0.081  0.00  0.00    -0.084 Cl
ENDBRANCH  15  17
ENDBRANCH   1  15
TORSDOF 3
