REMARK  Name = ZINC65238063
REMARK  3 active torsions:
REMARK  status: ('A' for Active; 'I' for Inactive)
REMARK    1  A    between atoms: C_16  and  C_17
REMARK    2  A    between atoms: N_19  and  C_20
REMARK    3  A    between atoms: C_20  and  C_21
REMARK                            x       y       z     vdW  Elec       q    Type
REMARK                         _______ _______ _______ _____ _____    ______ ____
ROOT
ATOM      1  C   UNL     1      -0.017   1.380   0.010  0.00  0.00    +0.040 A 
ATOM      2  C   UNL     1       1.173   2.091   0.002  0.00  0.00    +0.029 A 
ATOM      3  C   UNL     1       2.372   1.413  -0.009  0.00  0.00    +0.072 A 
ATOM      4  C   UNL     1       2.398   0.010  -0.002  0.00  0.00    +0.059 A 
ATOM      5  C   UNL     1       1.205  -0.690  -0.004  0.00  0.00    +0.063 A 
ATOM      6  C   UNL     1       0.002  -0.004   0.002  0.00  0.00    +0.125 A 
ATOM      7  F   UNL     1      -1.161  -0.691   0.002  0.00  0.00    -0.205 F 
ATOM      8  N   UNL     1       3.631  -0.651   0.035  0.00  0.00    -0.282 N 
ATOM      9  C   UNL     1       4.790  -0.033  -0.275  0.00  0.00    +0.246 C 
ATOM     10  O   UNL     1       5.835  -0.648  -0.224  0.00  0.00    -0.273 OA
ATOM     11  C   UNL     1       4.792   1.418  -0.683  0.00  0.00    +0.236 C 
ATOM     12  N   UNL     1       3.611   2.046  -0.041  0.00  0.00    -0.218 N 
ATOM     13  N   UNL     1       4.074   3.235   0.506  0.00  0.00    -0.184 N 
ATOM     14  N   UNL     1       5.472   3.186   0.575  0.00  0.00    -0.166 NA
ATOM     15  C   UNL     1       5.966   2.157  -0.090  0.00  0.00    +0.153 C 
ATOM     16  H   UNL     1       3.654  -1.586   0.292  0.00  0.00    +0.155 HD
ATOM     17  H   UNL     1       3.520   3.977   0.793  0.00  0.00    +0.193 HD
ENDROOT
BRANCH  15  18
ATOM     18  C   UNL     1       7.376   1.789  -0.225  0.00  0.00    +0.263 C 
ATOM     19  O   UNL     1       7.688   0.801  -0.865  0.00  0.00    -0.269 OA
ATOM     20  N   UNL     1       8.329   2.542   0.359  0.00  0.00    -0.306 N 
ATOM     21  H   UNL     1       8.080   3.329   0.868  0.00  0.00    +0.149 HD
BRANCH  20  22
ATOM     22  C   UNL     1       9.740   2.173   0.224  0.00  0.00    +0.142 C 
BRANCH  22  23
ATOM     23  C   UNL     1      10.593   3.170   0.964  0.00  0.00    +0.008 A 
ATOM     24  C   UNL     1      11.229   4.184   0.272  0.00  0.00    +0.046 A 
ATOM     25  C   UNL     1      12.013   5.100   0.952  0.00  0.00    +0.124 A 
ATOM     26  C   UNL     1      12.159   5.002   2.325  0.00  0.00    +0.041 A 
ATOM     27  C   UNL     1      11.523   3.989   3.017  0.00  0.00    +0.041 A 
ATOM     28  C   UNL     1      10.736   3.075   2.337  0.00  0.00    +0.128 A 
ATOM     29  F   UNL     1      10.110   2.087   3.014  0.00  0.00    -0.205 F 
ATOM     30  F   UNL     1      12.635   6.091   0.276  0.00  0.00    -0.205 F 
ENDBRANCH  22  23
ENDBRANCH  20  22
ENDBRANCH  15  18
TORSDOF 3
