REMARK  Name = ZINC51127904
REMARK  6 active torsions:
REMARK  status: ('A' for Active; 'I' for Inactive)
REMARK    1  A    between atoms: C_1  and  C_2
REMARK    2  A    between atoms: C_2  and  C_4
REMARK    3  A    between atoms: C_2  and  N_10
REMARK    4  A    between atoms: C_11  and  C_13
REMARK    5  A    between atoms: C_17  and  N_19
REMARK    6  A    between atoms: N_19  and  N_20
REMARK                            x       y       z     vdW  Elec       q    Type
REMARK                         _______ _______ _______ _____ _____    ______ ____
ROOT
ATOM      1  N   UNL     1       0.711  -0.489   1.189  0.00  0.00    -0.303 N 
ATOM      2  C   UNL     1       2.054  -0.600   1.174  0.00  0.00    +0.264 C 
ATOM      3  O   UNL     1       2.677  -0.297   0.175  0.00  0.00    -0.268 OA
ATOM      4  H   UNL     1       0.213  -0.731   1.986  0.00  0.00    +0.150 HD
ENDROOT
BRANCH   2   5
ATOM      5  C   UNL     1       2.770  -1.090   2.373  0.00  0.00    +0.146 A 
ATOM      6  C   UNL     1       4.158  -1.196   2.352  0.00  0.00    +0.072 A 
ATOM      7  C   UNL     1       4.820  -1.657   3.484  0.00  0.00    +0.026 A 
ATOM      8  C   UNL     1       4.071  -1.996   4.596  0.00  0.00    +0.046 A 
ATOM      9  C   UNL     1       2.683  -1.866   4.550  0.00  0.00    +0.133 A 
ATOM     10  N   UNL     1       2.082  -1.420   3.462  0.00  0.00    -0.225 NA
ATOM     11 CL   UNL     1       5.052  -0.759   0.930  0.00  0.00    -0.081 Cl
BRANCH   9  12
ATOM     12  N   UNL     1       1.924  -2.205   5.664  0.00  0.00    -0.268 N 
ATOM     13  H   UNL     1       2.359  -2.530   6.467  0.00  0.00    +0.167 HD
BRANCH  12  14
ATOM     14  N   UNL     1       0.564  -2.080   5.627  0.00  0.00    -0.255 NA
ATOM     15  H   UNL     1       0.151  -2.362   6.504  0.00  0.00    +0.140 HD
ATOM     16  H   UNL     1       0.293  -1.139   5.386  0.00  0.00    +0.140 HD
ENDBRANCH  12  14
ENDBRANCH   9  12
ENDBRANCH   2   5
BRANCH   1  18
ATOM     17  C   UNL     1      -0.019   1.526   0.010  0.00  0.00    +0.033 C 
ATOM     18  C   UNL     1       0.002  -0.004   0.002  0.00  0.00    +0.101 C 
BRANCH  18  19
ATOM     19  C   UNL     1      -1.412  -0.526   0.013  0.00  0.00    -0.025 A 
ATOM     20  C   UNL     1      -2.140  -0.578   1.191  0.00  0.00    +0.025 A 
ATOM     21  C   UNL     1      -3.434  -1.063   1.163  0.00  0.00    +0.111 A 
ATOM     22  N   UNL     1      -3.976  -1.472   0.032  0.00  0.00    -0.263 NA
ATOM     23  C   UNL     1      -3.313  -1.437  -1.107  0.00  0.00    +0.111 A 
ATOM     24  C   UNL     1      -2.017  -0.959  -1.157  0.00  0.00    +0.025 A 
ENDBRANCH  18  19
ENDBRANCH   1  18
TORSDOF 5
