REMARK  Name = ZINC09341382
REMARK  5 active torsions:
REMARK  status: ('A' for Active; 'I' for Inactive)
REMARK    1  A    between atoms: C_3  and  C_6
REMARK    2  A    between atoms: C_6  and  N_7
REMARK    3  A    between atoms: C_15  and  C_19
REMARK    4  A    between atoms: C_15  and  N_23
REMARK    5  A    between atoms: C_24  and  C_26
REMARK                            x       y       z     vdW  Elec       q    Type
REMARK                         _______ _______ _______ _____ _____    ______ ____
ROOT
ATOM      1  N   UNL     1       4.343   0.534   1.331  0.00  0.00    -0.274 N 
ATOM      2  C   UNL     1       4.511   1.740   1.978  0.00  0.00    +0.121 A 
ATOM      3  C   UNL     1       4.918   1.726   3.279  0.00  0.00    +0.096 A 
ATOM      4  C   UNL     1       5.157   0.509   3.930  0.00  0.00    +0.262 A 
ATOM      5  N   UNL     1       4.979  -0.646   3.255  0.00  0.00    -0.275 N 
ATOM      6  C   UNL     1       4.572  -0.624   1.973  0.00  0.00    +0.331 A 
ATOM      7  O   UNL     1       4.413  -1.674   1.381  0.00  0.00    -0.246 OA
ATOM      8  O   UNL     1       5.521   0.494   5.093  0.00  0.00    -0.267 OA
ATOM      9  C   UNL     1       5.013   3.169   3.717  0.00  0.00    +0.240 C 
ATOM     10  C   UNL     1       4.604   3.943   2.480  0.00  0.00    +0.256 C 
ATOM     11  O   UNL     1       4.535   5.148   2.367  0.00  0.00    -0.272 OA
ATOM     12  N   UNL     1       4.334   3.028   1.532  0.00  0.00    -0.269 N 
ATOM     13  H   UNL     1       5.142  -1.494   3.697  0.00  0.00    +0.173 HD
ATOM     14  H   UNL     1       4.046   3.252   0.633  0.00  0.00    +0.156 HD
ENDROOT
BRANCH   9  15
ATOM     15  C   UNL     1       6.448   3.516   4.120  0.00  0.00    +0.424 C 
ATOM     16  F   UNL     1       7.317   3.194   3.072  0.00  0.00    -0.167 F 
ATOM     17  F   UNL     1       6.537   4.884   4.396  0.00  0.00    -0.167 F 
ATOM     18  F   UNL     1       6.802   2.786   5.260  0.00  0.00    -0.167 F 
ENDBRANCH   9  15
BRANCH   9  19
ATOM     19  N   UNL     1       4.088   3.435   4.822  0.00  0.00    -0.284 N 
ATOM     20  C   UNL     1       2.771   3.195   4.669  0.00  0.00    +0.281 C 
ATOM     21  O   UNL     1       2.361   2.677   3.647  0.00  0.00    -0.267 OA
ATOM     22  H   UNL     1       4.423   3.784   5.662  0.00  0.00    +0.151 HD
BRANCH  20  23
ATOM     23  C   UNL     1       1.831   3.558   5.735  0.00  0.00    +0.189 A 
ATOM     24  C   UNL     1       0.479   3.366   5.713  0.00  0.00    +0.054 A 
ATOM     25  C   UNL     1      -0.018   3.857   6.931  0.00  0.00    +0.042 A 
ATOM     26  C   UNL     1       1.039   4.321   7.634  0.00  0.00    +0.196 A 
ATOM     27  O   UNL     1       2.152   4.134   6.912  0.00  0.00    -0.458 OA
ENDBRANCH  20  23
ENDBRANCH   9  19
BRANCH   1  28
ATOM     28  C   UNL     1       3.906   0.515  -0.067  0.00  0.00    +0.202 C 
BRANCH  28  31
ATOM     29  C   UNL     1       0.263   1.052  -0.204  0.00  0.00    +0.041 A 
ATOM     30  C   UNL     1       1.587   1.546  -0.158  0.00  0.00    +0.046 A 
ATOM     31  C   UNL     1       2.401   0.475  -0.123  0.00  0.00    +0.125 A 
ATOM     32  O   UNL     1       1.645  -0.634  -0.146  0.00  0.00    -0.466 OA
ATOM     33  C   UNL     1       0.347  -0.291  -0.195  0.00  0.00    +0.195 A 
ENDBRANCH  28  31
ENDBRANCH   1  28
TORSDOF 5
