REMARK  Name = ZINC43547719
REMARK  15 active torsions:
REMARK  status: ('A' for Active; 'I' for Inactive)
REMARK    1  A    between atoms: C_1  and  C_2
REMARK    2  A    between atoms: C_2  and  O_37
REMARK    3  A    between atoms: C_5  and  C_24
REMARK    4  A    between atoms: C_9  and  C_22
REMARK    5  A    between atoms: C_9  and  C_23
REMARK    6  A    between atoms: C_11  and  N_13
REMARK    7  A    between atoms: N_13  and  C_14
REMARK    8  A    between atoms: C_14  and  C_15
REMARK    9  A    between atoms: C_18  and  C_20
REMARK   10  A    between atoms: C_20  and  O_21
REMARK   11  A    between atoms: C_24  and  C_25
REMARK   12  A    between atoms: C_25  and  C_26
REMARK   13  A    between atoms: N_28  and  C_29
REMARK   14  A    between atoms: C_29  and  C_30
REMARK   15  A    between atoms: C_30  and  N_31
REMARK                            x       y       z     vdW  Elec       q    Type
REMARK                         _______ _______ _______ _____ _____    ______ ____
ROOT
ATOM      1  C   UNL     1      -0.084   1.533  -0.023  0.00  0.00    +0.041 C 
ATOM      2  C   UNL     1      -0.047   0.003  -0.025  0.00  0.00    +0.064 C 
ATOM      3  C   UNL     1      -1.476  -0.531  -0.060  0.00  0.00    +0.035 C 
ATOM      4  C   UNL     1      -1.507  -2.064   0.054  0.00  0.00    +0.008 C 
ATOM      5  C   UNL     1      -0.811  -2.433   1.351  0.00  0.00    -0.038 C 
ATOM      6  C   UNL     1       0.673  -1.999   1.209  0.00  0.00    +0.002 C 
ATOM      7  C   UNL     1       0.704  -0.483   1.226  0.00  0.00    +0.039 C 
ATOM      8  C   UNL     1       1.359  -2.708   2.373  0.00  0.00    -0.033 C 
ATOM      9  C   UNL     1       0.529  -3.993   2.615  0.00  0.00    -0.009 C 
ATOM     10  C   UNL     1      -0.669  -3.934   1.628  0.00  0.00    -0.064 C 
ATOM     11  C   UNL     1       2.798  -3.068   2.000  0.00  0.00    +0.011 C 
ATOM     12  C   UNL     1       1.339  -1.821   3.619  0.00  0.00    +0.011 C 
ENDROOT
BRANCH  10  13
ATOM     13  N   UNL     1      -0.361  -4.664   0.391  0.00  0.00    +0.386 N 
ATOM     14  H   UNL     1      -1.063  -4.459  -0.304  0.00  0.00    -0.085 HD
ATOM     15  H   UNL     1       0.545  -4.379   0.049  0.00  0.00    -0.085 HD
BRANCH  13  16
ATOM     16  C   UNL     1      -0.349  -6.107   0.665  0.00  0.00    -0.007 C 
BRANCH  16  17
ATOM     17  C   UNL     1      -0.033  -6.856  -0.604  0.00  0.00    +0.089 A 
ATOM     18  C   UNL     1       1.196  -7.199  -1.030  0.00  0.00    +0.043 A 
ATOM     19  C   UNL     1       1.029  -7.884  -2.255  0.00  0.00    +0.047 A 
ATOM     20  C   UNL     1      -0.292  -7.919  -2.505  0.00  0.00    +0.130 A 
ATOM     21  O   UNL     1      -0.931  -7.300  -1.499  0.00  0.00    -0.464 OA
BRANCH  20  22
ATOM     22  C   UNL     1      -0.946  -8.551  -3.708  0.00  0.00    +0.230 C 
BRANCH  22  23
ATOM     23  O   UNL     1      -1.247  -9.918  -3.423  0.00  0.00    -0.387 OA
ATOM     24  H   UNL     1      -1.670 -10.388  -4.154  0.00  0.00    +0.210 HD
ENDBRANCH  22  23
ENDBRANCH  20  22
ENDBRANCH  16  17
ENDBRANCH  13  16
ENDBRANCH  10  13
BRANCH   2  25
ATOM     25  O   UNL     1       0.647  -0.446  -1.190  0.00  0.00    -0.389 OA
ATOM     26  H   UNL     1       0.241  -0.166  -2.022  0.00  0.00    +0.210 HD
ENDBRANCH   2  25
BRANCH   5  27
ATOM     27  C   UNL     1      -1.482  -1.733   2.534  0.00  0.00    +0.015 C 
BRANCH  27  28
ATOM     28  C   UNL     1      -2.982  -2.037   2.522  0.00  0.00    +0.096 C 
BRANCH  28  29
ATOM     29  C   UNL     1      -3.643  -1.348   3.688  0.00  0.00    +0.213 C 
ATOM     30  O   UNL     1      -2.981  -0.679   4.452  0.00  0.00    -0.276 OA
ATOM     31  N   UNL     1      -4.971  -1.475   3.881  0.00  0.00    -0.314 N 
ATOM     32  H   UNL     1      -5.501  -2.010   3.269  0.00  0.00    +0.149 HD
BRANCH  31  33
ATOM     33  C   UNL     1      -5.614  -0.804   5.013  0.00  0.00    +0.119 C 
BRANCH  33  34
ATOM     34  C   UNL     1      -7.113  -1.109   5.002  0.00  0.00    +0.103 C 
BRANCH  34  35
ATOM     35  N   UNL     1      -7.758  -0.437   6.138  0.00  0.00    -0.297 NA
ATOM     36  C   UNL     1      -7.302  -1.006   7.415  0.00  0.00    +0.112 C 
ATOM     37  C   UNL     1      -7.951  -0.239   8.570  0.00  0.00    +0.175 C 
ATOM     38  O   UNL     1      -9.374  -0.292   8.431  0.00  0.00    -0.377 OA
ATOM     39  C   UNL     1      -9.853   0.254   7.199  0.00  0.00    +0.175 C 
ATOM     40  C   UNL     1      -9.223  -0.507   6.030  0.00  0.00    +0.112 C 
ENDBRANCH  34  35
ENDBRANCH  33  34
ENDBRANCH  31  33
ENDBRANCH  28  29
ENDBRANCH  27  28
ENDBRANCH   5  27
TORSDOF 12
