REMARK  Name = ZINC01083993
REMARK  4 active torsions:
REMARK  status: ('A' for Active; 'I' for Inactive)
REMARK    1  A    between atoms: C_4  and  C_28
REMARK    2  A    between atoms: C_5  and  C_7
REMARK    3  A    between atoms: C_10  and  C_12
REMARK    4  A    between atoms: N_13  and  N_14
REMARK                            x       y       z     vdW  Elec       q    Type
REMARK                         _______ _______ _______ _____ _____    ______ ____
ROOT
ATOM      1  C   UNL     1      -3.598   4.608   1.274  0.00  0.00    +0.179 C 
ATOM      2  N   UNL     1      -3.035   5.235   2.267  0.00  0.00    -0.167 NA
ENDROOT
BRANCH   2   3
ATOM      3  N   UNL     1      -3.682   6.324   2.865  0.00  0.00    -0.185 N 
ATOM      4  C   UNL     1      -4.943   6.648   2.471  0.00  0.00    +0.227 A 
ATOM      5  N   UNL     1      -5.579   7.657   3.005  0.00  0.00    -0.228 NA
ATOM      6  C   UNL     1      -5.012   8.399   3.951  0.00  0.00    +0.116 A 
ATOM      7  C   UNL     1      -3.714   8.142   4.422  0.00  0.00    +0.077 A 
ATOM      8  C   UNL     1      -3.046   7.026   3.821  0.00  0.00    +0.283 A 
ATOM      9  O   UNL     1      -1.917   6.720   4.167  0.00  0.00    -0.265 OA
ATOM     10  C   UNL     1      -3.221   9.041   5.464  0.00  0.00    -0.023 A 
ATOM     11  C   UNL     1      -4.053  10.024   5.869  0.00  0.00    -0.004 A 
ATOM     12  S   UNL     1      -5.522   9.810   4.900  0.00  0.00    -0.073 S 
ATOM     13  C   UNL     1      -3.787  11.066   6.912  0.00  0.00    +0.043 C 
ATOM     14  C   UNL     1      -2.559  10.634   7.726  0.00  0.00    +0.005 C 
ATOM     15  C   UNL     1      -1.451  10.210   6.758  0.00  0.00    +0.005 C 
ATOM     16  C   UNL     1      -1.831   8.894   6.078  0.00  0.00    +0.037 C 
ENDBRANCH   2   3
BRANCH   1  20
ATOM     17  C   UNL     1      -1.296   2.120   0.018  0.00  0.00    +0.137 A 
ATOM     18  C   UNL     1      -2.338   1.904  -0.838  0.00  0.00    +0.050 A 
ATOM     19  C   UNL     1      -3.352   2.801  -0.484  0.00  0.00    +0.051 A 
ATOM     20  C   UNL     1      -2.876   3.542   0.578  0.00  0.00    +0.148 A 
ATOM     21  O   UNL     1      -1.631   3.112   0.864  0.00  0.00    -0.454 OA
BRANCH  17  26
ATOM     22  C   UNL     1       1.203  -0.678  -0.013  0.00  0.00    +0.001 A 
ATOM     23  C   UNL     1       2.402   0.019  -0.014  0.00  0.00    +0.001 A 
ATOM     24  C   UNL     1       2.410   1.397  -0.002  0.00  0.00    +0.016 A 
ATOM     25  C   UNL     1       1.205   2.102   0.011  0.00  0.00    +0.074 A 
ATOM     26  C   UNL     1      -0.015   1.393   0.011  0.00  0.00    +0.031 A 
ATOM     27  C   UNL     1       0.001  -0.003  -0.001  0.00  0.00    +0.012 A 
BRANCH  25  28
ATOM     28  C   UNL     1       1.207   3.575   0.023  0.00  0.00    +0.387 C 
ATOM     29  O   UNL     1       0.155   4.184   0.033  0.00  0.00    -0.241 OA
ATOM     30  O   UNL     1       2.375   4.248   0.023  0.00  0.00    -0.241 OA
ENDBRANCH  25  28
ENDBRANCH  17  26
ENDBRANCH   1  20
TORSDOF 4
