REMARK  Name = ZINC27828198
REMARK  3 active torsions:
REMARK  status: ('A' for Active; 'I' for Inactive)
REMARK    1  A    between atoms: C_1  and  C_2
REMARK    2  A    between atoms: C_3  and  C_15
REMARK    3  A    between atoms: C_15  and  O_16
REMARK                            x       y       z     vdW  Elec       q    Type
REMARK                         _______ _______ _______ _____ _____    ______ ____
ROOT
ATOM      1  C   UNL     1      -0.804   1.264  -5.963  0.00  0.00    +0.066 C 
ATOM      2  C   UNL     1      -0.204   0.878  -4.636  0.00  0.00    +0.052 A 
ATOM      3  C   UNL     1       0.875   0.015  -4.581  0.00  0.00    +0.063 A 
ATOM      4  C   UNL     1       1.399  -0.315  -3.332  0.00  0.00    +0.258 A 
ATOM      5  N   UNL     1       0.858   0.218  -2.244  0.00  0.00    -0.295 N 
ATOM      6  C   UNL     1      -0.172   1.045  -2.337  0.00  0.00    +0.198 A 
ATOM      7  N   UNL     1      -0.698   1.369  -3.510  0.00  0.00    -0.221 NA
ATOM      8  N   UNL     1      -0.713   1.584  -1.183  0.00  0.00    -0.301 N 
ATOM      9  C   UNL     1       0.000   1.102   0.007  0.00  0.00    +0.108 C 
ATOM     10  C   UNL     1      -0.712   1.600   1.266  0.00  0.00    +0.019 C 
ATOM     11  C   UNL     1      -0.748   3.130   1.256  0.00  0.00    +0.003 C 
ATOM     12  C   UNL     1      -1.452   3.607  -0.017  0.00  0.00    +0.019 C 
ATOM     13  C   UNL     1      -0.719   3.051  -1.240  0.00  0.00    +0.108 C 
ATOM     14  O   UNL     1       2.453  -1.161  -3.232  0.00  0.00    -0.267 OA
ATOM     15  H   UNL     1       1.274  -0.032  -1.256  0.00  0.00    +0.172 HD
ENDROOT
BRANCH   3  16
ATOM     16  C   UNL     1       1.467  -0.559  -5.842  0.00  0.00    +0.198 C 
BRANCH  16  17
ATOM     17  O   UNL     1       0.808  -1.786  -6.161  0.00  0.00    -0.390 OA
ATOM     18  H   UNL     1       1.107  -2.354  -7.054  0.00  0.00    +0.210 HD
ENDBRANCH  16  17
ENDBRANCH   3  16
TORSDOF 2
