REMARK  Name = ZINC21714828
REMARK  5 active torsions:
REMARK  status: ('A' for Active; 'I' for Inactive)
REMARK    1  A    between atoms: C_1  and  C_2
REMARK    2  A    between atoms: C_2  and  O_3
REMARK    3  A    between atoms: O_3  and  C_4
REMARK    4  A    between atoms: C_9  and  N_10
REMARK    5  A    between atoms: C_13  and  C_20
REMARK                            x       y       z     vdW  Elec       q    Type
REMARK                         _______ _______ _______ _____ _____    ______ ____
ROOT
ATOM      1  N   UNL     1       0.762   6.061  -2.007  0.00  0.00    -0.296 N 
ATOM      2  C   UNL     1       1.933   6.466  -1.396  0.00  0.00    +0.139 A 
ATOM      3  C   UNL     1       2.624   5.615  -0.533  0.00  0.00    +0.108 A 
ATOM      4  C   UNL     1       2.472   4.258   0.006  0.00  0.00    +0.126 A 
ATOM      5  N   UNL     1       3.506   4.087   0.793  0.00  0.00    -0.075 NA
ATOM      6  O   UNL     1       4.235   5.052   0.838  0.00  0.00    -0.334 OA
ATOM      7  C   UNL     1       3.812   6.069   0.073  0.00  0.00    +0.264 A 
ATOM      8  N   UNL     1       4.236   7.294  -0.211  0.00  0.00    -0.198 NA
ATOM      9  C   UNL     1       3.557   8.065  -1.036  0.00  0.00    +0.227 A 
ATOM     10  N   UNL     1       2.438   7.679  -1.620  0.00  0.00    -0.220 NA
ATOM     11  H   UNL     1       0.306   5.096  -1.737  0.00  0.00    +0.154 HD
ENDROOT
BRANCH   4  12
ATOM     12  C   UNL     1       1.387   3.289  -0.282  0.00  0.00    +0.010 A 
ATOM     13  C   UNL     1       0.951   3.097  -1.591  0.00  0.00    +0.048 A 
ATOM     14  C   UNL     1      -0.061   2.192  -1.855  0.00  0.00    +0.127 A 
ATOM     15  C   UNL     1      -0.637   1.474  -0.820  0.00  0.00    +0.076 A 
ATOM     16  C   UNL     1      -0.210   1.665   0.483  0.00  0.00    +0.127 A 
ATOM     17  C   UNL     1       0.801   2.567   0.756  0.00  0.00    +0.048 A 
ATOM     18  F   UNL     1      -0.780   0.966   1.489  0.00  0.00    -0.205 F 
ATOM     19  F   UNL     1      -0.485   2.005  -3.124  0.00  0.00    -0.205 F 
ENDBRANCH   4  12
BRANCH   1  25
ATOM     20  C   UNL     1      -1.193   6.708  -3.279  0.00  0.00    +0.142 A 
ATOM     21  C   UNL     1      -1.788   7.519  -4.232  0.00  0.00    +0.047 A 
ATOM     22  C   UNL     1      -1.045   8.492  -4.873  0.00  0.00    +0.004 A 
ATOM     23  C   UNL     1       0.293   8.660  -4.567  0.00  0.00    +0.002 A 
ATOM     24  C   UNL     1       0.893   7.860  -3.613  0.00  0.00    +0.027 A 
ATOM     25  C   UNL     1       0.155   6.877  -2.969  0.00  0.00    +0.075 A 
BRANCH  20  26
ATOM     26  O   UNL     1      -1.923   5.750  -2.647  0.00  0.00    -0.490 OA
BRANCH  26  28
ATOM     27  C   UNL     1      -3.951   4.513  -2.204  0.00  0.00    +0.048 C 
ATOM     28  C   UNL     1      -3.299   5.635  -3.015  0.00  0.00    +0.226 C 
ENDBRANCH  26  28
ENDBRANCH  20  26
ENDBRANCH   1  25
TORSDOF 4
