REMARK  Name = ZINC55580764
REMARK  4 active torsions:
REMARK  status: ('A' for Active; 'I' for Inactive)
REMARK    1  A    between atoms: C_3  and  N_23
REMARK    2  A    between atoms: C_5  and  N_7
REMARK    3  A    between atoms: N_7  and  S_8
REMARK    4  A    between atoms: S_8  and  C_11
REMARK                            x       y       z     vdW  Elec       q    Type
REMARK                         _______ _______ _______ _____ _____    ______ ____
ROOT
ATOM      1  S   UNL     1       0.489  -3.075   0.718  0.00  0.00    +0.075 S 
ATOM      2  O   UNL     1       0.919  -4.392   0.403  0.00  0.00    -0.150 OA
ATOM      3  O   UNL     1       0.546  -2.550   2.037  0.00  0.00    -0.150 OA
ENDROOT
BRANCH   1   4
ATOM      4  C   UNL     1      -1.191  -2.956   0.201  0.00  0.00    +0.144 A 
ATOM      5  C   UNL     1      -1.816  -4.049  -0.370  0.00  0.00    +0.037 A 
ATOM      6  C   UNL     1      -3.133  -3.959  -0.776  0.00  0.00    -0.024 A 
ATOM      7  C   UNL     1      -3.831  -2.770  -0.610  0.00  0.00    +0.039 A 
ATOM      8  C   UNL     1      -3.203  -1.673  -0.036  0.00  0.00    +0.064 A 
ATOM      9  C   UNL     1      -1.885  -1.770   0.374  0.00  0.00    +0.152 A 
ATOM     10  F   UNL     1      -1.273  -0.706   0.937  0.00  0.00    -0.203 F 
ATOM     11  N   UNL     1      -5.165  -2.680  -1.020  0.00  0.00    -0.285 N 
ATOM     12  C   UNL     1      -5.891  -3.795  -1.224  0.00  0.00    +0.218 C 
ATOM     13  O   UNL     1      -7.043  -3.700  -1.594  0.00  0.00    -0.275 OA
ATOM     14  C   UNL     1      -5.292  -5.157  -0.999  0.00  0.00    +0.101 C 
ATOM     15  C   UNL     1      -3.816  -5.149  -1.399  0.00  0.00    +0.046 C 
ATOM     16  H   UNL     1      -5.569  -1.810  -1.158  0.00  0.00    +0.155 HD
ENDBRANCH   1   4
BRANCH   1  17
ATOM     17  N   UNL     1       1.369  -2.048  -0.238  0.00  0.00    -0.216 N 
ATOM     18  H   UNL     1       1.851  -1.307   0.161  0.00  0.00    +0.174 HD
BRANCH  17  23
ATOM     19  C   UNL     1       1.690  -3.722  -3.495  0.00  0.00    +0.004 A 
ATOM     20  C   UNL     1       1.516  -2.657  -4.359  0.00  0.00    +0.023 A 
ATOM     21  C   UNL     1       1.291  -1.382  -3.855  0.00  0.00    +0.037 A 
ATOM     22  C   UNL     1       1.242  -1.178  -2.484  0.00  0.00    +0.047 A 
ATOM     23  C   UNL     1       1.418  -2.249  -1.619  0.00  0.00    +0.050 A 
ATOM     24  C   UNL     1       1.642  -3.523  -2.130  0.00  0.00    +0.024 A 
BRANCH  21  25
ATOM     25  N   UNL     1       1.115  -0.305  -4.731  0.00  0.00    -0.270 N 
ATOM     26  C   UNL     1       0.258   0.686  -4.415  0.00  0.00    +0.301 C 
ATOM     27  O   UNL     1      -0.296   0.690  -3.333  0.00  0.00    -0.253 OA
ATOM     28  N   UNL     1       0.014   1.673  -5.300  0.00  0.00    -0.313 N 
ATOM     29  H   UNL     1       1.611  -0.271  -5.564  0.00  0.00    +0.156 HD
ATOM     30  H   UNL     1       0.456   1.671  -6.164  0.00  0.00    +0.146 HD
ATOM     31  H   UNL     1      -0.603   2.387  -5.073  0.00  0.00    +0.146 HD
ENDBRANCH  21  25
ENDBRANCH  17  23
ENDBRANCH   1  17
TORSDOF 4
