REMARK  Name = ZINC67392951
REMARK  11 active torsions:
REMARK  status: ('A' for Active; 'I' for Inactive)
REMARK    1  A    between atoms: C_1  and  C_2
REMARK    2  A    between atoms: N_7  and  C_9
REMARK    3  A    between atoms: C_9  and  C_10
REMARK    4  A    between atoms: C_9  and  C_11
REMARK    5  A    between atoms: C_9  and  C_12
REMARK    6  A    between atoms: C_12  and  N_13
REMARK    7  A    between atoms: C_14  and  C_16
REMARK    8  A    between atoms: N_18  and  C_19
REMARK    9  A    between atoms: C_22  and  C_25
REMARK   10  A    between atoms: C_25  and  O_27
REMARK   11  A    between atoms: O_27  and  C_28
REMARK                            x       y       z     vdW  Elec       q    Type
REMARK                         _______ _______ _______ _____ _____    ______ ____
ROOT
ATOM      1  N   UNL     1      -0.071  -4.400   2.348  0.00  0.00    -0.309 N 
ATOM      2  C   UNL     1      -0.409  -5.703   2.412  0.00  0.00    +0.299 C 
ATOM      3  O   UNL     1       0.435  -6.537   2.663  0.00  0.00    -0.265 OA
ATOM      4  H   UNL     1      -0.747  -3.733   2.147  0.00  0.00    +0.149 HD
ENDROOT
BRANCH   2   5
ATOM      5  C   UNL     1      -1.824  -6.120   2.173  0.00  0.00    +0.303 C 
ATOM      6  O   UNL     1      -2.668  -5.286   1.921  0.00  0.00    -0.265 OA
ATOM      7  N   UNL     1      -2.162  -7.423   2.237  0.00  0.00    -0.278 N 
ATOM      8  H   UNL     1      -1.476  -8.096   2.371  0.00  0.00    +0.155 HD
BRANCH   7   9
ATOM      9  C   UNL     1      -3.495  -7.804   2.109  0.00  0.00    +0.034 A 
ATOM     10  C   UNL     1      -3.993  -8.857   2.872  0.00  0.00    +0.024 A 
ATOM     11  C   UNL     1      -5.310  -9.235   2.748  0.00  0.00    +0.017 A 
ATOM     12  C   UNL     1      -6.149  -8.561   1.856  0.00  0.00    +0.059 A 
ATOM     13  C   UNL     1      -5.646  -7.504   1.091  0.00  0.00    +0.017 A 
ATOM     14  C   UNL     1      -4.329  -7.127   1.224  0.00  0.00    +0.024 A 
BRANCH  12  15
ATOM     15  C   UNL     1      -7.561  -8.964   1.720  0.00  0.00    +0.339 C 
ATOM     16  O   UNL     1      -7.997  -9.883   2.385  0.00  0.00    -0.245 OA
BRANCH  15  17
ATOM     17  O   UNL     1      -8.368  -8.313   0.860  0.00  0.00    -0.464 OA
ATOM     18  C   UNL     1      -9.724  -8.757   0.780  0.00  0.00    +0.280 C 
ENDBRANCH  15  17
ENDBRANCH  12  15
ENDBRANCH   7   9
ENDBRANCH   2   5
BRANCH   1  19
ATOM     19  C   UNL     1       1.315  -3.990   2.582  0.00  0.00    +0.092 C 
BRANCH  19  20
ATOM     20  C   UNL     1       1.407  -2.463   2.559  0.00  0.00    -0.055 C 
ATOM     21  C   UNL     1       2.867  -2.038   2.728  0.00  0.00    -0.008 C 
ATOM     22  C   UNL     1       0.572  -1.885   3.702  0.00  0.00    -0.008 C 
BRANCH  20  28
ATOM     23  C   UNL     1       0.487   1.563  -0.069  0.00  0.00    +0.005 C 
ATOM     24  C   UNL     1       0.386   0.036  -0.047  0.00  0.00    -0.031 C 
ATOM     25  C   UNL     1       1.154  -0.545  -1.237  0.00  0.00    -0.001 C 
ATOM     26  C   UNL     1       1.112  -2.074  -1.162  0.00  0.00    -0.018 C 
ATOM     27  C   UNL     1       1.690  -2.529   0.180  0.00  0.00    -0.078 C 
ATOM     28  N   UNL     1       0.897  -1.962   1.276  0.00  0.00    +0.384 N 
ATOM     29  C   UNL     1       0.990  -0.497   1.254  0.00  0.00    -0.075 C 
ATOM     30  H   UNL     1      -0.068  -2.237   1.170  0.00  0.00    -0.081 HD
ENDBRANCH  20  28
ENDBRANCH  19  20
ENDBRANCH   1  19
TORSDOF 7
