REMARK  Name = ZINC33643336
REMARK  15 active torsions:
REMARK  status: ('A' for Active; 'I' for Inactive)
REMARK    1  A    between atoms: C_1  and  C_2
REMARK    2  A    between atoms: C_2  and  C_34
REMARK    3  A    between atoms: C_4  and  C_32
REMARK    4  A    between atoms: C_4  and  C_33
REMARK    5  A    between atoms: C_9  and  O_11
REMARK    6  A    between atoms: O_11  and  C_12
REMARK    7  A    between atoms: C_12  and  C_13
REMARK    8  A    between atoms: C_16  and  C_19
REMARK    9  A    between atoms: N_21  and  C_22
REMARK   10  A    between atoms: C_22  and  C_24
REMARK   11  A    between atoms: C_22  and  C_29
REMARK   12  A    between atoms: C_24  and  C_25
REMARK   13  A    between atoms: C_25  and  C_26
REMARK   14  A    between atoms: C_26  and  C_27
REMARK   15  A    between atoms: C_27  and  N_28
REMARK                            x       y       z     vdW  Elec       q    Type
REMARK                         _______ _______ _______ _____ _____    ______ ____
ROOT
ATOM      1  C   UNL     1       2.466  -0.066   0.138  0.00  0.00    -0.010 A 
ATOM      2  C   UNL     1       1.283  -0.783   0.162  0.00  0.00    +0.008 A 
ATOM      3  C   UNL     1       0.073  -0.123   0.216  0.00  0.00    +0.013 A 
ATOM      4  C   UNL     1       0.043   1.272   0.245  0.00  0.00    +0.037 A 
ATOM      5  C   UNL     1       1.240   1.990   0.221  0.00  0.00    +0.013 A 
ATOM      6  C   UNL     1       2.443   1.318   0.167  0.00  0.00    +0.008 A 
ENDROOT
BRANCH   4   7
ATOM      7  C   UNL     1      -1.250   1.986   0.297  0.00  0.00    +0.245 C 
ATOM      8  O   UNL     1      -2.291   1.358   0.314  0.00  0.00    -0.270 OA
ATOM      9  N   UNL     1      -1.276   3.333   0.326  0.00  0.00    -0.300 N 
ATOM     10  H   UNL     1      -0.334   3.901   0.311  0.00  0.00    +0.150 HD
BRANCH   9  11
ATOM     11  C   UNL     1      -2.557   4.041   0.377  0.00  0.00    +0.159 C 
BRANCH  11  12
ATOM     12  C   UNL     1      -3.097   4.205  -1.020  0.00  0.00    +0.231 C 
ATOM     13  O   UNL     1      -2.472   3.773  -1.966  0.00  0.00    -0.274 OA
ATOM     14  N   UNL     1      -4.274   4.831  -1.219  0.00  0.00    -0.328 N 
ATOM     15  H   UNL     1      -4.667   4.951  -2.240  0.00  0.00    +0.145 HD
ATOM     16  H   UNL     1      -4.840   5.223  -0.362  0.00  0.00    +0.145 HD
ENDBRANCH  11  12
BRANCH  11  17
ATOM     17  C   UNL     1      -2.354   5.419   1.010  0.00  0.00    +0.032 C 
BRANCH  17  18
ATOM     18  C   UNL     1      -1.925   5.252   2.469  0.00  0.00    +0.000 C 
BRANCH  18  19
ATOM     19  C   UNL     1      -1.722   6.630   3.102  0.00  0.00    -0.019 C 
BRANCH  19  20
ATOM     20  C   UNL     1      -1.294   6.463   4.561  0.00  0.00    -0.086 C 
BRANCH  20  21
ATOM     21  N   UNL     1      -1.098   7.786   5.169  0.00  0.00    +0.378 N 
ATOM     22  H   UNL     1      -0.790   7.666   6.218  0.00  0.00    -0.090 HD
ATOM     23  H   UNL     1      -2.041   8.352   5.126  0.00  0.00    -0.090 HD
ATOM     24  H   UNL     1      -0.318   8.331   4.618  0.00  0.00    -0.090 HD
ENDBRANCH  20  21
ENDBRANCH  19  20
ENDBRANCH  18  19
ENDBRANCH  17  18
ENDBRANCH  11  17
ENDBRANCH   9  11
ENDBRANCH   4   7
BRANCH   1  25
ATOM     25  C   UNL     1       3.784  -0.793   0.079  0.00  0.00    +0.264 C 
BRANCH  25  26
ATOM     26  O   UNL     1       4.156  -0.996  -1.286  0.00  0.00    -0.487 OA
BRANCH  26  35
ATOM     27  C   UNL     1      10.191  -3.193  -1.714  0.00  0.00    +0.016 C 
ATOM     28  C   UNL     1       8.964  -3.650  -2.506  0.00  0.00    -0.009 C 
ATOM     29  C   UNL     1       9.084  -3.210  -3.981  0.00  0.00    +0.022 C 
ATOM     30  C   UNL     1       7.619  -2.903  -4.356  0.00  0.00    -0.009 C 
ATOM     31  C   UNL     1       6.946  -2.532  -3.052  0.00  0.00    -0.035 A 
ATOM     32  C   UNL     1       7.718  -2.962  -1.988  0.00  0.00    -0.038 A 
ATOM     33  C   UNL     1       7.296  -2.731  -0.690  0.00  0.00    +0.008 A 
ATOM     34  C   UNL     1       6.106  -2.074  -0.451  0.00  0.00    +0.046 A 
ATOM     35  C   UNL     1       5.329  -1.643  -1.516  0.00  0.00    +0.121 A 
ATOM     36  C   UNL     1       5.750  -1.878  -2.816  0.00  0.00    +0.050 A 
ATOM     37  C   UNL     1       7.558  -1.730  -5.337  0.00  0.00    +0.016 C 
ATOM     38  C   UNL     1       6.956  -4.140  -4.964  0.00  0.00    +0.016 C 
ATOM     39  C   UNL     1       8.807  -5.169  -2.416  0.00  0.00    +0.016 C 
ENDBRANCH  26  35
ENDBRANCH  25  26
ENDBRANCH   1  25
TORSDOF 11
