REMARK  Name = ZINC63038827
REMARK  8 active torsions:
REMARK  status: ('A' for Active; 'I' for Inactive)
REMARK    1  A    between atoms: C_1  and  C_2
REMARK    2  A    between atoms: C_2  and  C_3
REMARK    3  A    between atoms: C_2  and  C_4
REMARK    4  A    between atoms: C_2  and  C_5
REMARK    5  A    between atoms: C_5  and  C_7
REMARK    6  A    between atoms: C_5  and  O_22
REMARK    7  A    between atoms: C_7  and  C_8
REMARK    8  A    between atoms: C_17  and  N_18
REMARK                            x       y       z     vdW  Elec       q    Type
REMARK                         _______ _______ _______ _____ _____    ______ ____
ROOT
ATOM      1  C   UNL     1       2.834  -0.606  -2.390  0.00  0.00    -0.004 A 
ATOM      2  C   UNL     1       2.928   0.003  -3.657  0.00  0.00    +0.007 A 
ATOM      3  C   UNL     1       2.340   1.251  -3.913  0.00  0.00    +0.025 A 
ATOM      4  C   UNL     1       2.454   1.807  -5.152  0.00  0.00    +0.019 A 
ATOM      5  C   UNL     1       3.148   1.152  -6.168  0.00  0.00    +0.017 A 
ATOM      6  C   UNL     1       3.730  -0.059  -5.954  0.00  0.00    +0.029 A 
ATOM      7  C   UNL     1       3.634  -0.665  -4.688  0.00  0.00    +0.071 A 
ATOM      8  N   UNL     1       4.197  -1.853  -4.448  0.00  0.00    -0.253 NA
ATOM      9  C   UNL     1       4.112  -2.422  -3.270  0.00  0.00    +0.144 A 
ATOM     10  C   UNL     1       3.436  -1.818  -2.212  0.00  0.00    +0.148 A 
ATOM     11 BR   UNL     1       1.660   3.488  -5.497  0.00  0.00    -0.050 Br
ENDROOT
BRANCH  10  12
ATOM     12  N   UNL     1       3.367  -2.493  -0.896  0.00  0.00    +0.058 N 
ATOM     13  O   UNL     1       3.827  -3.602  -0.760  0.00  0.00    -0.126 OA
ATOM     14  O   UNL     1       2.851  -1.933   0.044  0.00  0.00    -0.126 OA
ENDBRANCH  10  12
BRANCH   1  15
ATOM     15  C   UNL     1       2.094   0.066  -1.262  0.00  0.00    +0.070 C 
BRANCH  15  16
ATOM     16  C   UNL     1       0.669  -0.485  -1.188  0.00  0.00    +0.124 C 
BRANCH  16  18
ATOM     17  C   UNL     1      -0.105   1.656  -0.158  0.00  0.00    +0.013 C 
ATOM     18  C   UNL     1      -0.056   0.136   0.008  0.00  0.00    -0.011 C 
ATOM     19  C   UNL     1       0.693  -0.212   1.296  0.00  0.00    +0.013 C 
ATOM     20  C   UNL     1      -1.482  -0.415   0.083  0.00  0.00    +0.013 C 
ENDBRANCH  16  18
BRANCH  16  21
ATOM     21  O   UNL     1      -0.031  -0.160  -2.390  0.00  0.00    -0.391 OA
ATOM     22  H   UNL     1      -0.034   0.784  -2.600  0.00  0.00    +0.210 HD
ENDBRANCH  16  21
ENDBRANCH  15  16
ENDBRANCH   1  15
TORSDOF 5
