REMARK  Name = ZINC56161060
REMARK  10 active torsions:
REMARK  status: ('A' for Active; 'I' for Inactive)
REMARK    1  A    between atoms: C_1  and  C_2
REMARK    2  A    between atoms: C_2  and  C_3
REMARK    3  A    between atoms: N_5  and  C_6
REMARK    4  A    between atoms: C_9  and  N_13
REMARK    5  A    between atoms: C_11  and  C_12
REMARK    6  A    between atoms: N_13  and  C_14
REMARK    7  A    between atoms: C_14  and  C_16
REMARK    8  A    between atoms: C_14  and  C_17
REMARK    9  A    between atoms: N_22  and  C_23
REMARK   10  A    between atoms: C_23  and  C_24
REMARK                            x       y       z     vdW  Elec       q    Type
REMARK                         _______ _______ _______ _____ _____    ______ ____
ROOT
ATOM      1  N   UNL     1      -6.918  -3.587   0.417  0.00  0.00    -0.333 N 
ATOM      2  H   UNL     1      -7.113  -4.534   0.487  0.00  0.00    +0.147 HD
ENDROOT
BRANCH   1   6
ATOM      3  C   UNL     1      -2.968  -2.290   0.111  0.00  0.00    +0.036 A 
ATOM      4  C   UNL     1      -4.004  -1.365   0.112  0.00  0.00    +0.025 A 
ATOM      5  C   UNL     1      -5.312  -1.795   0.213  0.00  0.00    +0.025 A 
ATOM      6  C   UNL     1      -5.592  -3.152   0.313  0.00  0.00    +0.028 A 
ATOM      7  C   UNL     1      -4.556  -4.076   0.312  0.00  0.00    +0.028 A 
ATOM      8  C   UNL     1      -3.248  -3.647   0.206  0.00  0.00    -0.028 A 
ATOM      9  C   UNL     1      -2.123  -4.650   0.199  0.00  0.00    +0.046 C 
BRANCH   3  12
ATOM     10  C   UNL     1      -1.363  -0.670  -0.574  0.00  0.00    +0.217 C 
ATOM     11  O   UNL     1      -2.249  -0.029  -1.098  0.00  0.00    -0.275 OA
ATOM     12  N   UNL     1      -1.640  -1.854   0.008  0.00  0.00    -0.285 N 
ATOM     13  H   UNL     1      -0.921  -2.404   0.355  0.00  0.00    +0.155 HD
BRANCH  10  15
ATOM     14  C   UNL     1       0.090   1.206  -1.294  0.00  0.00    +0.013 C 
ATOM     15  C   UNL     1       0.049  -0.144  -0.575  0.00  0.00    +0.093 C 
ENDBRANCH  10  15
ENDBRANCH   3  12
ENDBRANCH   1   6
BRANCH   1  16
ATOM     16  C   UNL     1      -8.011  -2.611   0.419  0.00  0.00    +0.154 C 
ATOM     17  C   UNL     1      -8.226  -2.090   1.841  0.00  0.00    +0.038 C 
BRANCH  16  18
ATOM     18  C   UNL     1      -9.274  -3.272  -0.070  0.00  0.00    +0.240 C 
ATOM     19  O   UNL     1      -9.262  -4.441  -0.389  0.00  0.00    -0.273 OA
ATOM     20  N   UNL     1     -10.417  -2.562  -0.153  0.00  0.00    -0.239 N 
ATOM     21  C   UNL     1     -11.546  -3.153  -0.591  0.00  0.00    +0.306 C 
ATOM     22  O   UNL     1     -11.535  -4.325  -0.910  0.00  0.00    -0.252 OA
ATOM     23  N   UNL     1     -12.689  -2.443  -0.674  0.00  0.00    -0.291 N 
ATOM     24  H   UNL     1     -10.426  -1.626   0.102  0.00  0.00    +0.159 HD
ATOM     25  H   UNL     1     -12.698  -1.507  -0.418  0.00  0.00    +0.151 HD
BRANCH  23  26
ATOM     26  C   UNL     1     -13.917  -3.085  -1.149  0.00  0.00    +0.219 C 
BRANCH  26  27
ATOM     27  C   UNL     1     -15.059  -2.066  -1.147  0.00  0.00    +0.405 C 
ATOM     28  F   UNL     1     -14.733  -0.999  -1.991  0.00  0.00    -0.169 F 
ATOM     29  F   UNL     1     -16.232  -2.679  -1.601  0.00  0.00    -0.169 F 
ATOM     30  F   UNL     1     -15.255  -1.589   0.153  0.00  0.00    -0.169 F 
ENDBRANCH  26  27
ENDBRANCH  23  26
ENDBRANCH  16  18
ENDBRANCH   1  16
TORSDOF 7
