REMARK  Name = ZINC54276921
REMARK  10 active torsions:
REMARK  status: ('A' for Active; 'I' for Inactive)
REMARK    1  A    between atoms: C_1  and  C_2
REMARK    2  A    between atoms: C_5  and  S_21
REMARK    3  A    between atoms: C_7  and  C_8
REMARK    4  A    between atoms: N_10  and  C_11
REMARK    5  A    between atoms: C_13  and  C_19
REMARK    6  A    between atoms: C_13  and  C_20
REMARK    7  A    between atoms: C_15  and  C_17
REMARK    8  A    between atoms: C_15  and  C_18
REMARK    9  A    between atoms: S_21  and  N_24
REMARK   10  A    between atoms: N_24  and  C_25
REMARK                            x       y       z     vdW  Elec       q    Type
REMARK                         _______ _______ _______ _____ _____    ______ ____
ROOT
ATOM      1  C   UNL     1       0.208   0.464   2.971  0.00  0.00    +0.245 C 
ATOM      2  O   UNL     1       0.186   1.676   3.050  0.00  0.00    -0.270 OA
ATOM      3  N   UNL     1       0.460  -0.279   4.067  0.00  0.00    -0.309 N 
ATOM      4  H   UNL     1       0.477  -1.247   4.003  0.00  0.00    +0.149 HD
ENDROOT
BRANCH   3   5
ATOM      5  C   UNL     1       0.708   0.377   5.357  0.00  0.00    +0.071 C 
ATOM      6  C   UNL     1       2.194   0.720   5.469  0.00  0.00    +0.009 C 
ATOM      7  C   UNL     1       2.471   1.393   6.813  0.00  0.00    -0.072 C 
ATOM      8  N   UNL     1       1.996   0.595   7.934  0.00  0.00    +0.386 N 
ATOM      9  C   UNL     1       0.656   0.037   7.847  0.00  0.00    -0.072 C 
ATOM     10  C   UNL     1       0.351  -0.586   6.489  0.00  0.00    +0.009 C 
ATOM     11  C   UNL     1       0.552  -1.089   8.902  0.00  0.00    -0.010 C 
ATOM     12  C   UNL     1      -0.413   1.076   8.196  0.00  0.00    -0.010 C 
ATOM     13  C   UNL     1       1.890   2.806   6.826  0.00  0.00    -0.010 C 
ATOM     14  C   UNL     1       4.005   1.526   6.952  0.00  0.00    -0.010 C 
ATOM     15  H   UNL     1       2.655  -0.174   8.082  0.00  0.00    -0.084 HD
ATOM     16  H   UNL     1       2.054   1.165   8.781  0.00  0.00    -0.084 HD
ENDBRANCH   3   5
BRANCH   1  23
ATOM     17  C   UNL     1      -0.603   2.051   0.692  0.00  0.00    +0.044 C 
ATOM     18  C   UNL     1      -0.433   0.558   0.565  0.00  0.00    -0.038 A 
ATOM     19  C   UNL     1      -0.659  -0.063  -0.645  0.00  0.00    +0.006 A 
ATOM     20  C   UNL     1      -0.503  -1.433  -0.763  0.00  0.00    +0.029 A 
ATOM     21  C   UNL     1      -0.121  -2.188   0.332  0.00  0.00    +0.106 A 
ATOM     22  C   UNL     1       0.109  -1.579   1.548  0.00  0.00    +0.041 A 
ATOM     23  C   UNL     1      -0.042  -0.197   1.672  0.00  0.00    +0.041 A 
BRANCH  21  24
ATOM     24  S   UNL     1       0.074  -3.932   0.171  0.00  0.00    +0.058 S 
ATOM     25  O   UNL     1      -0.092  -4.480   1.472  0.00  0.00    -0.153 OA
ATOM     26  O   UNL     1      -0.729  -4.331  -0.931  0.00  0.00    -0.153 OA
BRANCH  24  27
ATOM     27  N   UNL     1       1.647  -4.212  -0.263  0.00  0.00    -0.193 NA
ATOM     28  C   UNL     1       2.733  -3.877   0.662  0.00  0.00    +0.127 C 
ATOM     29  H   UNL     1       1.850  -4.597  -1.129  0.00  0.00    +0.148 HD
ENDBRANCH  24  27
ENDBRANCH  21  24
ENDBRANCH   1  23
TORSDOF 4
