REMARK  Name = ZINC22681107
REMARK  9 active torsions:
REMARK  status: ('A' for Active; 'I' for Inactive)
REMARK    1  A    between atoms: C_1  and  C_2
REMARK    2  A    between atoms: C_2  and  N_3
REMARK    3  A    between atoms: N_12  and  C_15
REMARK    4  A    between atoms: C_15  and  C_16
REMARK    5  A    between atoms: N_18  and  C_19
REMARK    6  A    between atoms: C_19  and  C_20
REMARK    7  A    between atoms: C_20  and  C_22
REMARK    8  A    between atoms: C_20  and  N_27
REMARK    9  A    between atoms: C_30  and  C_33
REMARK                            x       y       z     vdW  Elec       q    Type
REMARK                         _______ _______ _______ _____ _____    ______ ____
ROOT
ATOM      1  C   UNL     1       0.969   4.024   1.519  0.00  0.00    +0.233 C 
ATOM      2  O   UNL     1       1.074   3.245   2.442  0.00  0.00    -0.274 OA
ATOM      3  N   UNL     1       1.021   5.351   1.747  0.00  0.00    -0.315 N 
ATOM      4  H   UNL     1       0.926   6.057   0.910  0.00  0.00    +0.149 HD
ENDROOT
BRANCH   1   5
ATOM      5  C   UNL     1       0.781   3.507   0.116  0.00  0.00    +0.222 C 
BRANCH   5  15
ATOM      6  N   UNL     1       1.958   0.016  -0.001  0.00  0.00    -0.261 N 
ATOM      7  C   UNL     1       0.841  -0.728   0.150  0.00  0.00    +0.264 A 
ATOM      8  O   UNL     1       0.897  -1.942   0.155  0.00  0.00    -0.267 OA
ATOM      9  C   UNL     1      -0.447  -0.029   0.307  0.00  0.00    +0.063 A 
ATOM     10  C   UNL     1      -1.643  -0.725   0.468  0.00  0.00    +0.015 A 
ATOM     11  C   UNL     1      -2.822  -0.025   0.612  0.00  0.00    +0.001 A 
ATOM     12  C   UNL     1      -2.822   1.361   0.598  0.00  0.00    +0.002 A 
ATOM     13  C   UNL     1      -1.643   2.063   0.445  0.00  0.00    +0.027 A 
ATOM     14  C   UNL     1      -0.448   1.376   0.294  0.00  0.00    +0.059 A 
ATOM     15  N   UNL     1       0.758   2.043   0.133  0.00  0.00    -0.284 N 
ATOM     16  C   UNL     1       1.906   1.357  -0.007  0.00  0.00    +0.333 A 
ATOM     17  O   UNL     1       2.942   1.979  -0.146  0.00  0.00    -0.246 OA
BRANCH   6  19
ATOM     18  C   UNL     1       3.519  -0.901  -1.645  0.00  0.00    +0.027 C 
ATOM     19  C   UNL     1       3.252  -0.653  -0.159  0.00  0.00    +0.126 C 
ENDBRANCH   6  19
ENDBRANCH   5  15
ENDBRANCH   1   5
BRANCH   3  20
ATOM     20  C   UNL     1       1.204   5.853   3.112  0.00  0.00    +0.094 C 
BRANCH  20  21
ATOM     21  C   UNL     1       1.358   7.374   3.079  0.00  0.00    -0.013 C 
BRANCH  21  22
ATOM     22  N   UNL     1       0.218   7.967   2.366  0.00  0.00    +0.386 N 
ATOM     23  C   UNL     1      -1.055   7.518   2.945  0.00  0.00    -0.078 C 
ATOM     24  C   UNL     1      -2.216   8.036   2.092  0.00  0.00    -0.015 C 
ATOM     25  C   UNL     1      -2.166   9.565   2.045  0.00  0.00    -0.018 C 
ATOM     26  C   UNL     1      -0.811  10.007   1.484  0.00  0.00    -0.015 C 
ATOM     27  C   UNL     1       0.308   9.432   2.355  0.00  0.00    -0.078 C 
ATOM     28  C   UNL     1      -3.287  10.086   1.144  0.00  0.00    +0.007 C 
ATOM     29  H   UNL     1       0.252   7.620   1.323  0.00  0.00    -0.081 HD
ENDBRANCH  21  22
BRANCH  21  30
ATOM     30  C   UNL     1       2.637   7.735   2.368  0.00  0.00    -0.022 A 
ATOM     31  C   UNL     1       3.835   8.089   2.893  0.00  0.00    +0.009 A 
ATOM     32  C   UNL     1       4.883   8.377   2.039  0.00  0.00    +0.008 A 
ATOM     33  C   UNL     1       4.678   8.306   0.701  0.00  0.00    +0.045 A 
ATOM     34  S   UNL     1       2.965   7.813   0.615  0.00  0.00    -0.103 S 
ENDBRANCH  21  30
ENDBRANCH  20  21
ENDBRANCH   3  20
TORSDOF 7
