REMARK  Name = ZINC66470856
REMARK  12 active torsions:
REMARK  status: ('A' for Active; 'I' for Inactive)
REMARK    1  A    between atoms: C_1  and  C_2
REMARK    2  A    between atoms: C_2  and  C_3
REMARK    3  A    between atoms: C_3  and  C_28
REMARK    4  A    between atoms: N_6  and  N_10
REMARK    5  A    between atoms: C_11  and  C_13
REMARK    6  A    between atoms: C_13  and  N_14
REMARK    7  A    between atoms: N_14  and  C_15
REMARK    8  A    between atoms: C_18  and  C_22
REMARK    9  A    between atoms: C_19  and  C_21
REMARK   10  A    between atoms: N_24  and  C_25
REMARK   11  A    between atoms: C_25  and  C_26
REMARK   12  A    between atoms: C_25  and  C_27
REMARK                            x       y       z     vdW  Elec       q    Type
REMARK                         _______ _______ _______ _____ _____    ______ ____
ROOT
ATOM      1  C   UNL     1      -0.202  -5.511   4.602  0.00  0.00    +0.199 C 
ENDROOT
BRANCH   1   3
ATOM      2  N   UNL     1      -0.905  -3.571   3.237  0.00  0.00    -0.222 N 
ATOM      3  C   UNL     1      -0.154  -4.046   4.251  0.00  0.00    +0.247 C 
ATOM      4  O   UNL     1       0.559  -3.294   4.881  0.00  0.00    -0.273 OA
ATOM      5  H   UNL     1      -1.476  -4.172   2.733  0.00  0.00    +0.174 HD
BRANCH   2   9
ATOM      6  C   UNL     1      -0.442  -0.210   1.888  0.00  0.00    +0.111 C 
ATOM      7  C   UNL     1      -0.221  -1.709   1.836  0.00  0.00    +0.263 C 
ATOM      8  O   UNL     1       0.403  -2.328   1.001  0.00  0.00    -0.271 OA
ATOM      9  N   UNL     1      -0.861  -2.209   2.911  0.00  0.00    -0.137 N 
ATOM     10  C   UNL     1      -1.450  -1.245   3.628  0.00  0.00    +0.326 C 
ATOM     11  O   UNL     1      -2.087  -1.451   4.642  0.00  0.00    -0.251 OA
ATOM     12  N   UNL     1      -1.258  -0.023   3.100  0.00  0.00    -0.284 N 
ATOM     13  C   UNL     1       0.891   0.530   2.016  0.00  0.00    +0.041 C 
ATOM     14  H   UNL     1      -1.591   0.818   3.450  0.00  0.00    +0.151 HD
BRANCH   6  16
ATOM     15  C   UNL     1      -1.508   1.759   0.779  0.00  0.00    +0.006 C 
ATOM     16  C   UNL     1      -1.203   0.265   0.649  0.00  0.00    +0.032 C 
ENDBRANCH   6  16
ENDBRANCH   2   9
ENDBRANCH   1   3
BRANCH   1  17
ATOM     17  N   UNL     1       0.697  -5.772   5.729  0.00  0.00    -0.335 N 
ATOM     18  H   UNL     1       1.204  -5.045   6.124  0.00  0.00    +0.147 HD
BRANCH  17  19
ATOM     19  C   UNL     1       0.822  -7.061   6.234  0.00  0.00    +0.028 A 
ATOM     20  C   UNL     1       0.097  -8.104   5.663  0.00  0.00    +0.023 A 
ATOM     21  C   UNL     1       0.218  -9.382   6.161  0.00  0.00    +0.015 A 
ATOM     22  C   UNL     1       1.071  -9.632   7.240  0.00  0.00    +0.040 A 
ATOM     23  C   UNL     1       1.797  -8.582   7.811  0.00  0.00    -0.037 A 
ATOM     24  C   UNL     1       1.675  -7.308   7.306  0.00  0.00    +0.027 A 
ATOM     25  C   UNL     1       2.716  -8.847   8.975  0.00  0.00    +0.044 C 
BRANCH  22  26
ATOM     26  C   UNL     1       1.203 -10.999   7.776  0.00  0.00    +0.245 C 
ATOM     27  O   UNL     1       2.027 -11.238   8.638  0.00  0.00    -0.270 OA
ATOM     28  N   UNL     1       0.411 -11.985   7.311  0.00  0.00    -0.309 N 
ATOM     29  H   UNL     1      -0.247 -11.795   6.623  0.00  0.00    +0.149 HD
BRANCH  28  30
ATOM     30  C   UNL     1       0.542 -13.344   7.843  0.00  0.00    +0.067 C 
ATOM     31  C   UNL     1      -0.780 -14.092   7.662  0.00  0.00    +0.027 C 
ATOM     32  C   UNL     1       1.652 -14.081   7.091  0.00  0.00    +0.027 C 
ENDBRANCH  28  30
ENDBRANCH  22  26
ENDBRANCH  17  19
ENDBRANCH   1  17
TORSDOF 7
