REMARK  Name = ZINC20020594
REMARK  4 active torsions:
REMARK  status: ('A' for Active; 'I' for Inactive)
REMARK    1  A    between atoms: C_3  and  O_10
REMARK    2  A    between atoms: C_6  and  C_7
REMARK    3  A    between atoms: C_7  and  N_9
REMARK    4  A    between atoms: O_10  and  C_11
REMARK                            x       y       z     vdW  Elec       q    Type
REMARK                         _______ _______ _______ _____ _____    ______ ____
ROOT
ATOM      1  C   UNL     1      -1.410   3.731  -0.619  0.00  0.00    +0.014 A 
ATOM      2  C   UNL     1      -2.626   4.376  -0.609  0.00  0.00    +0.047 A 
ATOM      3  C   UNL     1      -3.715   3.800   0.036  0.00  0.00    +0.128 A 
ATOM      4  C   UNL     1      -3.582   2.569   0.667  0.00  0.00    +0.047 A 
ATOM      5  C   UNL     1      -2.371   1.914   0.656  0.00  0.00    +0.014 A 
ATOM      6  C   UNL     1      -1.274   2.490   0.009  0.00  0.00    +0.003 A 
ENDROOT
BRANCH   6   7
ATOM      7  C   UNL     1       0.025   1.792  -0.005  0.00  0.00    +0.077 C 
ATOM      8  S   UNL     1       0.078   0.083  -0.092  0.00  0.00    -0.035 S 
BRANCH   7   9
ATOM      9  N   UNL     1       1.171   2.500   0.045  0.00  0.00    -0.352 N 
ATOM     10  H   UNL     1       2.140   1.980   0.034  0.00  0.00    +0.143 HD
ATOM     11  H   UNL     1       1.137   3.599   0.096  0.00  0.00    +0.143 HD
ENDBRANCH   7   9
ENDBRANCH   6   7
BRANCH   3  12
ATOM     12  O   UNL     1      -4.910   4.442   0.049  0.00  0.00    -0.456 OA
BRANCH  12  13
ATOM     13  C   UNL     1      -5.575   4.579  -1.129  0.00  0.00    +0.132 A 
ATOM     14  C   UNL     1      -5.081   3.954  -2.267  0.00  0.00    +0.047 A 
ATOM     15  C   UNL     1      -5.763   4.098  -3.463  0.00  0.00    +0.022 A 
ATOM     16  C   UNL     1      -6.910   4.851  -3.503  0.00  0.00    +0.061 A 
ATOM     17  C   UNL     1      -7.435   5.494  -2.373  0.00  0.00    +0.150 A 
ATOM     18  C   UNL     1      -6.731   5.330  -1.173  0.00  0.00    +0.093 A 
ATOM     19  O   UNL     1      -8.568   6.192  -2.586  0.00  0.00    -0.416 OA
ATOM     20  C   UNL     1      -9.134   6.253  -3.803  0.00  0.00    +0.379 A 
ATOM     21  O   UNL     1     -10.145   6.839  -4.139  0.00  0.00    -0.237 OA
ATOM     22  S   UNL     1      -8.068   5.290  -4.777  0.00  0.00    -0.004 S 
ENDBRANCH  12  13
ENDBRANCH   3  12
TORSDOF 4
