REMARK  Name = ZINC44963350
REMARK  8 active torsions:
REMARK  status: ('A' for Active; 'I' for Inactive)
REMARK    1  A    between atoms: C_1  and  C_2
REMARK    2  A    between atoms: C_18  and  C_33
REMARK    3  A    between atoms: C_20  and  O_31
REMARK    4  A    between atoms: C_23  and  C_30
REMARK    5  A    between atoms: C_24  and  C_25
REMARK    6  A    between atoms: C_24  and  O_29
REMARK    7  A    between atoms: C_25  and  C_27
REMARK    8  A    between atoms: C_27  and  O_28
REMARK                            x       y       z     vdW  Elec       q    Type
REMARK                         _______ _______ _______ _____ _____    ______ ____
ROOT
ATOM      1  C   UNL     1       0.288   1.492  -0.172  0.00  0.00    +0.011 C 
ATOM      2  C   UNL     1       0.186  -0.031  -0.097  0.00  0.00    +0.026 C 
ATOM      3  C   UNL     1      -1.297  -0.473  -0.174  0.00  0.00    +0.011 C 
ATOM      4  C   UNL     1      -1.367  -1.666   0.790  0.00  0.00    +0.005 C 
ATOM      5  C   UNL     1      -2.741  -2.069   1.232  0.00  0.00    +0.037 C 
ATOM      6  C   UNL     1      -3.638  -2.595   0.116  0.00  0.00    +0.048 C 
ATOM      7  C   UNL     1      -3.973  -1.511  -0.894  0.00  0.00    +0.194 C 
ATOM      8  C   UNL     1      -4.073  -0.145  -0.276  0.00  0.00    -0.020 C 
ATOM      9  C   UNL     1      -4.230   0.886  -1.135  0.00  0.00    +0.054 C 
ATOM     10  C   UNL     1      -4.347   2.245  -0.555  0.00  0.00    +0.179 C 
ATOM     11  O   UNL     1      -5.031   3.114  -1.076  0.00  0.00    -0.288 OA
ATOM     12  C   UNL     1      -3.581   2.494   0.691  0.00  0.00    +0.047 C 
ATOM     13  C   UNL     1      -3.430   1.456   1.533  0.00  0.00    -0.009 C 
ATOM     14  C   UNL     1      -4.009   0.121   1.186  0.00  0.00    +0.047 C 
ATOM     15  C   UNL     1      -3.481  -1.009   2.030  0.00  0.00    +0.153 C 
ATOM     16  C   UNL     1      -2.628  -0.540   3.201  0.00  0.00    +0.154 C 
ATOM     17  C   UNL     1      -1.228  -0.128   2.773  0.00  0.00    +0.044 C 
ATOM     18  C   UNL     1      -0.490  -1.195   1.977  0.00  0.00    +0.010 C 
ATOM     19  C   UNL     1       0.718  -0.542   1.254  0.00  0.00    +0.134 C 
ATOM     20  C   UNL     1      -0.037  -2.373   2.844  0.00  0.00    +0.015 C 
ATOM     21  F   UNL     1      -4.616  -1.645   2.586  0.00  0.00    -0.238 F 
ATOM     22  C   UNL     1      -5.481   0.228   1.614  0.00  0.00    +0.023 C 
ATOM     23  F   UNL     1      -3.062  -1.510  -1.949  0.00  0.00    -0.241 F 
ENDROOT
BRANCH  19  24
ATOM     24  C   UNL     1       1.309   0.587   2.050  0.00  0.00    +0.190 C 
ATOM     25  O   UNL     1       0.609   1.501   2.414  0.00  0.00    -0.292 OA
BRANCH  24  26
ATOM     26  C   UNL     1       2.776   0.578   2.395  0.00  0.00    +0.233 C 
BRANCH  26  27
ATOM     27  O   UNL     1       3.095   1.748   3.150  0.00  0.00    -0.387 OA
ATOM     28  H   UNL     1       4.025   1.809   3.407  0.00  0.00    +0.210 HD
ENDBRANCH  26  27
ENDBRANCH  24  26
ENDBRANCH  19  24
BRANCH  19  29
ATOM     29  O   UNL     1       1.725  -1.539   1.021  0.00  0.00    -0.380 OA
ATOM     30  H   UNL     1       2.495  -1.213   0.535  0.00  0.00    +0.211 HD
ENDBRANCH  19  29
BRANCH  16  31
ATOM     31  O   UNL     1      -2.556  -1.575   4.191  0.00  0.00    -0.389 OA
ATOM     32  H   UNL     1      -2.027  -1.342   4.966  0.00  0.00    +0.210 HD
ENDBRANCH  16  31
TORSDOF 5
