REMARK  Name = ZINC20690703
REMARK  7 active torsions:
REMARK  status: ('A' for Active; 'I' for Inactive)
REMARK    1  A    between atoms: C_1  and  O_2
REMARK    2  A    between atoms: O_2  and  C_3
REMARK    3  A    between atoms: C_6  and  C_10
REMARK    4  A    between atoms: C_8  and  O_9
REMARK    5  A    between atoms: C_23  and  O_26
REMARK    6  A    between atoms: O_26  and  C_27
REMARK    7  A    between atoms: C_27  and  C_28
REMARK                            x       y       z     vdW  Elec       q    Type
REMARK                         _______ _______ _______ _____ _____    ______ ____
ROOT
ATOM      1  C   UNL     1      -4.868   5.210  -3.711  0.00  0.00    +0.105 C 
ATOM      2  C   UNL     1      -5.466   6.477  -3.135  0.00  0.00    +0.029 C 
ATOM      3  C   UNL     1      -6.396   7.304  -4.030  0.00  0.00    +0.033 C 
ATOM      4  C   UNL     1      -6.167   8.716  -3.485  0.00  0.00    -0.030 C 
ATOM      5  C   UNL     1      -4.960   8.798  -2.934  0.00  0.00    -0.023 C 
ATOM      6  C   UNL     1      -4.281   7.480  -3.056  0.00  0.00    +0.049 C 
ATOM      7  C   UNL     1      -3.329   6.944  -2.058  0.00  0.00    -0.016 A 
ATOM      8  C   UNL     1      -2.560   7.776  -1.270  0.00  0.00    +0.006 A 
ATOM      9  C   UNL     1      -1.652   7.250  -0.371  0.00  0.00    +0.004 A 
ATOM     10  C   UNL     1      -1.514   5.878  -0.260  0.00  0.00    +0.047 A 
ATOM     11  C   UNL     1      -2.285   5.038  -1.038  0.00  0.00    +0.142 A 
ATOM     12  C   UNL     1      -3.209   5.558  -1.953  0.00  0.00    +0.074 A 
ATOM     13  N   UNL     1      -3.976   4.648  -2.684  0.00  0.00    -0.334 N 
ATOM     14  H   UNL     1      -3.937   3.561  -2.525  0.00  0.00    +0.147 HD
ENDROOT
BRANCH   1  18
ATOM     15  C   UNL     1      -7.974   2.417  -4.623  0.00  0.00    +0.161 A 
ATOM     16  C   UNL     1      -7.558   2.590  -3.313  0.00  0.00    +0.050 A 
ATOM     17  C   UNL     1      -6.550   3.490  -3.022  0.00  0.00    +0.009 A 
ATOM     18  C   UNL     1      -5.963   4.226  -4.034  0.00  0.00    -0.023 A 
ATOM     19  C   UNL     1      -6.373   4.058  -5.343  0.00  0.00    +0.054 A 
ATOM     20  C   UNL     1      -7.380   3.153  -5.643  0.00  0.00    +0.159 A 
BRANCH  15  22
ATOM     21  C   UNL     1      -9.527   0.806  -3.815  0.00  0.00    +0.277 C 
ATOM     22  O   UNL     1      -8.962   1.527  -4.912  0.00  0.00    -0.491 OA
ENDBRANCH  15  22
BRANCH  20  23
ATOM     23  O   UNL     1      -7.785   2.987  -6.930  0.00  0.00    -0.503 OA
ATOM     24  H   UNL     1      -7.314   3.570  -7.735  0.00  0.00    +0.292 HD
ENDBRANCH  20  23
ENDBRANCH   1  18
BRANCH  11  25
ATOM     25  O   UNL     1      -2.140   3.691  -0.920  0.00  0.00    -0.486 OA
BRANCH  25  26
ATOM     26  C   UNL     1      -1.176   3.222   0.025  0.00  0.00    +0.256 C 
BRANCH  26  27
ATOM     27  C   UNL     1      -1.156   1.715   0.017  0.00  0.00    +0.006 C 
ATOM     28  C   UNL     1      -0.013   1.076   0.008  0.00  0.00    +0.007 C 
ENDBRANCH  26  27
ENDBRANCH  25  26
ENDBRANCH  11  25
TORSDOF 6
