REMARK  Name = ZINC04590986
REMARK  14 active torsions:
REMARK  status: ('A' for Active; 'I' for Inactive)
REMARK    1  A    between atoms: C_1  and  C_2
REMARK    2  A    between atoms: C_2  and  C_3
REMARK    3  A    between atoms: C_2  and  C_4
REMARK    4  A    between atoms: C_2  and  C_5
REMARK    5  A    between atoms: C_8  and  O_11
REMARK    6  A    between atoms: O_11  and  C_12
REMARK    7  A    between atoms: C_12  and  C_13
REMARK    8  A    between atoms: C_13  and  C_14
REMARK    9  A    between atoms: C_14  and  O_15
REMARK   10  A    between atoms: O_15  and  C_16
REMARK   11  A    between atoms: C_19  and  C_24
REMARK   12  A    between atoms: C_21  and  O_22
REMARK   13  A    between atoms: O_22  and  C_23
REMARK   14  A    between atoms: N_25  and  N_26
REMARK                            x       y       z     vdW  Elec       q    Type
REMARK                         _______ _______ _______ _____ _____    ______ ____
ROOT
ATOM      1  C   UNL     1      -0.218   1.221  -4.858  0.00  0.00    +0.162 A 
ATOM      2  C   UNL     1       0.928   0.441  -4.926  0.00  0.00    +0.050 A 
ATOM      3  C   UNL     1       1.446   0.077  -6.151  0.00  0.00    +0.013 A 
ATOM      4  C   UNL     1       0.824   0.502  -7.327  0.00  0.00    -0.002 A 
ATOM      5  C   UNL     1      -0.327   1.292  -7.258  0.00  0.00    +0.059 A 
ATOM      6  C   UNL     1      -0.843   1.649  -6.027  0.00  0.00    +0.162 A 
ENDROOT
BRANCH   6   7
ATOM      7  O   UNL     1      -1.963   2.418  -5.956  0.00  0.00    -0.491 OA
ATOM      8  C   UNL     1      -2.552   2.821  -7.194  0.00  0.00    +0.277 C 
ENDBRANCH   6   7
BRANCH   4   9
ATOM      9  C   UNL     1       1.379   0.119  -8.638  0.00  0.00    +0.138 C 
ATOM     10  N   UNL     1       2.448  -0.615  -8.700  0.00  0.00    -0.186 NA
BRANCH  10  11
ATOM     11  N   UNL     1       2.976  -0.980  -9.945  0.00  0.00    -0.191 N 
ATOM     12  C   UNL     1       4.086  -1.742 -10.010  0.00  0.00    +0.317 C 
ATOM     13  O   UNL     1       4.544  -2.058 -11.091  0.00  0.00    -0.251 OA
ATOM     14  N   UNL     1       4.687  -2.154  -8.876  0.00  0.00    -0.312 N 
ATOM     15  H   UNL     1       2.543  -0.683 -10.761  0.00  0.00    +0.179 HD
ATOM     16  H   UNL     1       4.321  -1.901  -8.014  0.00  0.00    +0.147 HD
ATOM     17  H   UNL     1       5.486  -2.702  -8.922  0.00  0.00    +0.147 HD
ENDBRANCH  10  11
ENDBRANCH   4   9
BRANCH   1  18
ATOM     18  O   UNL     1      -0.728   1.573  -3.648  0.00  0.00    -0.488 OA
BRANCH  18  19
ATOM     19  C   UNL     1      -0.037   1.099  -2.490  0.00  0.00    +0.232 C 
BRANCH  19  20
ATOM     20  C   UNL     1      -0.753   1.593  -1.232  0.00  0.00    +0.082 C 
BRANCH  20  21
ATOM     21  C   UNL     1      -0.013   1.086   0.008  0.00  0.00    +0.232 C 
BRANCH  21  22
ATOM     22  O   UNL     1      -0.682   1.547   1.184  0.00  0.00    -0.492 OA
BRANCH  22  26
ATOM     23  C   UNL     1       0.936   0.440   4.814  0.00  0.00    -0.042 A 
ATOM     24  C   UNL     1      -0.203   1.223   4.776  0.00  0.00    +0.008 A 
ATOM     25  C   UNL     1      -0.747   1.595   3.561  0.00  0.00    +0.046 A 
ATOM     26  C   UNL     1      -0.149   1.182   2.380  0.00  0.00    +0.121 A 
ATOM     27  C   UNL     1       0.991   0.392   2.421  0.00  0.00    +0.046 A 
ATOM     28  C   UNL     1       1.534   0.028   3.638  0.00  0.00    +0.008 A 
BRANCH  23  30
ATOM     29  C   UNL     1       0.496  -0.771   6.933  0.00  0.00    +0.015 C 
ATOM     30  C   UNL     1       1.527   0.036   6.140  0.00  0.00    -0.013 C 
ATOM     31  C   UNL     1       2.772  -0.820   5.904  0.00  0.00    +0.015 C 
ATOM     32  C   UNL     1       1.911   1.288   6.930  0.00  0.00    +0.015 C 
ENDBRANCH  23  30
ENDBRANCH  22  26
ENDBRANCH  21  22
ENDBRANCH  20  21
ENDBRANCH  19  20
ENDBRANCH  18  19
ENDBRANCH   1  18
TORSDOF 10
