REMARK  Name = ZINC21026586
REMARK  6 active torsions:
REMARK  status: ('A' for Active; 'I' for Inactive)
REMARK    1  A    between atoms: C_1  and  C_2
REMARK    2  A    between atoms: C_2  and  C_3
REMARK    3  A    between atoms: C_6  and  N_20
REMARK    4  A    between atoms: C_8  and  C_9
REMARK    5  A    between atoms: C_9  and  C_11
REMARK    6  A    between atoms: C_9  and  N_19
REMARK                            x       y       z     vdW  Elec       q    Type
REMARK                         _______ _______ _______ _____ _____    ______ ____
ROOT
ATOM      1  C   UNL     1      -0.858   1.496  -1.019  0.00  0.00    -0.012 C 
ENDROOT
BRANCH   1   2
ATOM      2  C   UNL     1       0.552   1.027  -0.766  0.00  0.00    -0.043 A 
ATOM      3  C   UNL     1       0.944   0.673   0.511  0.00  0.00    +0.006 A 
ATOM      4  C   UNL     1       2.236   0.243   0.745  0.00  0.00    +0.038 A 
ATOM      5  C   UNL     1       3.140   0.167  -0.302  0.00  0.00    +0.124 A 
ATOM      6  C   UNL     1       2.747   0.522  -1.581  0.00  0.00    +0.053 A 
ATOM      7  C   UNL     1       1.452   0.947  -1.814  0.00  0.00    +0.022 A 
ATOM      8 BR   UNL     1       0.913   1.424  -3.562  0.00  0.00    -0.050 Br
ATOM      9  F   UNL     1       4.404  -0.253  -0.075  0.00  0.00    -0.205 F 
ENDBRANCH   1   2
BRANCH   1  15
ATOM     10  C   UNL     1      -1.977   3.679  -1.515  0.00  0.00    -0.046 A 
ATOM     11  C   UNL     1      -2.022   5.059  -1.464  0.00  0.00    +0.006 A 
ATOM     12  C   UNL     1      -0.988   5.763  -0.874  0.00  0.00    +0.033 A 
ATOM     13  C   UNL     1       0.088   5.085  -0.331  0.00  0.00    +0.126 A 
ATOM     14  C   UNL     1       0.130   3.704  -0.379  0.00  0.00    +0.035 A 
ATOM     15  C   UNL     1      -0.904   3.001  -0.968  0.00  0.00    -0.052 A 
BRANCH  13  16
ATOM     16  N   UNL     1       1.194   5.838   0.300  0.00  0.00    +0.056 N 
ATOM     17  O   UNL     1       2.143   5.242   0.778  0.00  0.00    -0.126 OA
ATOM     18  O   UNL     1       1.157   7.055   0.342  0.00  0.00    -0.126 OA
ENDBRANCH  13  16
BRANCH  10  20
ATOM     19  C   UNL     1      -4.135   2.529  -1.102  0.00  0.00    +0.009 C 
ATOM     20  C   UNL     1      -3.102   2.912  -2.163  0.00  0.00    +0.032 C 
ENDBRANCH  10  20
ENDBRANCH   1  15
BRANCH   1  21
ATOM     21  N   UNL     1      -1.749   0.943   0.009  0.00  0.00    +0.385 N 
ATOM     22  H   UNL     1      -1.716  -0.156  -0.028  0.00  0.00    -0.089 HD
ATOM     23  H   UNL     1      -2.778   1.285  -0.175  0.00  0.00    -0.089 HD
ATOM     24  H   UNL     1      -1.421   1.286   1.002  0.00  0.00    -0.089 HD
ENDBRANCH   1  21
TORSDOF 5
