REMARK  Name = ZINC03292330
REMARK  10 active torsions:
REMARK  status: ('A' for Active; 'I' for Inactive)
REMARK    1  A    between atoms: C_1  and  C_2
REMARK    2  A    between atoms: C_6  and  C_9
REMARK    3  A    between atoms: C_7  and  O_8
REMARK    4  A    between atoms: C_9  and  O_11
REMARK    5  A    between atoms: O_11  and  C_12
REMARK    6  A    between atoms: C_12  and  C_13
REMARK    7  A    between atoms: N_18  and  C_19
REMARK    8  A    between atoms: C_19  and  C_20
REMARK    9  A    between atoms: C_19  and  C_21
REMARK   10  A    between atoms: C_19  and  C_22
REMARK                            x       y       z     vdW  Elec       q    Type
REMARK                         _______ _______ _______ _____ _____    ______ ____
ROOT
ATOM      1  C   UNL     1       0.064   5.675   0.030  0.00  0.00    +0.328 C 
ENDROOT
BRANCH   1   2
ATOM      2  C   UNL     1      -1.333   6.239   0.046  0.00  0.00    +0.258 C 
ATOM      3  O   UNL     1      -2.289   5.493   0.052  0.00  0.00    -0.272 OA
ATOM      4  N   UNL     1      -1.521   7.574   0.055  0.00  0.00    -0.237 N 
ATOM      5  C   UNL     1      -2.771   8.079   0.069  0.00  0.00    +0.306 C 
ATOM      6  O   UNL     1      -3.728   7.330   0.074  0.00  0.00    -0.252 OA
ATOM      7  N   UNL     1      -2.959   9.413   0.078  0.00  0.00    -0.294 N 
ATOM      8  H   UNL     1      -0.757   8.171   0.051  0.00  0.00    +0.159 HD
ATOM      9  H   UNL     1      -2.195  10.011   0.073  0.00  0.00    +0.151 HD
BRANCH   7  10
ATOM     10  C   UNL     1      -4.317   9.962   0.093  0.00  0.00    +0.028 C 
ATOM     11  C   UNL     1      -5.048   9.477   1.347  0.00  0.00    +0.031 C 
ATOM     12  C   UNL     1      -4.250  11.490   0.100  0.00  0.00    +0.031 C 
ATOM     13  C   UNL     1      -5.072   9.490  -1.151  0.00  0.00    +0.031 C 
ENDBRANCH   7  10
ENDBRANCH   1   2
BRANCH   1  14
ATOM     14  O   UNL     1       0.000   4.225   0.024  0.00  0.00    -0.452 OA
BRANCH  14  15
ATOM     15  C   UNL     1       1.173   3.561   0.009  0.00  0.00    +0.343 C 
ATOM     16  O   UNL     1       2.220   4.177   0.003  0.00  0.00    -0.245 OA
BRANCH  15  22
ATOM     17  C   UNL     1       3.708  -0.748  -0.038  0.00  0.00    +0.047 C 
ATOM     18  C   UNL     1       2.402   0.005  -0.021  0.00  0.00    -0.008 A 
ATOM     19  C   UNL     1       1.207  -0.687  -0.013  0.00  0.00    +0.007 A 
ATOM     20  C   UNL     1       0.002  -0.004   0.002  0.00  0.00    +0.001 A 
ATOM     21  C   UNL     1      -0.017   1.374   0.010  0.00  0.00    +0.018 A 
ATOM     22  C   UNL     1       1.185   2.087   0.002  0.00  0.00    +0.101 A 
ATOM     23  C   UNL     1       2.403   1.392  -0.013  0.00  0.00    +0.134 A 
BRANCH  23  24
ATOM     24  O   UNL     1       3.576   2.073  -0.021  0.00  0.00    -0.506 OA
ATOM     25  H   UNL     1       3.908   2.275  -0.906  0.00  0.00    +0.292 HD
ENDBRANCH  23  24
ENDBRANCH  15  22
ENDBRANCH  14  15
ENDBRANCH   1  14
TORSDOF 6
