REMARK  Name = ZINC61839628
REMARK  5 active torsions:
REMARK  status: ('A' for Active; 'I' for Inactive)
REMARK    1  A    between atoms: C_1  and  C_2
REMARK    2  A    between atoms: C_2  and  C_3
REMARK    3  A    between atoms: C_2  and  C_4
REMARK    4  A    between atoms: C_2  and  C_5
REMARK    5  A    between atoms: C_5  and  C_6
REMARK                            x       y       z     vdW  Elec       q    Type
REMARK                         _______ _______ _______ _____ _____    ______ ____
ROOT
ATOM      1  C   UNL     1       1.678  -1.229  -1.462  0.00  0.00    +0.161 C 
ATOM      2  C   UNL     1       1.858  -2.073  -2.708  0.00  0.00    +0.241 C 
ATOM      3  O   UNL     1       1.505  -1.799  -3.835  0.00  0.00    -0.273 OA
ATOM      4  N   UNL     1       2.493  -3.190  -2.303  0.00  0.00    -0.239 N 
ATOM      5  C   UNL     1       2.736  -3.170  -0.987  0.00  0.00    +0.307 C 
ATOM      6  O   UNL     1       3.299  -4.067  -0.390  0.00  0.00    -0.252 OA
ATOM      7  N   UNL     1       2.291  -2.042  -0.398  0.00  0.00    -0.288 N 
ATOM      8  H   UNL     1       2.742  -3.920  -2.892  0.00  0.00    +0.159 HD
ATOM      9  H   UNL     1       2.359  -1.810   0.542  0.00  0.00    +0.151 HD
ENDROOT
BRANCH   1  10
ATOM     10  C   UNL     1       0.193  -1.000  -1.177  0.00  0.00    +0.038 C 
BRANCH  10  12
ATOM     11  C   UNL     1       0.772   1.243  -0.239  0.00  0.00    +0.010 C 
ATOM     12  C   UNL     1       0.042  -0.074   0.032  0.00  0.00    -0.036 C 
ATOM     13  C   UNL     1       0.646  -0.747   1.267  0.00  0.00    +0.010 C 
ATOM     14  C   UNL     1      -1.442   0.206   0.278  0.00  0.00    +0.010 C 
ENDBRANCH  10  12
ENDBRANCH   1  10
TORSDOF 2
