REMARK  Name = ZINC38999968
REMARK  8 active torsions:
REMARK  status: ('A' for Active; 'I' for Inactive)
REMARK    1  A    between atoms: C_1  and  C_2
REMARK    2  A    between atoms: C_5  and  N_9
REMARK    3  A    between atoms: C_10  and  C_12
REMARK    4  A    between atoms: C_12  and  S_13
REMARK    5  A    between atoms: S_13  and  C_14
REMARK    6  A    between atoms: C_18  and  C_22
REMARK    7  A    between atoms: N_20  and  N_21
REMARK    8  A    between atoms: C_25  and  C_28
REMARK                            x       y       z     vdW  Elec       q    Type
REMARK                         _______ _______ _______ _____ _____    ______ ____
ROOT
ATOM      1  C   UNL     1      -0.368  -8.726   2.233  0.00  0.00    +0.214 C 
ATOM      2  N   UNL     1      -1.643  -9.007   1.521  0.00  0.00    -0.228 NA
ATOM      3  N   UNL     1      -1.363 -10.273   0.826  0.00  0.00    -0.234 NA
ATOM      4  C   UNL     1       0.046 -10.150   0.387  0.00  0.00    +0.185 C 
ATOM      5  N   UNL     1       0.684  -9.165   1.288  0.00  0.00    -0.197 NA
ATOM      6  H   UNL     1      -1.858  -8.273   0.863  0.00  0.00    +0.143 HD
ATOM      7  H   UNL     1      -1.979 -10.395   0.036  0.00  0.00    +0.143 HD
ENDROOT
BRANCH   4   8
ATOM      8  C   UNL     1       0.751 -11.503   0.506  0.00  0.00    +0.187 C 
ATOM      9  C   UNL     1       0.127 -12.518  -0.434  0.00  0.00    +0.034 C 
ATOM     10  C   UNL     1      -0.339 -13.476   0.389  0.00  0.00    +0.091 C 
ATOM     11  N   UNL     1      -0.073 -13.160   1.683  0.00  0.00    -0.154 NA
ATOM     12  N   UNL     1       0.527 -12.090   1.837  0.00  0.00    -0.176 NA
BRANCH  10  13
ATOM     13  C   UNL     1      -1.044 -14.704  -0.055  0.00  0.00    +0.002 A 
ATOM     14  C   UNL     1      -1.261 -14.934  -1.412  0.00  0.00    +0.011 A 
ATOM     15  C   UNL     1      -1.918 -16.077  -1.820  0.00  0.00    +0.020 A 
ATOM     16  C   UNL     1      -2.361 -16.995  -0.883  0.00  0.00    +0.041 A 
ATOM     17  C   UNL     1      -2.148 -16.771   0.466  0.00  0.00    +0.020 A 
ATOM     18  C   UNL     1      -1.487 -15.634   0.884  0.00  0.00    +0.011 A 
ATOM     19 CL   UNL     1      -3.187 -18.430  -1.403  0.00  0.00    -0.084 Cl
ENDBRANCH  10  13
ENDBRANCH   4   8
BRANCH   5  20
ATOM     20  N   UNL     1       1.213  -8.038   0.536  0.00  0.00    -0.264 NA
ATOM     21  H   UNL     1       1.712  -7.403   1.140  0.00  0.00    +0.137 HD
ATOM     22  H   UNL     1       1.800  -8.353  -0.222  0.00  0.00    +0.137 HD
ENDBRANCH   5  20
BRANCH   1  23
ATOM     23  S   UNL     1      -0.211  -6.952   2.579  0.00  0.00    -0.115 S 
BRANCH  23  24
ATOM     24  C   UNL     1      -1.234  -6.701   4.056  0.00  0.00    +0.168 C 
BRANCH  24  26
ATOM     25  N   UNL     1      -1.997  -4.804   5.449  0.00  0.00    -0.285 N 
ATOM     26  C   UNL     1      -1.289  -5.231   4.384  0.00  0.00    +0.227 C 
ATOM     27  O   UNL     1      -0.697  -4.432   3.689  0.00  0.00    -0.275 OA
ATOM     28  H   UNL     1      -2.408  -5.448   6.047  0.00  0.00    +0.155 HD
BRANCH  25  33
ATOM     29  C   UNL     1      -2.571   0.755   6.429  0.00  0.00    +0.045 C 
ATOM     30  C   UNL     1      -2.419  -0.722   6.169  0.00  0.00    -0.032 A 
ATOM     31  C   UNL     1      -2.345  -1.190   4.870  0.00  0.00    +0.006 A 
ATOM     32  C   UNL     1      -2.205  -2.542   4.628  0.00  0.00    +0.023 A 
ATOM     33  C   UNL     1      -2.138  -3.433   5.691  0.00  0.00    +0.035 A 
ATOM     34  C   UNL     1      -2.213  -2.962   6.995  0.00  0.00    +0.043 A 
ATOM     35  C   UNL     1      -2.348  -1.606   7.231  0.00  0.00    +0.046 A 
ATOM     36 CL   UNL     1      -2.434  -1.014   8.860  0.00  0.00    -0.083 Cl
ENDBRANCH  25  33
ENDBRANCH  24  26
ENDBRANCH  23  24
ENDBRANCH   1  23
TORSDOF 7
