REMARK  Name = ZINC10259487
REMARK  8 active torsions:
REMARK  status: ('A' for Active; 'I' for Inactive)
REMARK    1  A    between atoms: C_1  and  C_2
REMARK    2  A    between atoms: C_2  and  C_4
REMARK    3  A    between atoms: C_2  and  N_13
REMARK    4  A    between atoms: N_16  and  N_17
REMARK    5  A    between atoms: C_18  and  C_20
REMARK    6  A    between atoms: C_20  and  C_22
REMARK    7  A    between atoms: C_20  and  O_23
REMARK    8  A    between atoms: O_23  and  C_24
REMARK                            x       y       z     vdW  Elec       q    Type
REMARK                         _______ _______ _______ _____ _____    ______ ____
ROOT
ATOM      1  N   UNL     1       0.742  -0.843   1.060  0.00  0.00    -0.289 N 
ATOM      2  C   UNL     1       2.056  -1.139   1.015  0.00  0.00    +0.316 C 
ATOM      3  O   UNL     1       2.667  -1.035  -0.031  0.00  0.00    -0.251 OA
ATOM      4  N   UNL     1       2.693  -1.550   2.129  0.00  0.00    -0.218 N 
ATOM      5  H   UNL     1       0.255  -0.926   1.895  0.00  0.00    +0.151 HD
ATOM      6  H   UNL     1       3.639  -1.763   2.096  0.00  0.00    +0.174 HD
ENDROOT
BRANCH   4   7
ATOM      7  N   UNL     1       1.990  -1.670   3.334  0.00  0.00    -0.230 N 
ATOM      8  C   UNL     1       2.627  -2.082   4.449  0.00  0.00    +0.270 C 
ATOM      9  O   UNL     1       3.809  -2.348   4.408  0.00  0.00    -0.270 OA
ATOM     10  H   UNL     1       1.044  -1.457   3.367  0.00  0.00    +0.173 HD
BRANCH   8  11
ATOM     11  C   UNL     1       1.870  -2.211   5.745  0.00  0.00    +0.257 C 
ATOM     12  C   UNL     1       0.814  -3.310   5.612  0.00  0.00    +0.062 C 
BRANCH  11  13
ATOM     13  O   UNL     1       2.778  -2.546   6.796  0.00  0.00    -0.480 OA
BRANCH  13  14
ATOM     14  C   UNL     1       2.413  -2.206   8.060  0.00  0.00    +0.122 A 
ATOM     15  C   UNL     1       3.296  -2.396   9.113  0.00  0.00    +0.048 A 
ATOM     16  C   UNL     1       2.923  -2.049  10.397  0.00  0.00    +0.042 A 
ATOM     17  C   UNL     1       1.669  -1.514  10.634  0.00  0.00    +0.124 A 
ATOM     18  C   UNL     1       0.786  -1.325   9.584  0.00  0.00    +0.042 A 
ATOM     19  C   UNL     1       1.158  -1.664   8.298  0.00  0.00    +0.048 A 
ATOM     20  F   UNL     1       1.305  -1.176  11.891  0.00  0.00    -0.205 F 
ENDBRANCH  13  14
ENDBRANCH  11  13
ENDBRANCH   8  11
ENDBRANCH   4   7
BRANCH   1  22
ATOM     21  C   UNL     1       0.234   1.114  -0.316  0.00  0.00    +0.036 C 
ATOM     22  C   UNL     1       0.050  -0.396  -0.151  0.00  0.00    +0.137 C 
BRANCH  22  23
ATOM     23  C   UNL     1      -1.419  -0.713  -0.036  0.00  0.00    +0.126 A 
ATOM     24  C   UNL     1      -2.185  -1.175  -1.034  0.00  0.00    +0.055 A 
ATOM     25  C   UNL     1      -3.532  -1.339  -0.474  0.00  0.00    +0.020 A 
ATOM     26  C   UNL     1      -4.754  -1.772  -0.986  0.00  0.00    +0.011 A 
ATOM     27  C   UNL     1      -5.854  -1.807  -0.174  0.00  0.00    +0.001 A 
ATOM     28  C   UNL     1      -5.761  -1.412   1.153  0.00  0.00    +0.004 A 
ATOM     29  C   UNL     1      -4.561  -0.981   1.676  0.00  0.00    +0.047 A 
ATOM     30  C   UNL     1      -3.431  -0.938   0.869  0.00  0.00    +0.135 A 
ATOM     31  O   UNL     1      -2.150  -0.579   1.085  0.00  0.00    -0.458 OA
ENDBRANCH  22  23
ENDBRANCH   1  22
TORSDOF 6
