REMARK  Name = ZINC14811844
REMARK  12 active torsions:
REMARK  status: ('A' for Active; 'I' for Inactive)
REMARK    1  A    between atoms: C_1  and  O_2
REMARK    2  A    between atoms: O_2  and  C_3
REMARK    3  A    between atoms: C_6  and  C_9
REMARK    4  A    between atoms: C_14  and  O_22
REMARK    5  A    between atoms: C_15  and  O_20
REMARK    6  A    between atoms: O_20  and  C_21
REMARK    7  A    between atoms: O_22  and  C_23
REMARK    8  A    between atoms: C_25  and  O_38
REMARK    9  A    between atoms: C_27  and  O_37
REMARK   10  A    between atoms: C_29  and  O_36
REMARK   11  A    between atoms: C_31  and  C_34
REMARK   12  A    between atoms: C_34  and  O_35
REMARK                            x       y       z     vdW  Elec       q    Type
REMARK                         _______ _______ _______ _____ _____    ______ ____
ROOT
ATOM      1  C   UNL     1       4.889   1.310  -0.039  0.00  0.00    +0.064 A 
ATOM      2  C   UNL     1       4.764  -0.042  -0.045  0.00  0.00    +0.208 A 
ATOM      3  O   UNL     1       3.578  -0.654  -0.037  0.00  0.00    -0.462 OA
ATOM      4  C   UNL     1       2.403   0.007  -0.021  0.00  0.00    +0.142 A 
ATOM      5  C   UNL     1       1.202  -0.691  -0.013  0.00  0.00    +0.096 A 
ATOM      6  C   UNL     1       0.002  -0.004   0.002  0.00  0.00    +0.169 A 
ATOM      7  C   UNL     1      -0.017   1.394   0.010  0.00  0.00    +0.163 A 
ATOM      8  C   UNL     1       1.167   2.101   0.002  0.00  0.00    +0.064 A 
ATOM      9  C   UNL     1       2.382   1.412  -0.014  0.00  0.00    +0.068 A 
ATOM     10  C   UNL     1       3.667   2.133  -0.023  0.00  0.00    +0.200 A 
ATOM     11  O   UNL     1       3.717   3.351  -0.017  0.00  0.00    -0.286 OA
ENDROOT
BRANCH   1  15
ATOM     12  C   UNL     1       8.731   3.134  -0.067  0.00  0.00    +0.120 A 
ATOM     13  C   UNL     1       8.446   2.134   0.852  0.00  0.00    +0.046 A 
ATOM     14  C   UNL     1       7.201   1.541   0.864  0.00  0.00    +0.012 A 
ATOM     15  C   UNL     1       6.229   1.947  -0.049  0.00  0.00    -0.011 A 
ATOM     16  C   UNL     1       6.520   2.948  -0.974  0.00  0.00    +0.012 A 
ATOM     17  C   UNL     1       7.765   3.541  -0.978  0.00  0.00    +0.046 A 
BRANCH  12  19
ATOM     18  C   UNL     1      10.185   4.739  -1.049  0.00  0.00    +0.277 C 
ATOM     19  O   UNL     1       9.959   3.717  -0.077  0.00  0.00    -0.495 OA
ENDBRANCH  12  19
ENDBRANCH   1  15
BRANCH   7  20
ATOM     20  O   UNL     1      -1.204   2.057   0.019  0.00  0.00    -0.491 OA
ATOM     21  C   UNL     1      -1.150   3.485   0.026  0.00  0.00    +0.277 C 
ENDBRANCH   7  20
BRANCH   6  22
ATOM     22  O   UNL     1      -1.168  -0.693   0.010  0.00  0.00    -0.457 OA
BRANCH  22  23
ATOM     23  C   UNL     1      -1.081  -2.119   0.002  0.00  0.00    +0.339 C 
ATOM     24  C   UNL     1      -2.484  -2.717   0.138  0.00  0.00    +0.214 C 
ATOM     25  C   UNL     1      -3.329  -2.296  -1.069  0.00  0.00    +0.180 C 
ATOM     26  C   UNL     1      -2.627  -2.747  -2.353  0.00  0.00    +0.177 C 
ATOM     27  C   UNL     1      -1.218  -2.148  -2.393  0.00  0.00    +0.179 C 
ATOM     28  O   UNL     1      -0.497  -2.554  -1.228  0.00  0.00    -0.331 OA
BRANCH  26  29
ATOM     29  O   UNL     1      -2.540  -4.173  -2.374  0.00  0.00    -0.386 OA
ATOM     30  H   UNL     1      -3.397  -4.620  -2.351  0.00  0.00    +0.210 HD
ENDBRANCH  26  29
BRANCH  25  31
ATOM     31  O   UNL     1      -4.618  -2.908  -0.989  0.00  0.00    -0.386 OA
ATOM     32  H   UNL     1      -5.120  -2.666  -0.199  0.00  0.00    +0.210 HD
ENDBRANCH  25  31
BRANCH  24  33
ATOM     33  O   UNL     1      -3.093  -2.238   1.338  0.00  0.00    -0.383 OA
ATOM     34  H   UNL     1      -2.607  -2.465   2.143  0.00  0.00    +0.210 HD
ENDBRANCH  24  33
BRANCH  27  35
ATOM     35  C   UNL     1      -0.488  -2.642  -3.643  0.00  0.00    +0.190 C 
BRANCH  35  36
ATOM     36  O   UNL     1       0.782  -1.994  -3.741  0.00  0.00    -0.392 OA
ATOM     37  H   UNL     1       1.301  -2.260  -4.512  0.00  0.00    +0.210 HD
ENDBRANCH  35  36
ENDBRANCH  27  35
ENDBRANCH  22  23
ENDBRANCH   6  22
TORSDOF 10
