REMARK  Name = ZINC00876514
REMARK  10 active torsions:
REMARK  status: ('A' for Active; 'I' for Inactive)
REMARK    1  A    between atoms: C_1  and  C_2
REMARK    2  A    between atoms: C_2  and  O_3
REMARK    3  A    between atoms: O_3  and  C_4
REMARK    4  A    between atoms: C_4  and  C_6
REMARK    5  A    between atoms: C_7  and  C_30
REMARK    6  A    between atoms: C_9  and  N_29
REMARK    7  A    between atoms: C_10  and  C_27
REMARK    8  A    between atoms: C_11  and  C_13
REMARK    9  A    between atoms: C_17  and  C_26
REMARK   10  A    between atoms: C_19  and  C_25
REMARK                            x       y       z     vdW  Elec       q    Type
REMARK                         _______ _______ _______ _____ _____    ______ ____
ROOT
ATOM      1  C   UNL     1      -3.270   1.345   1.257  0.00  0.00    +0.087 C 
ATOM      2  C   UNL     1      -4.317   2.179   1.203  0.00  0.00    +0.115 C 
ATOM      3  O   UNL     1      -4.724   2.744   0.057  0.00  0.00    -0.445 OA
ATOM      4  C   UNL     1      -4.343   2.206  -1.115  0.00  0.00    +0.198 C 
ATOM      5  C   UNL     1      -3.285   1.364  -1.204  0.00  0.00    +0.098 C 
ATOM      6  C   UNL     1      -2.490   0.996   0.019  0.00  0.00    +0.110 C 
ATOM      7  C   UNL     1      -5.063   2.493   2.474  0.00  0.00    +0.087 C 
ENDROOT
BRANCH   6   8
ATOM      8  C   UNL     1      -1.187   1.753   0.017  0.00  0.00    +0.030 A 
ATOM      9  C   UNL     1      -0.013   1.076   0.008  0.00  0.00    +0.020 A 
ATOM     10  C   UNL     1       1.236   1.841   0.000  0.00  0.00    -0.001 A 
ATOM     11  C   UNL     1       2.478   1.199  -0.015  0.00  0.00    +0.013 A 
ATOM     12  C   UNL     1       3.624   1.942  -0.022  0.00  0.00    -0.050 A 
ATOM     13  C   UNL     1       3.567   3.329  -0.014  0.00  0.00    +0.008 A 
ATOM     14  C   UNL     1       2.354   3.983   0.001  0.00  0.00    -0.026 A 
ATOM     15  C   UNL     1       1.174   3.247   0.008  0.00  0.00    +0.052 A 
ATOM     16  N   UNL     1      -0.053   3.875   0.024  0.00  0.00    -0.322 N 
ATOM     17  H   UNL     1      -0.095   4.875   0.030  0.00  0.00    +0.169 HD
ATOM     18  C   UNL     1      -1.194   3.164   0.031  0.00  0.00    +0.253 A 
ATOM     19  O   UNL     1      -2.261   3.753   0.045  0.00  0.00    -0.268 OA
ATOM     20  C   UNL     1       2.307   5.489   0.010  0.00  0.00    +0.046 C 
ATOM     21  C   UNL     1       4.963   1.249  -0.039  0.00  0.00    +0.044 C 
ENDBRANCH   6   8
BRANCH   4  22
ATOM     22  N   UNL     1      -5.046   2.518  -2.252  0.00  0.00    -0.328 N 
ATOM     23  H   UNL     1      -4.784   2.137  -3.104  0.00  0.00    +0.145 HD
ATOM     24  H   UNL     1      -5.806   3.119  -2.203  0.00  0.00    +0.145 HD
ENDBRANCH   4  22
BRANCH   1  25
ATOM     25  C   UNL     1      -2.892   0.783   2.501  0.00  0.00    +0.339 C 
ATOM     26  O   UNL     1      -3.515   1.059   3.508  0.00  0.00    -0.245 OA
BRANCH  25  27
ATOM     27  O   UNL     1      -1.839  -0.059   2.568  0.00  0.00    -0.462 OA
BRANCH  27  29
ATOM     28  C   UNL     1      -0.302  -1.515   3.733  0.00  0.00    +0.048 C 
ATOM     29  C   UNL     1      -1.513  -0.589   3.854  0.00  0.00    +0.229 C 
ENDBRANCH  27  29
ENDBRANCH  25  27
ENDBRANCH   1  25
BRANCH   5  30
ATOM     30  C   UNL     1      -2.919   0.820  -2.477  0.00  0.00    +0.101 C 
ATOM     31  N   UNL     1      -2.628   0.389  -3.487  0.00  0.00    -0.191 NA
ENDBRANCH   5  30
TORSDOF 6
