REMARK  Name = ZINC41660229
REMARK  5 active torsions:
REMARK  status: ('A' for Active; 'I' for Inactive)
REMARK    1  A    between atoms: C_1  and  C_2
REMARK    2  A    between atoms: C_3  and  C_9
REMARK    3  A    between atoms: C_4  and  C_8
REMARK    4  A    between atoms: N_5  and  C_7
REMARK    5  A    between atoms: C_10  and  C_15
REMARK                            x       y       z     vdW  Elec       q    Type
REMARK                         _______ _______ _______ _____ _____    ______ ____
ROOT
ATOM      1  C   UNL     1      -0.014  -0.520  -2.615  0.00  0.00    +0.087 A 
ATOM      2  C   UNL     1      -0.090   0.788  -2.997  0.00  0.00    +0.022 A 
ATOM      3  S   UNL     1      -0.463   0.609  -4.734  0.00  0.00    -0.057 S 
ATOM      4  C   UNL     1      -0.485  -1.072  -4.799  0.00  0.00    +0.156 A 
ATOM      5  N   UNL     1      -0.216  -1.429  -3.562  0.00  0.00    -0.225 NA
ATOM      6  N   UNL     1      -0.725  -1.886  -5.894  0.00  0.00    -0.337 N 
ATOM      7  H   UNL     1      -0.909  -1.491  -6.761  0.00  0.00    +0.144 HD
ATOM      8  H   UNL     1      -0.709  -2.851  -5.795  0.00  0.00    +0.144 HD
ENDROOT
BRANCH   1  11
ATOM      9  C   UNL     1      -1.628   0.410  -0.050  0.00  0.00    +0.068 C 
ATOM     10  C   UNL     1      -0.426  -0.500  -0.068  0.00  0.00    +0.069 A 
ATOM     11  C   UNL     1       0.284  -0.908  -1.213  0.00  0.00    +0.044 A 
ATOM     12  C   UNL     1       1.296  -1.724  -0.801  0.00  0.00    +0.045 A 
ATOM     13  N   UNL     1       1.221  -1.821   0.543  0.00  0.00    -0.271 N 
ATOM     14  N   UNL     1       0.140  -1.043   0.977  0.00  0.00    -0.176 NA
ATOM     15  C   UNL     1       2.117  -2.600   1.401  0.00  0.00    +0.172 C 
ATOM     16  C   UNL     1       2.315  -2.395  -1.686  0.00  0.00    +0.066 C 
ENDBRANCH   1  11
BRANCH   2  17
ATOM     17  C   UNL     1       0.092   2.040  -2.178  0.00  0.00    +0.028 C 
ATOM     18  C   UNL     1       1.301   2.820  -2.699  0.00  0.00    +0.009 C 
ATOM     19  C   UNL     1       1.485   4.090  -1.867  0.00  0.00    +0.001 C 
ATOM     20  C   UNL     1       0.231   4.960  -1.979  0.00  0.00    +0.000 C 
ATOM     21  C   UNL     1      -0.978   4.180  -1.458  0.00  0.00    +0.001 C 
ATOM     22  C   UNL     1      -1.162   2.909  -2.290  0.00  0.00    +0.009 C 
ENDBRANCH   2  17
TORSDOF 2
