REMARK  Name = ZINC40868523
REMARK  12 active torsions:
REMARK  status: ('A' for Active; 'I' for Inactive)
REMARK    1  A    between atoms: C_1  and  C_2
REMARK    2  A    between atoms: C_4  and  C_26
REMARK    3  A    between atoms: C_5  and  C_25
REMARK    4  A    between atoms: C_6  and  O_8
REMARK    5  A    between atoms: O_8  and  C_9
REMARK    6  A    between atoms: C_9  and  C_10
REMARK    7  A    between atoms: N_12  and  C_13
REMARK    8  A    between atoms: C_16  and  C_19
REMARK    9  A    between atoms: C_19  and  O_21
REMARK   10  A    between atoms: O_21  and  C_22
REMARK   11  A    between atoms: C_22  and  C_23
REMARK   12  A    between atoms: C_22  and  C_24
REMARK                            x       y       z     vdW  Elec       q    Type
REMARK                         _______ _______ _______ _____ _____    ______ ____
ROOT
ATOM      1  C   UNL     1       0.060  -2.932   4.751  0.00  0.00    +0.255 C 
ATOM      2  O   UNL     1       0.066  -4.133   4.584  0.00  0.00    -0.272 OA
ATOM      3  N   UNL     1       0.062  -2.425   6.000  0.00  0.00    -0.283 N 
ATOM      4  H   UNL     1       0.125  -1.467   6.135  0.00  0.00    +0.155 HD
ENDROOT
BRANCH   3   5
ATOM      5  C   UNL     1      -0.027  -3.279   7.098  0.00  0.00    +0.034 A 
ATOM      6  C   UNL     1       0.588  -4.527   7.059  0.00  0.00    +0.024 A 
ATOM      7  C   UNL     1       0.502  -5.372   8.142  0.00  0.00    +0.017 A 
ATOM      8  C   UNL     1      -0.203  -4.976   9.282  0.00  0.00    +0.059 A 
ATOM      9  C   UNL     1      -0.820  -3.722   9.318  0.00  0.00    +0.017 A 
ATOM     10  C   UNL     1      -0.726  -2.880   8.233  0.00  0.00    +0.024 A 
BRANCH   8  11
ATOM     11  C   UNL     1      -0.298  -5.880  10.444  0.00  0.00    +0.339 C 
ATOM     12  O   UNL     1       0.238  -6.970  10.411  0.00  0.00    -0.245 OA
BRANCH  11  13
ATOM     13  O   UNL     1      -0.978  -5.497  11.542  0.00  0.00    -0.458 OA
BRANCH  13  14
ATOM     14  C   UNL     1      -1.029  -6.422  12.630  0.00  0.00    +0.171 C 
ATOM     15  C   UNL     1       0.158  -6.176  13.563  0.00  0.00    +0.052 C 
ATOM     16  C   UNL     1      -2.335  -6.229  13.403  0.00  0.00    +0.052 C 
ENDBRANCH  13  14
ENDBRANCH  11  13
ENDBRANCH   8  11
ENDBRANCH   3   5
BRANCH   1  17
ATOM     17  C   UNL     1       0.052  -2.005   3.562  0.00  0.00    +0.324 C 
BRANCH  17  18
ATOM     18  O   UNL     1       0.052  -2.775   2.358  0.00  0.00    -0.482 OA
BRANCH  18  24
ATOM     19  C   UNL     1       0.021   1.504   0.011  0.00  0.00    +0.044 C 
ATOM     20  C   UNL     1       0.030  -0.003   0.002  0.00  0.00    -0.047 A 
ATOM     21  C   UNL     1       0.029  -0.687  -1.200  0.00  0.00    +0.007 A 
ATOM     22  C   UNL     1       0.037  -2.069  -1.211  0.00  0.00    -0.044 A 
ATOM     23  C   UNL     1       0.044  -2.771  -0.020  0.00  0.00    -0.006 A 
ATOM     24  C   UNL     1       0.045  -2.087   1.186  0.00  0.00    +0.125 A 
ATOM     25  C   UNL     1       0.043  -0.700   1.195  0.00  0.00    +0.049 A 
ATOM     26  C   UNL     1       0.051  -4.278  -0.033  0.00  0.00    +0.048 C 
ATOM     27  C   UNL     1       0.036  -2.812  -2.522  0.00  0.00    +0.044 C 
ENDBRANCH  18  24
ENDBRANCH  17  18
ENDBRANCH   1  17
TORSDOF 7
