REMARK  Name = ZINC05302507
REMARK  7 active torsions:
REMARK  status: ('A' for Active; 'I' for Inactive)
REMARK    1  A    between atoms: C_1  and  C_2
REMARK    2  A    between atoms: C_2  and  C_3
REMARK    3  A    between atoms: C_2  and  C_4
REMARK    4  A    between atoms: C_4  and  C_6
REMARK    5  A    between atoms: C_4  and  O_12
REMARK    6  A    between atoms: O_12  and  C_13
REMARK    7  A    between atoms: C_13  and  C_15
REMARK                            x       y       z     vdW  Elec       q    Type
REMARK                         _______ _______ _______ _____ _____    ______ ____
ROOT
ATOM      1  O   UNL     1      -0.445   0.011   0.337  0.00  0.00    -0.448 OA
ENDROOT
BRANCH   1   2
ATOM      2  C   UNL     1      -1.651  -0.369   0.806  0.00  0.00    +0.347 C 
ATOM      3  O   UNL     1      -2.547   0.446   0.911  0.00  0.00    -0.244 OA
BRANCH   2   4
ATOM      4  C   UNL     1      -1.881  -1.763   1.190  0.00  0.00    +0.097 A 
ATOM      5  C   UNL     1      -3.021  -2.352   1.692  0.00  0.00    +0.026 A 
ATOM      6  C   UNL     1      -2.995  -3.724   1.963  0.00  0.00    -0.036 A 
ATOM      7  C   UNL     1      -1.827  -4.361   1.770  0.00  0.00    -0.006 A 
ATOM      8  S   UNL     1      -0.758  -3.145   1.140  0.00  0.00    -0.086 S 
ATOM      9  C   UNL     1      -1.366  -5.768   2.063  0.00  0.00    +0.043 C 
ATOM     10  C   UNL     1      -2.459  -6.605   2.729  0.00  0.00    +0.005 C 
ATOM     11  C   UNL     1      -3.474  -7.103   1.712  0.00  0.00    +0.000 C 
ATOM     12  C   UNL     1      -3.788  -6.083   0.637  0.00  0.00    +0.000 C 
ATOM     13  C   UNL     1      -4.864  -5.150   1.208  0.00  0.00    +0.005 C 
ATOM     14  C   UNL     1      -4.285  -4.400   2.405  0.00  0.00    +0.036 C 
ENDBRANCH   2   4
ENDBRANCH   1   2
BRANCH   1  15
ATOM     15  C   UNL     1      -0.289   1.409  -0.024  0.00  0.00    +0.265 C 
BRANCH  15  16
ATOM     16  C   UNL     1       1.144   1.826   0.188  0.00  0.00    +0.261 C 
ATOM     17  O   UNL     1       1.449   2.998   0.133  0.00  0.00    -0.271 OA
ATOM     18  N   UNL     1       2.086   0.895   0.438  0.00  0.00    -0.237 N 
ATOM     19  C   UNL     1       3.348   1.274   0.725  0.00  0.00    +0.303 C 
ATOM     20  O   UNL     1       3.635   2.454   0.758  0.00  0.00    -0.253 OA
ATOM     21  N   UNL     1       4.290   0.343   0.975  0.00  0.00    -0.313 N 
ATOM     22  H   UNL     1       1.857  -0.047   0.411  0.00  0.00    +0.159 HD
ATOM     23  H   UNL     1       4.061  -0.599   0.948  0.00  0.00    +0.146 HD
ATOM     24  H   UNL     1       5.198   0.616   1.182  0.00  0.00    +0.146 HD
ENDBRANCH  15  16
BRANCH  15  26
ATOM     25  C   UNL     1      -2.113   1.162  -1.714  0.00  0.00    +0.011 C 
ATOM     26  C   UNL     1      -0.663   1.601  -1.495  0.00  0.00    +0.033 C 
ATOM     27  C   UNL     1      -0.515   3.076  -1.871  0.00  0.00    +0.011 C 
ENDBRANCH  15  26
ENDBRANCH   1  15
TORSDOF 5
