REMARK  Name = ZINC12374666
REMARK  8 active torsions:
REMARK  status: ('A' for Active; 'I' for Inactive)
REMARK    1  A    between atoms: C_3  and  S_10
REMARK    2  A    between atoms: C_6  and  N_7
REMARK    3  A    between atoms: S_10  and  C_11
REMARK    4  A    between atoms: C_13  and  O_26
REMARK    5  A    between atoms: C_15  and  O_25
REMARK    6  A    between atoms: C_17  and  O_24
REMARK    7  A    between atoms: C_19  and  C_22
REMARK    8  A    between atoms: C_22  and  O_23
REMARK                            x       y       z     vdW  Elec       q    Type
REMARK                         _______ _______ _______ _____ _____    ______ ____
ROOT
ATOM      1  C   UNL     1       0.820   3.398   1.477  0.00  0.00    +0.212 C 
ATOM      2  C   UNL     1       1.466   2.768   2.714  0.00  0.00    +0.185 C 
ATOM      3  C   UNL     1       1.336   1.244   2.628  0.00  0.00    +0.177 C 
ATOM      4  C   UNL     1      -0.145   0.876   2.495  0.00  0.00    +0.176 C 
ATOM      5  C   UNL     1      -0.729   1.579   1.267  0.00  0.00    +0.176 C 
ATOM      6  O   UNL     1      -0.547   2.991   1.396  0.00  0.00    -0.355 OA
ENDROOT
BRANCH   4   7
ATOM      7  O   UNL     1      -0.275  -0.539   2.342  0.00  0.00    -0.386 OA
ATOM      8  H   UNL     1       0.075  -1.048   3.086  0.00  0.00    +0.210 HD
ENDBRANCH   4   7
BRANCH   3   9
ATOM      9  O   UNL     1       2.052   0.766   1.488  0.00  0.00    -0.386 OA
ATOM     10  H   UNL     1       2.998   0.965   1.506  0.00  0.00    +0.210 HD
ENDBRANCH   3   9
BRANCH   2  11
ATOM     11  O   UNL     1       2.849   3.127   2.766  0.00  0.00    -0.386 OA
ATOM     12  H   UNL     1       3.006   4.079   2.821  0.00  0.00    +0.210 HD
ENDBRANCH   2  11
BRANCH   1  13
ATOM     13  S   UNL     1       0.907   5.205   1.604  0.00  0.00    -0.091 S 
BRANCH  13  16
ATOM     14  C   UNL     1      -0.319   7.574  -1.407  0.00  0.00    +0.034 A 
ATOM     15  C   UNL     1       0.183   7.134  -0.198  0.00  0.00    +0.017 A 
ATOM     16  C   UNL     1       0.268   5.772   0.063  0.00  0.00    +0.011 A 
ATOM     17  C   UNL     1      -0.147   4.857  -0.898  0.00  0.00    +0.017 A 
ATOM     18  C   UNL     1      -0.653   5.304  -2.102  0.00  0.00    +0.034 A 
ATOM     19  C   UNL     1      -0.737   6.661  -2.358  0.00  0.00    +0.126 A 
BRANCH  19  20
ATOM     20  N   UNL     1      -1.274   7.137  -3.652  0.00  0.00    +0.056 N 
ATOM     21  O   UNL     1      -1.347   8.331  -3.879  0.00  0.00    -0.126 OA
ATOM     22  O   UNL     1      -1.642   6.334  -4.491  0.00  0.00    -0.126 OA
ENDBRANCH  19  20
ENDBRANCH  13  16
ENDBRANCH   1  13
BRANCH   5  23
ATOM     23  C   UNL     1      -0.013   1.086   0.008  0.00  0.00    +0.190 C 
BRANCH  23  24
ATOM     24  O   UNL     1      -0.659   1.621  -1.149  0.00  0.00    -0.392 OA
ATOM     25  H   UNL     1      -0.257   1.349  -1.985  0.00  0.00    +0.210 HD
ENDBRANCH  23  24
ENDBRANCH   5  23
TORSDOF 8
