REMARK  Name = ZINC18189998
REMARK  3 active torsions:
REMARK  status: ('A' for Active; 'I' for Inactive)
REMARK    1  A    between atoms: C_1  and  C_2
REMARK    2  A    between atoms: N_10  and  N_11
REMARK    3  A    between atoms: C_14  and  C_23
REMARK                            x       y       z     vdW  Elec       q    Type
REMARK                         _______ _______ _______ _____ _____    ______ ____
ROOT
ATOM      1  N   UNL     1       3.611  -1.839  -0.025  0.00  0.00    -0.184 NA
ATOM      2  C   UNL     1       4.765  -2.433  -0.033  0.00  0.00    +0.074 C 
ATOM      3  C   UNL     1       4.884  -3.947  -0.048  0.00  0.00    +0.107 C 
ATOM      4  C   UNL     1       6.043  -4.318   0.889  0.00  0.00    +0.209 C 
ATOM      5  O   UNL     1       7.241  -3.690   0.432  0.00  0.00    -0.483 OA
ATOM      6  C   UNL     1       7.234  -2.353   0.212  0.00  0.00    +0.130 A 
ATOM      7  C   UNL     1       6.033  -1.671  -0.035  0.00  0.00    +0.040 A 
ATOM      8  C   UNL     1       6.038  -0.299  -0.271  0.00  0.00    +0.013 A 
ATOM      9  C   UNL     1       7.234   0.391  -0.264  0.00  0.00    +0.001 A 
ATOM     10  C   UNL     1       8.421  -0.279  -0.022  0.00  0.00    +0.004 A 
ATOM     11  C   UNL     1       8.425  -1.643   0.222  0.00  0.00    +0.046 A 
ENDROOT
BRANCH   1  21
ATOM     12  C   UNL     1      -0.018   1.503   0.010  0.00  0.00    +0.066 C 
ATOM     13  C   UNL     1       0.002  -0.004   0.002  0.00  0.00    +0.047 A 
ATOM     14  C   UNL     1      -1.171  -0.701   0.004  0.00  0.00    +0.093 A 
ATOM     15  C   UNL     1      -1.127  -2.107  -0.004  0.00  0.00    +0.253 A 
ATOM     16  O   UNL     1      -2.157  -2.761  -0.003  0.00  0.00    -0.268 OA
ATOM     17  N   UNL     1       0.077  -2.718  -0.013  0.00  0.00    -0.294 N 
ATOM     18  H   UNL     1       0.131  -3.687  -0.019  0.00  0.00    +0.172 HD
ATOM     19  C   UNL     1       1.215  -1.970  -0.015  0.00  0.00    +0.216 A 
ATOM     20  N   UNL     1       1.164  -0.652  -0.013  0.00  0.00    -0.220 NA
ATOM     21  N   UNL     1       2.432  -2.597  -0.023  0.00  0.00    -0.206 N 
ATOM     22  H   UNL     1       2.479  -3.566  -0.028  0.00  0.00    +0.177 HD
ENDBRANCH   1  21
BRANCH   4  23
ATOM     23  C   UNL     1       6.229  -5.813   0.892  0.00  0.00    -0.007 A 
ATOM     24  C   UNL     1       7.004  -6.416  -0.080  0.00  0.00    +0.007 A 
ATOM     25  C   UNL     1       7.174  -7.788  -0.078  0.00  0.00    +0.000 A 
ATOM     26  C   UNL     1       6.568  -8.557   0.898  0.00  0.00    +0.000 A 
ATOM     27  C   UNL     1       5.793  -7.955   1.871  0.00  0.00    +0.000 A 
ATOM     28  C   UNL     1       5.627  -6.582   1.871  0.00  0.00    +0.007 A 
ENDBRANCH   4  23
TORSDOF 2
