REMARK  Name = ZINC10150059
REMARK  13 active torsions:
REMARK  status: ('A' for Active; 'I' for Inactive)
REMARK    1  A    between atoms: C_1  and  C_2
REMARK    2  A    between atoms: C_2  and  C_3
REMARK    3  A    between atoms: C_4  and  C_29
REMARK    4  A    between atoms: C_6  and  N_11
REMARK    5  A    between atoms: C_7  and  C_8
REMARK    6  A    between atoms: N_11  and  C_12
REMARK    7  A    between atoms: C_12  and  N_14
REMARK    8  A    between atoms: C_15  and  C_17
REMARK    9  A    between atoms: C_22  and  O_23
REMARK   10  A    between atoms: O_23  and  C_24
REMARK   11  A    between atoms: C_24  and  C_25
REMARK   12  A    between atoms: C_25  and  C_26
REMARK   13  A    between atoms: C_25  and  C_27
REMARK                            x       y       z     vdW  Elec       q    Type
REMARK                         _______ _______ _______ _____ _____    ______ ____
ROOT
ATOM      1  C   UNL     1      -1.156  -0.694   0.009  0.00  0.00    +0.141 C 
ATOM      2  S   UNL     1      -2.650   0.142   0.028  0.00  0.00    -0.018 S 
ENDROOT
BRANCH   1   3
ATOM      3  N   UNL     1       0.002  -0.004   0.002  0.00  0.00    -0.263 N 
ATOM      4  C   UNL     1      -0.016   1.344   0.009  0.00  0.00    +0.253 C 
ATOM      5  O   UNL     1      -1.077   1.937   0.018  0.00  0.00    -0.270 OA
ATOM      6  H   UNL     1       0.849  -0.478  -0.009  0.00  0.00    +0.157 HD
BRANCH   4   7
ATOM      7  C   UNL     1       1.251   2.098   0.001  0.00  0.00    +0.080 A 
ATOM      8  C   UNL     1       2.473   1.420  -0.008  0.00  0.00    +0.032 A 
ATOM      9  C   UNL     1       3.653   2.132  -0.021  0.00  0.00    +0.019 A 
ATOM     10  C   UNL     1       3.634   3.518  -0.014  0.00  0.00    +0.019 A 
ATOM     11  C   UNL     1       2.434   4.200   0.001  0.00  0.00    +0.047 A 
ATOM     12  C   UNL     1       1.236   3.500   0.009  0.00  0.00    +0.133 A 
ATOM     13 BR   UNL     1       5.306   1.213  -0.042  0.00  0.00    -0.050 Br
BRANCH  12  14
ATOM     14  O   UNL     1       0.056   4.169   0.024  0.00  0.00    -0.491 OA
BRANCH  14  15
ATOM     15  C   UNL     1       0.120   5.596   0.031  0.00  0.00    +0.232 C 
BRANCH  15  16
ATOM     16  C   UNL     1      -1.298   6.170   0.047  0.00  0.00    +0.020 C 
ATOM     17  C   UNL     1      -1.988   5.789   1.358  0.00  0.00    +0.010 C 
ATOM     18  C   UNL     1      -1.233   7.694  -0.071  0.00  0.00    +0.010 C 
ENDBRANCH  15  16
ENDBRANCH  14  15
ENDBRANCH  12  14
ENDBRANCH   4   7
ENDBRANCH   1   3
BRANCH   1  19
ATOM     19  N   UNL     1      -1.137  -2.041   0.002  0.00  0.00    -0.291 N 
ATOM     20  H   UNL     1      -0.291  -2.515  -0.009  0.00  0.00    +0.154 HD
BRANCH  19  24
ATOM     21  C   UNL     1      -3.877  -4.601   0.014  0.00  0.00    -0.024 A 
ATOM     22  C   UNL     1      -4.848  -3.671   0.029  0.00  0.00    -0.008 A 
ATOM     23  S   UNL     1      -3.946  -2.135   0.036  0.00  0.00    -0.078 S 
ATOM     24  C   UNL     1      -2.328  -2.751   0.009  0.00  0.00    +0.084 A 
ATOM     25  C   UNL     1      -2.513  -4.128   0.004  0.00  0.00    +0.068 A 
ATOM     26  C   UNL     1      -6.341  -3.878   0.042  0.00  0.00    +0.052 C 
BRANCH  25  27
ATOM     27  C   UNL     1      -1.378  -5.056  -0.012  0.00  0.00    +0.244 C 
ATOM     28  O   UNL     1      -0.896  -5.447   1.035  0.00  0.00    -0.270 OA
ATOM     29  N   UNL     1      -0.867  -5.476  -1.187  0.00  0.00    -0.325 N 
ATOM     30  H   UNL     1      -1.251  -5.164  -2.022  0.00  0.00    +0.145 HD
ATOM     31  H   UNL     1      -0.117  -6.090  -1.198  0.00  0.00    +0.145 HD
ENDBRANCH  25  27
BRANCH  21  33
ATOM     32  C   UNL     1      -4.294  -6.579   1.450  0.00  0.00    +0.009 C 
ATOM     33  C   UNL     1      -4.199  -6.073   0.009  0.00  0.00    +0.033 C 
ENDBRANCH  21  33
ENDBRANCH  19  24
ENDBRANCH   1  19
TORSDOF 9
