REMARK  Name = ZINC48264751
REMARK  13 active torsions:
REMARK  status: ('A' for Active; 'I' for Inactive)
REMARK    1  A    between atoms: C_1  and  C_2
REMARK    2  A    between atoms: C_4  and  C_18
REMARK    3  A    between atoms: C_5  and  C_17
REMARK    4  A    between atoms: N_6  and  C_7
REMARK    5  A    between atoms: C_10  and  C_13
REMARK    6  A    between atoms: C_13  and  O_15
REMARK    7  A    between atoms: O_15  and  C_16
REMARK    8  A    between atoms: C_18  and  C_20
REMARK    9  A    between atoms: C_20  and  S_21
REMARK   10  A    between atoms: S_21  and  C_22
REMARK   11  A    between atoms: C_23  and  C_30
REMARK   12  A    between atoms: C_24  and  N_29
REMARK   13  A    between atoms: C_26  and  N_28
REMARK                            x       y       z     vdW  Elec       q    Type
REMARK                         _______ _______ _______ _____ _____    ______ ____
ROOT
ATOM      1  C   UNL     1       0.042  -3.378  -1.451  0.00  0.00    +0.175 C 
ATOM      2  O   UNL     1       0.060  -4.472  -0.924  0.00  0.00    -0.291 OA
ENDROOT
BRANCH   1   6
ATOM      3  C   UNL     1      -0.018   1.503   0.010  0.00  0.00    +0.064 C 
ATOM      4  C   UNL     1       0.002  -0.004   0.002  0.00  0.00    +0.022 A 
ATOM      5  C   UNL     1       0.008  -0.777  -1.097  0.00  0.00    +0.034 A 
ATOM      6  C   UNL     1       0.030  -2.168  -0.626  0.00  0.00    +0.039 A 
ATOM      7  C   UNL     1       0.035  -2.102   0.754  0.00  0.00    +0.031 A 
ATOM      8  N   UNL     1       0.024  -0.803   1.112  0.00  0.00    -0.317 N 
ATOM      9  C   UNL     1       0.056  -3.279   1.696  0.00  0.00    +0.064 C 
BRANCH   8  10
ATOM     10  C   UNL     1       0.029  -0.338   2.430  0.00  0.00    +0.047 A 
ATOM     11  C   UNL     1       1.135  -0.566   3.242  0.00  0.00    +0.027 A 
ATOM     12  C   UNL     1       1.144  -0.110   4.541  0.00  0.00    +0.017 A 
ATOM     13  C   UNL     1       0.040   0.584   5.043  0.00  0.00    +0.059 A 
ATOM     14  C   UNL     1      -1.070   0.812   4.225  0.00  0.00    +0.017 A 
ATOM     15  C   UNL     1      -1.069   0.358   2.925  0.00  0.00    +0.027 A 
BRANCH  13  16
ATOM     16  C   UNL     1       0.045   1.074   6.435  0.00  0.00    +0.339 C 
ATOM     17  O   UNL     1       1.010   0.875   7.146  0.00  0.00    -0.245 OA
BRANCH  16  18
ATOM     18  O   UNL     1      -1.020   1.743   6.918  0.00  0.00    -0.464 OA
ATOM     19  C   UNL     1      -0.947   2.189   8.274  0.00  0.00    +0.280 C 
ENDBRANCH  16  18
ENDBRANCH  13  16
ENDBRANCH   8  10
ENDBRANCH   1   6
BRANCH   1  20
ATOM     20  C   UNL     1       0.034  -3.266  -2.954  0.00  0.00    +0.155 C 
BRANCH  20  21
ATOM     21  S   UNL     1       0.053  -4.926  -3.684  0.00  0.00    -0.097 S 
BRANCH  21  22
ATOM     22  C   UNL     1       0.041  -4.627  -5.421  0.00  0.00    +0.119 A 
ATOM     23  C   UNL     1       0.046  -5.712  -6.316  0.00  0.00    +0.104 A 
ATOM     24  C   UNL     1       0.036  -5.450  -7.702  0.00  0.00    +0.048 A 
ATOM     25  C   UNL     1       0.021  -4.125  -8.121  0.00  0.00    +0.067 A 
ATOM     26  C   UNL     1       0.018  -3.110  -7.172  0.00  0.00    +0.119 A 
ATOM     27  N   UNL     1       0.022  -3.383  -5.874  0.00  0.00    -0.225 NA
BRANCH  26  28
ATOM     28  N   UNL     1       0.004  -1.788  -7.590  0.00  0.00    -0.343 N 
ATOM     29  H   UNL     1      -0.003  -1.579  -8.537  0.00  0.00    +0.144 HD
ATOM     30  H   UNL     1       0.001  -1.073  -6.934  0.00  0.00    +0.144 HD
ENDBRANCH  26  28
BRANCH  24  31
ATOM     31  N   UNL     1       0.040  -6.487  -8.622  0.00  0.00    -0.357 N 
ATOM     32  H   UNL     1       0.051  -7.407  -8.316  0.00  0.00    +0.142 HD
ATOM     33  H   UNL     1       0.033  -6.292  -9.572  0.00  0.00    +0.142 HD
ENDBRANCH  24  31
BRANCH  23  34
ATOM     34  C   UNL     1       0.061  -7.059  -5.829  0.00  0.00    +0.104 C 
ATOM     35  N   UNL     1       0.073  -8.127  -5.442  0.00  0.00    -0.191 NA
ENDBRANCH  23  34
ENDBRANCH  21  22
ENDBRANCH  20  21
ENDBRANCH   1  20
TORSDOF 10
