REMARK  Name = ZINC45630444
REMARK  7 active torsions:
REMARK  status: ('A' for Active; 'I' for Inactive)
REMARK    1  A    between atoms: C_1  and  C_2
REMARK    2  A    between atoms: C_5  and  C_8
REMARK    3  A    between atoms: C_8  and  C_30
REMARK    4  A    between atoms: N_11  and  C_15
REMARK    5  A    between atoms: C_15  and  C_16
REMARK    6  A    between atoms: C_26  and  O_28
REMARK    7  A    between atoms: O_28  and  C_29
REMARK                            x       y       z     vdW  Elec       q    Type
REMARK                         _______ _______ _______ _____ _____    ______ ____
ROOT
ATOM      1  C   UNL     1       0.062  -4.264  -0.008  0.00  0.00    +0.135 C 
ATOM      2  C   UNL     1      -0.730  -4.801   1.168  0.00  0.00    +0.251 C 
ATOM      3  O   UNL     1      -0.516  -4.605   2.345  0.00  0.00    -0.272 OA
ATOM      4  N   UNL     1      -1.721  -5.540   0.633  0.00  0.00    -0.215 N 
ATOM      5  C   UNL     1      -1.667  -5.545  -0.704  0.00  0.00    +0.310 C 
ATOM      6  O   UNL     1      -2.455  -6.142  -1.410  0.00  0.00    -0.252 OA
ATOM      7  N   UNL     1      -0.641  -4.815  -1.179  0.00  0.00    -0.281 N 
ATOM      8  C   UNL     1       1.507  -4.766   0.038  0.00  0.00    +0.047 C 
ATOM      9  H   UNL     1      -0.410  -4.678  -2.111  0.00  0.00    +0.152 HD
ENDROOT
BRANCH   1  14
ATOM     10  C   UNL     1      -0.077   1.512  -0.086  0.00  0.00    +0.044 C 
ATOM     11  C   UNL     1      -0.041   0.006  -0.065  0.00  0.00    -0.050 A 
ATOM     12  C   UNL     1      -0.019  -0.701  -1.253  0.00  0.00    +0.004 A 
ATOM     13  C   UNL     1       0.014  -2.083  -1.234  0.00  0.00    +0.006 A 
ATOM     14  C   UNL     1       0.027  -2.758  -0.028  0.00  0.00    -0.015 A 
ATOM     15  C   UNL     1       0.006  -2.051   1.160  0.00  0.00    +0.006 A 
ATOM     16  C   UNL     1      -0.023  -0.669   1.141  0.00  0.00    +0.004 A 
ENDBRANCH   1  14
BRANCH   4  17
ATOM     17  C   UNL     1      -2.734  -6.250   1.418  0.00  0.00    +0.214 C 
BRANCH  17  18
ATOM     18  C   UNL     1      -3.917  -5.345   1.650  0.00  0.00    +0.238 C 
ATOM     19  O   UNL     1      -3.877  -4.190   1.282  0.00  0.00    -0.274 OA
ATOM     20  N   UNL     1      -5.018  -5.819   2.265  0.00  0.00    -0.270 N 
ATOM     21  C   UNL     1      -5.046  -7.191   2.793  0.00  0.00    +0.114 C 
ATOM     22  C   UNL     1      -6.389  -7.818   2.393  0.00  0.00    +0.024 C 
ATOM     23  C   UNL     1      -7.518  -7.035   3.062  0.00  0.00    +0.038 C 
ATOM     24  C   UNL     1      -7.371  -5.561   2.792  0.00  0.00    -0.022 A 
ATOM     25  C   UNL     1      -6.154  -5.010   2.419  0.00  0.00    +0.040 A 
ATOM     26  C   UNL     1      -6.047  -3.644   2.186  0.00  0.00    +0.027 A 
ATOM     27  C   UNL     1      -7.152  -2.829   2.328  0.00  0.00    +0.047 A 
ATOM     28  C   UNL     1      -8.370  -3.376   2.703  0.00  0.00    +0.120 A 
ATOM     29  C   UNL     1      -8.479  -4.742   2.928  0.00  0.00    +0.051 A 
BRANCH  28  30
ATOM     30  O   UNL     1      -9.460  -2.575   2.842  0.00  0.00    -0.495 OA
ATOM     31  C   UNL     1      -9.279  -1.181   2.586  0.00  0.00    +0.277 C 
ENDBRANCH  28  30
ENDBRANCH  17  18
ENDBRANCH   4  17
TORSDOF 4
