REMARK  Name = ZINC10040550
REMARK  10 active torsions:
REMARK  status: ('A' for Active; 'I' for Inactive)
REMARK    1  A    between atoms: C_1  and  C_2
REMARK    2  A    between atoms: C_2  and  C_3
REMARK    3  A    between atoms: C_2  and  C_4
REMARK    4  A    between atoms: C_4  and  C_6
REMARK    5  A    between atoms: C_4  and  N_21
REMARK    6  A    between atoms: N_8  and  N_9
REMARK    7  A    between atoms: N_9  and  C_10
REMARK    8  A    between atoms: C_15  and  O_18
REMARK    9  A    between atoms: O_18  and  C_19
REMARK   10  A    between atoms: C_22  and  C_24
REMARK                            x       y       z     vdW  Elec       q    Type
REMARK                         _______ _______ _______ _____ _____    ______ ____
ROOT
ATOM      1  C   UNL     1      -2.074  -0.231  -1.335  0.00  0.00    +0.250 C 
ATOM      2  O   UNL     1      -2.511  -1.081  -2.081  0.00  0.00    -0.272 OA
ATOM      3  N   UNL     1      -2.204   1.073  -1.649  0.00  0.00    -0.235 N 
ATOM      4  H   UNL     1      -1.924   1.754  -1.018  0.00  0.00    +0.173 HD
ENDROOT
BRANCH   3   5
ATOM      5  N   UNL     1      -2.744   1.445  -2.887  0.00  0.00    -0.271 N 
ATOM      6  H   UNL     1      -3.024   0.764  -3.518  0.00  0.00    +0.169 HD
BRANCH   5   7
ATOM      7  C   UNL     1      -2.873   2.744  -3.200  0.00  0.00    +0.099 C 
ATOM      8  C   UNL     1      -3.410   3.114  -4.434  0.00  0.00    +0.042 C 
ATOM      9  C   UNL     1      -3.829   2.134  -5.364  0.00  0.00    +0.033 C 
ATOM     10  C   UNL     1      -4.351   2.513  -6.560  0.00  0.00    +0.045 C 
ATOM     11  C   UNL     1      -4.487   3.857  -6.903  0.00  0.00    +0.069 C 
ATOM     12  C   UNL     1      -4.102   4.852  -6.053  0.00  0.00    +0.169 C 
ATOM     13  C   UNL     1      -3.559   4.529  -4.793  0.00  0.00    +0.229 C 
ATOM     14  O   UNL     1      -3.214   5.410  -4.017  0.00  0.00    -0.283 OA
ATOM     15 CL   UNL     1      -4.858   1.294  -7.687  0.00  0.00    -0.083 Cl
BRANCH  12  16
ATOM     16  O   UNL     1      -4.249   6.154  -6.419  0.00  0.00    -0.491 OA
ATOM     17  C   UNL     1      -4.812   6.406  -7.708  0.00  0.00    +0.277 C 
ENDBRANCH  12  16
ENDBRANCH   5   7
ENDBRANCH   3   5
BRANCH   1  18
ATOM     18  C   UNL     1      -1.387  -0.633  -0.055  0.00  0.00    +0.163 C 
BRANCH  18  19
ATOM     19  N   UNL     1      -1.704  -2.030   0.252  0.00  0.00    -0.300 N 
ATOM     20  C   UNL     1      -1.652  -2.469   1.525  0.00  0.00    +0.245 C 
ATOM     21  O   UNL     1      -1.341  -1.705   2.419  0.00  0.00    -0.270 OA
ATOM     22  H   UNL     1      -1.953  -2.639  -0.461  0.00  0.00    +0.150 HD
BRANCH  20  23
ATOM     23  C   UNL     1      -1.972  -3.877   1.835  0.00  0.00    +0.037 A 
ATOM     24  C   UNL     1      -2.325  -4.758   0.810  0.00  0.00    +0.014 A 
ATOM     25  C   UNL     1      -2.622  -6.072   1.105  0.00  0.00    +0.021 A 
ATOM     26  C   UNL     1      -2.573  -6.518   2.416  0.00  0.00    +0.041 A 
ATOM     27  C   UNL     1      -2.224  -5.649   3.437  0.00  0.00    +0.021 A 
ATOM     28  C   UNL     1      -1.919  -4.335   3.153  0.00  0.00    +0.014 A 
ATOM     29 CL   UNL     1      -2.950  -8.173   2.780  0.00  0.00    -0.084 Cl
ENDBRANCH  20  23
ENDBRANCH  18  19
BRANCH  18  31
ATOM     30  C   UNL     1       0.819  -0.804   1.106  0.00  0.00    +0.009 C 
ATOM     31  C   UNL     1       0.127  -0.478  -0.219  0.00  0.00    +0.012 C 
ATOM     32  C   UNL     1       0.623  -1.438  -1.303  0.00  0.00    +0.009 C 
ENDBRANCH  18  31
ENDBRANCH   1  18
TORSDOF 7
