REMARK  Name = ZINC67390044
REMARK  12 active torsions:
REMARK  status: ('A' for Active; 'I' for Inactive)
REMARK    1  A    between atoms: C_1  and  C_2
REMARK    2  A    between atoms: C_4  and  C_26
REMARK    3  A    between atoms: C_6  and  O_24
REMARK    4  A    between atoms: C_7  and  C_8
REMARK    5  A    between atoms: C_8  and  N_9
REMARK    6  A    between atoms: N_12  and  C_13
REMARK    7  A    between atoms: C_13  and  C_14
REMARK    8  A    between atoms: C_14  and  C_15
REMARK    9  A    between atoms: C_15  and  C_16
REMARK   10  A    between atoms: C_16  and  N_17
REMARK   11  A    between atoms: C_20  and  C_23
REMARK   12  A    between atoms: O_24  and  C_25
REMARK                            x       y       z     vdW  Elec       q    Type
REMARK                         _______ _______ _______ _____ _____    ______ ____
ROOT
ATOM      1  N   UNL     1      -1.354   0.215   2.954  0.00  0.00    -0.295 N 
ATOM      2  C   UNL     1      -1.598   0.844   4.121  0.00  0.00    +0.300 C 
ATOM      3  O   UNL     1      -0.673   1.233   4.807  0.00  0.00    -0.253 OA
ATOM      4  N   UNL     1      -2.868   1.040   4.528  0.00  0.00    -0.299 N 
ATOM      5  H   UNL     1      -2.093  -0.096   2.407  0.00  0.00    +0.151 HD
ATOM      6  H   UNL     1      -3.606   0.730   3.981  0.00  0.00    +0.150 HD
ENDROOT
BRANCH   1   7
ATOM      7  C   UNL     1       0.026   0.001   2.512  0.00  0.00    +0.146 C 
BRANCH   7  14
ATOM      8  C   UNL     1      -0.018   1.503   0.010  0.00  0.00    +0.044 C 
ATOM      9  C   UNL     1       0.002  -0.004   0.002  0.00  0.00    -0.039 A 
ATOM     10  C   UNL     1       0.006  -0.708  -1.195  0.00  0.00    +0.027 A 
ATOM     11  C   UNL     1       0.025  -2.087  -1.167  0.00  0.00    +0.042 A 
ATOM     12  N   UNL     1       0.040  -2.741  -0.021  0.00  0.00    -0.218 NA
ATOM     13  C   UNL     1       0.036  -2.106   1.140  0.00  0.00    +0.220 A 
ATOM     14  C   UNL     1       0.023  -0.718   1.187  0.00  0.00    +0.034 A 
ATOM     15  C   UNL     1       0.030  -2.858  -2.462  0.00  0.00    +0.066 C 
BRANCH  13  16
ATOM     16  O   UNL     1       0.051  -2.818   2.295  0.00  0.00    -0.479 OA
ATOM     17  C   UNL     1       0.070  -4.242   2.179  0.00  0.00    +0.279 C 
ENDBRANCH  13  16
ENDBRANCH   7  14
ENDBRANCH   1   7
BRANCH   4  18
ATOM     18  C   UNL     1      -3.133   1.724   5.796  0.00  0.00    +0.105 C 
BRANCH  18  19
ATOM     19  C   UNL     1      -4.644   1.817   6.020  0.00  0.00    +0.017 C 
BRANCH  19  20
ATOM     20  C   UNL     1      -4.920   2.530   7.344  0.00  0.00    -0.017 C 
BRANCH  20  21
ATOM     21  C   UNL     1      -6.431   2.623   7.568  0.00  0.00    -0.079 C 
BRANCH  21  22
ATOM     22  N   UNL     1      -6.697   3.308   8.840  0.00  0.00    +0.380 N 
ATOM     23  C   UNL     1      -6.181   2.496   9.948  0.00  0.00    -0.079 C 
ATOM     24  C   UNL     1      -6.383   3.243  11.269  0.00  0.00    -0.016 C 
ATOM     25  C   UNL     1      -7.877   3.505  11.478  0.00  0.00    -0.018 C 
ATOM     26  C   UNL     1      -8.420   4.288  10.280  0.00  0.00    -0.016 C 
ATOM     27  C   UNL     1      -8.143   3.503   8.996  0.00  0.00    -0.079 C 
ATOM     28  C   UNL     1      -8.079   4.320  12.757  0.00  0.00    +0.007 C 
ATOM     29  H   UNL     1      -6.236   4.206   8.840  0.00  0.00    -0.082 HD
ENDBRANCH  21  22
ENDBRANCH  20  21
ENDBRANCH  19  20
ENDBRANCH  18  19
ENDBRANCH   4  18
TORSDOF 8
