REMARK  Name = ZINC07868112
REMARK  7 active torsions:
REMARK  status: ('A' for Active; 'I' for Inactive)
REMARK    1  A    between atoms: C_1  and  C_2
REMARK    2  A    between atoms: C_2  and  C_4
REMARK    3  A    between atoms: C_2  and  O_18
REMARK    4  A    between atoms: N_6  and  C_7
REMARK    5  A    between atoms: C_8  and  C_15
REMARK    6  A    between atoms: O_18  and  C_19
REMARK    7  A    between atoms: C_19  and  C_21
REMARK                            x       y       z     vdW  Elec       q    Type
REMARK                         _______ _______ _______ _____ _____    ______ ____
ROOT
ATOM      1  C   UNL     1      -2.257   2.497  -3.496  0.00  0.00    +0.258 C 
ATOM      2  O   UNL     1      -3.300   3.079  -3.285  0.00  0.00    -0.271 OA
ATOM      3  N   UNL     1      -1.504   2.067  -2.463  0.00  0.00    -0.276 N 
ATOM      4  H   UNL     1      -0.670   1.602  -2.632  0.00  0.00    +0.155 HD
ENDROOT
BRANCH   3   5
ATOM      5  C   UNL     1      -1.923   2.290  -1.160  0.00  0.00    +0.084 A 
ATOM      6  C   UNL     1      -1.294   1.929   0.019  0.00  0.00    +0.068 A 
ATOM      7  C   UNL     1      -1.949   2.292   1.275  0.00  0.00    -0.023 A 
ATOM      8  C   UNL     1      -3.116   2.947   1.141  0.00  0.00    -0.004 A 
ATOM      9  S   UNL     1      -3.359   3.086  -0.613  0.00  0.00    -0.077 S 
ATOM     10  C   UNL     1      -3.727   3.290   2.473  0.00  0.00    +0.043 C 
ATOM     11  C   UNL     1      -2.568   3.137   3.483  0.00  0.00    +0.010 C 
ATOM     12  C   UNL     1      -1.659   2.119   2.766  0.00  0.00    +0.037 C 
BRANCH   6  13
ATOM     13  C   UNL     1      -0.014   1.213   0.009  0.00  0.00    +0.244 C 
ATOM     14  O   UNL     1       0.002  -0.004   0.002  0.00  0.00    -0.270 OA
ATOM     15  N   UNL     1       1.143   1.903   0.001  0.00  0.00    -0.325 N 
ATOM     16  H   UNL     1       1.990   1.429  -0.009  0.00  0.00    +0.145 HD
ATOM     17  H   UNL     1       1.130   2.873   0.007  0.00  0.00    +0.145 HD
ENDBRANCH   6  13
ENDBRANCH   3   5
BRANCH   1  19
ATOM     18  C   UNL     1      -1.788   0.751  -5.193  0.00  0.00    +0.062 C 
ATOM     19  C   UNL     1      -1.803   2.255  -4.912  0.00  0.00    +0.259 C 
BRANCH  19  20
ATOM     20  O   UNL     1      -2.715   2.910  -5.832  0.00  0.00    -0.449 OA
BRANCH  20  21
ATOM     21  C   UNL     1      -2.201   3.341  -7.001  0.00  0.00    +0.341 C 
ATOM     22  O   UNL     1      -1.022   3.174  -7.245  0.00  0.00    -0.245 OA
BRANCH  21  23
ATOM     23  C   UNL     1      -3.067   4.013  -7.981  0.00  0.00    +0.069 A 
ATOM     24  C   UNL     1      -4.408   4.209  -7.731  0.00  0.00    +0.060 A 
ATOM     25  S   UNL     1      -4.962   5.024  -9.156  0.00  0.00    -0.100 S 
ATOM     26  C   UNL     1      -3.440   5.087 -10.057  0.00  0.00    -0.006 A 
ATOM     27  C   UNL     1      -2.538   4.486  -9.247  0.00  0.00    -0.023 A 
ATOM     28  C   UNL     1      -1.082   4.337  -9.670  0.00  0.00    +0.037 C 
ATOM     29  C   UNL     1      -0.990   4.516 -11.187  0.00  0.00    +0.005 C 
ATOM     30  C   UNL     1      -1.672   5.823 -11.600  0.00  0.00    +0.005 C 
ATOM     31  C   UNL     1      -3.189   5.670 -11.413  0.00  0.00    +0.043 C 
ENDBRANCH  21  23
ENDBRANCH  20  21
ENDBRANCH  19  20
ENDBRANCH   1  19
TORSDOF 6
