REMARK  Name = ZINC63057344
REMARK  5 active torsions:
REMARK  status: ('A' for Active; 'I' for Inactive)
REMARK    1  A    between atoms: C_1  and  C_2
REMARK    2  A    between atoms: C_7  and  C_8
REMARK    3  A    between atoms: C_9  and  C_14
REMARK    4  A    between atoms: C_12  and  N_13
REMARK    5  A    between atoms: C_18  and  C_20
REMARK                            x       y       z     vdW  Elec       q    Type
REMARK                         _______ _______ _______ _____ _____    ______ ____
ROOT
ATOM      1  C   UNL     1       0.025   0.020   2.494  0.00  0.00    +0.071 A 
ATOM      2  C   UNL     1      -1.149   0.429   3.270  0.00  0.00    +0.123 A 
ATOM      3  N   UNL     1      -0.709   1.045   4.341  0.00  0.00    -0.075 NA
ATOM      4  O   UNL     1       0.704   1.063   4.311  0.00  0.00    -0.339 OA
ATOM      5  C   UNL     1       1.133   0.441   3.202  0.00  0.00    +0.224 A 
ENDROOT
BRANCH   2   6
ATOM      6  C   UNL     1      -2.568   0.192   2.910  0.00  0.00    +0.005 A 
ATOM      7  C   UNL     1      -2.965   0.217   1.574  0.00  0.00    +0.013 A 
ATOM      8  C   UNL     1      -4.285  -0.005   1.244  0.00  0.00    +0.039 A 
ATOM      9  C   UNL     1      -5.218  -0.252   2.239  0.00  0.00    +0.126 A 
ATOM     10  C   UNL     1      -4.829  -0.277   3.568  0.00  0.00    -0.015 A 
ATOM     11  C   UNL     1      -3.508  -0.063   3.907  0.00  0.00    +0.016 A 
ATOM     12  C   UNL     1      -5.847  -0.546   4.646  0.00  0.00    +0.047 C 
ATOM     13  F   UNL     1      -6.511  -0.468   1.912  0.00  0.00    -0.205 F 
ENDBRANCH   2   6
BRANCH   1  20
ATOM     14  C   UNL     1      -0.018   1.503   0.010  0.00  0.00    +0.044 C 
ATOM     15  C   UNL     1       0.002  -0.004   0.002  0.00  0.00    -0.043 A 
ATOM     16  C   UNL     1       0.006  -0.689  -1.196  0.00  0.00    +0.004 A 
ATOM     17  C   UNL     1       0.025  -2.072  -1.205  0.00  0.00    +0.000 A 
ATOM     18  C   UNL     1       0.040  -2.777  -0.015  0.00  0.00    +0.001 A 
ATOM     19  C   UNL     1       0.037  -2.104   1.189  0.00  0.00    +0.009 A 
ATOM     20  C   UNL     1       0.023  -0.709   1.205  0.00  0.00    -0.008 A 
ENDBRANCH   1  20
BRANCH   5  21
ATOM     21  N   UNL     1       2.449   0.258   2.833  0.00  0.00    -0.327 N 
ATOM     22  H   UNL     1       2.661  -0.205   2.007  0.00  0.00    +0.145 HD
ATOM     23  H   UNL     1       3.163   0.591   3.399  0.00  0.00    +0.145 HD
ENDBRANCH   5  21
TORSDOF 3
