REMARK  Name = ZINC37577943
REMARK  7 active torsions:
REMARK  status: ('A' for Active; 'I' for Inactive)
REMARK    1  A    between atoms: C_1  and  C_2
REMARK    2  A    between atoms: C_8  and  N_10
REMARK    3  A    between atoms: N_10  and  S_11
REMARK    4  A    between atoms: S_11  and  C_14
REMARK    5  A    between atoms: C_17  and  C_20
REMARK    6  A    between atoms: C_21  and  C_22
REMARK    7  A    between atoms: C_22  and  O_23
REMARK                            x       y       z     vdW  Elec       q    Type
REMARK                         _______ _______ _______ _____ _____    ______ ____
ROOT
ATOM      1  S   UNL     1       0.932   0.360   3.795  0.00  0.00    +0.059 S 
ATOM      2  O   UNL     1      -0.003   0.801   4.770  0.00  0.00    -0.153 OA
ATOM      3  O   UNL     1       1.827  -0.718   4.031  0.00  0.00    -0.153 OA
ENDROOT
BRANCH   1   4
ATOM      4  C   UNL     1       1.922   1.756   3.379  0.00  0.00    +0.105 A 
ATOM      5  C   UNL     1       3.189   1.571   2.855  0.00  0.00    +0.030 A 
ATOM      6  C   UNL     1       3.970   2.660   2.527  0.00  0.00    +0.019 A 
ATOM      7  C   UNL     1       3.479   3.951   2.725  0.00  0.00    +0.025 A 
ATOM      8  C   UNL     1       2.201   4.131   3.254  0.00  0.00    +0.019 A 
ATOM      9  C   UNL     1       1.428   3.034   3.573  0.00  0.00    +0.030 A 
BRANCH   7  10
ATOM     10  C   UNL     1       4.284   5.086   2.387  0.00  0.00    -0.064 C 
ATOM     11  C   UNL     1       4.944   6.016   2.110  0.00  0.00    -0.069 C 
BRANCH  11  12
ATOM     12  C   UNL     1       5.772   7.183   1.762  0.00  0.00    +0.244 C 
BRANCH  12  13
ATOM     13  O   UNL     1       5.052   8.382   2.055  0.00  0.00    -0.383 OA
ATOM     14  H   UNL     1       5.538   9.193   1.851  0.00  0.00    +0.211 HD
ENDBRANCH  12  13
ENDBRANCH  11  12
ENDBRANCH   7  10
ENDBRANCH   1   4
BRANCH   1  15
ATOM     15  N   UNL     1       0.056  -0.038   2.447  0.00  0.00    -0.187 NA
ATOM     16  H   UNL     1      -0.910   0.041   2.455  0.00  0.00    +0.148 HD
BRANCH  15  23
ATOM     17  C   UNL     1      -0.019   1.526   0.010  0.00  0.00    +0.009 C 
ATOM     18  C   UNL     1       0.002  -0.004   0.002  0.00  0.00    +0.005 C 
ATOM     19  C   UNL     1      -1.433  -0.534   0.013  0.00  0.00    +0.005 C 
ATOM     20  C   UNL     1      -1.413  -2.063   0.004  0.00  0.00    +0.000 C 
ATOM     21  C   UNL     1      -0.673  -2.570   1.244  0.00  0.00    +0.002 C 
ATOM     22  C   UNL     1       0.763  -2.041   1.233  0.00  0.00    +0.020 C 
ATOM     23  C   UNL     1       0.742  -0.511   1.242  0.00  0.00    +0.079 C 
ENDBRANCH  15  23
ENDBRANCH   1  15
TORSDOF 6
