REMARK  Name = ZINC45484231
REMARK  12 active torsions:
REMARK  status: ('A' for Active; 'I' for Inactive)
REMARK    1  A    between atoms: C_1  and  C_2
REMARK    2  A    between atoms: C_4  and  C_28
REMARK    3  A    between atoms: N_5  and  C_7
REMARK    4  A    between atoms: C_7  and  C_8
REMARK    5  A    between atoms: N_10  and  N_11
REMARK    6  A    between atoms: N_14  and  C_15
REMARK    7  A    between atoms: C_15  and  C_16
REMARK    8  A    between atoms: C_16  and  C_18
REMARK    9  A    between atoms: C_16  and  N_21
REMARK   10  A    between atoms: C_18  and  C_19
REMARK   11  A    between atoms: C_18  and  C_20
REMARK   12  A    between atoms: N_21  and  C_22
REMARK                            x       y       z     vdW  Elec       q    Type
REMARK                         _______ _______ _______ _____ _____    ______ ____
ROOT
ATOM      1  N   UNL     1       2.800  -5.120   2.602  0.00  0.00    -0.218 N 
ATOM      2  C   UNL     1       3.149  -6.129   3.424  0.00  0.00    +0.316 C 
ATOM      3  O   UNL     1       4.323  -6.380   3.614  0.00  0.00    -0.251 OA
ATOM      4  N   UNL     1       2.196  -6.860   4.036  0.00  0.00    -0.296 N 
ATOM      5  H   UNL     1       3.486  -4.594   2.162  0.00  0.00    +0.174 HD
ATOM      6  H   UNL     1       1.259  -6.660   3.885  0.00  0.00    +0.150 HD
ENDROOT
BRANCH   1   9
ATOM      7  C   UNL     1       1.097  -3.821   1.561  0.00  0.00    +0.251 C 
ATOM      8  O   UNL     1       1.955  -3.163   1.010  0.00  0.00    -0.272 OA
ATOM      9  N   UNL     1       1.447  -4.830   2.383  0.00  0.00    -0.232 N 
ATOM     10  H   UNL     1       0.761  -5.357   2.824  0.00  0.00    +0.173 HD
BRANCH   7  11
ATOM     11  C   UNL     1      -0.358  -3.510   1.326  0.00  0.00    +0.240 C 
BRANCH  11  16
ATOM     12  C   UNL     1      -0.712   1.184  -0.416  0.00  0.00    +0.067 C 
ATOM     13  C   UNL     1      -0.627  -0.319  -0.339  0.00  0.00    +0.060 A 
ATOM     14  C   UNL     1      -0.642  -1.198  -1.426  0.00  0.00    +0.047 A 
ATOM     15  C   UNL     1      -0.546  -2.458  -0.944  0.00  0.00    +0.037 A 
ATOM     16  N   UNL     1      -0.473  -2.380   0.401  0.00  0.00    -0.259 N 
ATOM     17  N   UNL     1      -0.520  -1.026   0.757  0.00  0.00    -0.176 NA
ATOM     18  C   UNL     1      -0.526  -3.724  -1.762  0.00  0.00    +0.065 C 
ENDBRANCH  11  16
ENDBRANCH   7  11
ENDBRANCH   1   9
BRANCH   4  19
ATOM     19  C   UNL     1       2.576  -7.957   4.930  0.00  0.00    +0.128 C 
BRANCH  19  20
ATOM     20  C   UNL     1       1.315  -8.619   5.489  0.00  0.00    +0.090 C 
BRANCH  20  21
ATOM     21  C   UNL     1       1.709  -9.681   6.516  0.00  0.00    +0.005 C 
ATOM     22  C   UNL     1       0.447 -10.280   7.141  0.00  0.00    +0.009 C 
ATOM     23  C   UNL     1       2.510 -10.787   5.825  0.00  0.00    +0.009 C 
ENDBRANCH  20  21
BRANCH  20  24
ATOM     24  N   UNL     1       0.475  -7.605   6.132  0.00  0.00    -0.339 N 
ATOM     25  H   UNL     1       0.844  -7.043   6.832  0.00  0.00    +0.146 HD
BRANCH  24  26
ATOM     26  C   UNL     1      -0.855  -7.447   5.738  0.00  0.00    +0.027 A 
ATOM     27  C   UNL     1      -1.345  -8.148   4.644  0.00  0.00    +0.023 A 
ATOM     28  C   UNL     1      -2.661  -7.990   4.257  0.00  0.00    +0.002 A 
ATOM     29  C   UNL     1      -3.491  -7.134   4.957  0.00  0.00    +0.000 A 
ATOM     30  C   UNL     1      -3.007  -6.434   6.047  0.00  0.00    +0.002 A 
ATOM     31  C   UNL     1      -1.693  -6.592   6.442  0.00  0.00    +0.023 A 
ENDBRANCH  24  26
ENDBRANCH  20  24
ENDBRANCH  19  20
ENDBRANCH   4  19
TORSDOF 8
