REMARK  Name = ZINC35186998
REMARK  7 active torsions:
REMARK  status: ('A' for Active; 'I' for Inactive)
REMARK    1  A    between atoms: C_1  and  C_2
REMARK    2  A    between atoms: C_2  and  C_3
REMARK    3  A    between atoms: C_3  and  C_5
REMARK    4  A    between atoms: C_3  and  C_6
REMARK    5  A    between atoms: C_6  and  C_8
REMARK    6  A    between atoms: C_6  and  N_18
REMARK    7  A    between atoms: C_14  and  O_17
REMARK                            x       y       z     vdW  Elec       q    Type
REMARK                         _______ _______ _______ _____ _____    ______ ____
ROOT
ATOM      1  C   UNL     1       2.343  -0.204   1.156  0.00  0.00    +0.163 C 
ENDROOT
BRANCH   1   2
ATOM      2  C   UNL     1       2.559   1.283   1.271  0.00  0.00    +0.236 C 
ATOM      3  O   UNL     1       2.854   1.771   2.342  0.00  0.00    -0.274 OA
ATOM      4  N   UNL     1       2.424   2.070   0.186  0.00  0.00    -0.297 N 
ATOM      5  C   UNL     1       1.960   1.511  -1.091  0.00  0.00    +0.108 C 
ATOM      6  C   UNL     1       0.760   2.328  -1.581  0.00  0.00    +0.021 C 
ATOM      7  C   UNL     1       1.148   3.807  -1.646  0.00  0.00    +0.034 C 
ATOM      8  C   UNL     1       1.530   4.299  -0.248  0.00  0.00    +0.132 C 
ATOM      9  C   UNL     1       2.732   3.505   0.258  0.00  0.00    +0.139 C 
BRANCH   8  10
ATOM     10  O   UNL     1       1.862   5.687  -0.304  0.00  0.00    -0.390 OA
ATOM     11  H   UNL     1       1.142   6.251  -0.618  0.00  0.00    +0.210 HD
ENDBRANCH   8  10
ENDBRANCH   1   2
BRANCH   1  12
ATOM     12  N   UNL     1       3.094  -0.890   2.210  0.00  0.00    -0.288 N 
ATOM     13  C   UNL     1       3.478  -2.171   2.040  0.00  0.00    +0.298 C 
ATOM     14  O   UNL     1       3.200  -2.757   1.011  0.00  0.00    -0.253 OA
ATOM     15  N   UNL     1       4.168  -2.802   3.010  0.00  0.00    -0.313 N 
ATOM     16  H   UNL     1       3.315  -0.423   3.030  0.00  0.00    +0.151 HD
ATOM     17  H   UNL     1       4.390  -2.334   3.830  0.00  0.00    +0.146 HD
ATOM     18  H   UNL     1       4.444  -3.724   2.887  0.00  0.00    +0.146 HD
ENDBRANCH   1  12
BRANCH   1  19
ATOM     19  C   UNL     1       0.853  -0.517   1.305  0.00  0.00    +0.015 C 
ATOM     20  C   UNL     1       0.400  -0.175   2.726  0.00  0.00    +0.010 C 
BRANCH  19  22
ATOM     21  C   UNL     1       0.947  -2.320  -0.422  0.00  0.00    +0.004 C 
ATOM     22  C   UNL     1       0.614  -2.004   1.038  0.00  0.00    +0.002 C 
ENDBRANCH  19  22
ENDBRANCH   1  19
TORSDOF 5
