REMARK  Name = ZINC63214953
REMARK  2 active torsions:
REMARK  status: ('A' for Active; 'I' for Inactive)
REMARK    1  A    between atoms: N_11  and  C_14
REMARK    2  A    between atoms: C_21  and  N_23
REMARK                            x       y       z     vdW  Elec       q    Type
REMARK                         _______ _______ _______ _____ _____    ______ ____
ROOT
ATOM      1  C   UNL     1      -0.019   1.538   0.011  0.00  0.00    +0.000 C 
ATOM      2  C   UNL     1       1.389   2.006  -0.000  0.00  0.00    +0.000 C 
ATOM      3  C   UNL     1       1.960   2.181  -1.429  0.00  0.00    +0.001 C 
ATOM      4  C   UNL     1       1.537   1.070  -2.437  0.00  0.00    +0.016 C 
ATOM      5  C   UNL     1       1.549  -0.327  -1.931  0.00  0.00    +0.056 C 
ATOM      6  C   UNL     1       0.179  -0.625  -1.241  0.00  0.00    +0.016 C 
ATOM      7  C   UNL     1       0.002  -0.004   0.002  0.00  0.00    +0.001 C 
ATOM      8  C   UNL     1       1.676  -1.320  -3.112  0.00  0.00    +0.112 C 
ATOM      9  C   UNL     1       2.966  -2.053  -2.815  0.00  0.00    +0.223 C 
ATOM     10  O   UNL     1       3.480  -2.891  -3.525  0.00  0.00    -0.275 OA
ATOM     11  N   UNL     1       3.449  -1.627  -1.643  0.00  0.00    -0.240 N 
ATOM     12  C   UNL     1       2.693  -0.691  -1.038  0.00  0.00    +0.229 C 
ATOM     13  O   UNL     1       2.944  -0.256   0.065  0.00  0.00    -0.275 OA
ENDROOT
BRANCH  11  14
ATOM     14  C   UNL     1       4.694  -2.132  -1.060  0.00  0.00    +0.070 C 
ATOM     15  C   UNL     1       5.859  -1.805  -2.013  0.00  0.00    +0.021 C 
ATOM     16  C   UNL     1       7.120  -2.643  -1.726  0.00  0.00    +0.002 C 
ATOM     17  C   UNL     1       7.395  -2.783  -0.253  0.00  0.00    +0.000 C 
ATOM     18  C   UNL     1       6.757  -4.097   0.241  0.00  0.00    -0.002 C 
ATOM     19  C   UNL     1       5.326  -3.966   0.475  0.00  0.00    -0.014 C 
ATOM     20  C   UNL     1       4.552  -3.609  -0.813  0.00  0.00    -0.054 C 
BRANCH  20  21
ATOM     21  N   UNL     1       3.133  -3.947  -0.644  0.00  0.00    +0.381 N 
ATOM     22  H   UNL     1       2.626  -3.697  -1.480  0.00  0.00    -0.090 HD
ATOM     23  H   UNL     1       3.040  -4.938  -0.478  0.00  0.00    -0.090 HD
ATOM     24  H   UNL     1       2.757  -3.439   0.142  0.00  0.00    -0.090 HD
ENDBRANCH  20  21
ENDBRANCH  11  14
TORSDOF 2
