REMARK  Name = ZINC31949196
REMARK  5 active torsions:
REMARK  status: ('A' for Active; 'I' for Inactive)
REMARK    1  A    between atoms: C_1  and  C_2
REMARK    2  A    between atoms: C_4  and  C_8
REMARK    3  A    between atoms: C_5  and  C_7
REMARK    4  A    between atoms: C_8  and  C_10
REMARK    5  A    between atoms: C_8  and  N_11
REMARK                            x       y       z     vdW  Elec       q    Type
REMARK                         _______ _______ _______ _____ _____    ______ ____
ROOT
ATOM      1  N   UNL     1       2.373   3.604   0.263  0.00  0.00    -0.322 N 
ATOM      2  C   UNL     1       1.238   2.844   0.452  0.00  0.00    +0.130 A 
ATOM      3  C   UNL     1      -0.010   3.455   0.724  0.00  0.00    +0.040 A 
ATOM      4  C   UNL     1      -0.154   4.844   0.813  0.00  0.00    +0.013 A 
ATOM      5  C   UNL     1      -1.382   5.376   1.078  0.00  0.00    +0.001 A 
ATOM      6  C   UNL     1      -2.492   4.556   1.260  0.00  0.00    +0.002 A 
ATOM      7  C   UNL     1      -2.385   3.200   1.179  0.00  0.00    +0.028 A 
ATOM      8  C   UNL     1      -1.138   2.619   0.908  0.00  0.00    +0.076 A 
ATOM      9  N   UNL     1      -0.979   1.291   0.814  0.00  0.00    -0.235 NA
ATOM     10  C   UNL     1       0.203   0.779   0.564  0.00  0.00    +0.223 A 
ATOM     11  N   UNL     1       1.286   1.520   0.385  0.00  0.00    -0.220 NA
ATOM     12  H   UNL     1       2.316   4.700   0.322  0.00  0.00    +0.148 HD
ENDROOT
BRANCH   1  13
ATOM     13  C   UNL     1       3.654   2.950  -0.018  0.00  0.00    +0.100 C 
ATOM     14  C   UNL     1       3.790   2.722  -1.524  0.00  0.00    +0.033 C 
BRANCH  13  18
ATOM     15  C   UNL     1       5.725   7.455   1.143  0.00  0.00    +0.051 C 
ATOM     16  C   UNL     1       5.653   5.959   0.973  0.00  0.00    -0.013 A 
ATOM     17  C   UNL     1       4.619   5.199   0.538  0.00  0.00    +0.016 A 
ATOM     18  C   UNL     1       4.781   3.828   0.462  0.00  0.00    -0.017 A 
ATOM     19  C   UNL     1       5.967   3.285   0.830  0.00  0.00    -0.008 A 
ATOM     20  S   UNL     1       6.907   4.730   1.293  0.00  0.00    -0.098 S 
ATOM     21  C   UNL     1       6.384   1.837   0.844  0.00  0.00    +0.052 C 
ENDBRANCH  13  18
ENDBRANCH   1  13
TORSDOF 2
