REMARK  Name = ZINC49352263
REMARK  7 active torsions:
REMARK  status: ('A' for Active; 'I' for Inactive)
REMARK    1  A    between atoms: C_1  and  C_2
REMARK    2  A    between atoms: C_2  and  C_4
REMARK    3  A    between atoms: C_2  and  N_8
REMARK    4  A    between atoms: C_4  and  O_6
REMARK    5  A    between atoms: O_6  and  C_7
REMARK    6  A    between atoms: N_8  and  C_9
REMARK    7  A    between atoms: C_14  and  N_15
REMARK                            x       y       z     vdW  Elec       q    Type
REMARK                         _______ _______ _______ _____ _____    ______ ____
ROOT
ATOM      1  C   UNL     1      -0.020  -0.613  -2.403  0.00  0.00    +0.050 A 
ATOM      2  C   UNL     1      -1.369  -0.296  -2.454  0.00  0.00    +0.048 A 
ATOM      3  C   UNL     1      -2.068  -0.432  -3.645  0.00  0.00    +0.038 A 
ATOM      4  C   UNL     1      -1.418  -0.885  -4.785  0.00  0.00    -0.024 A 
ATOM      5  C   UNL     1      -0.073  -1.202  -4.737  0.00  0.00    +0.030 A 
ATOM      6  C   UNL     1       0.631  -1.063  -3.551  0.00  0.00    +0.046 A 
ATOM      7  C   UNL     1      -2.182  -1.029  -6.076  0.00  0.00    +0.046 C 
ATOM      8  C   UNL     1      -3.619  -1.455  -5.775  0.00  0.00    +0.101 C 
ATOM      9  C   UNL     1      -4.200  -0.574  -4.702  0.00  0.00    +0.218 C 
ATOM     10  O   UNL     1      -5.375  -0.277  -4.742  0.00  0.00    -0.275 OA
ATOM     11  N   UNL     1      -3.431  -0.113  -3.699  0.00  0.00    -0.285 N 
ATOM     12  H   UNL     1      -3.823   0.445  -3.009  0.00  0.00    +0.155 HD
ENDROOT
BRANCH   6  13
ATOM     13  N   UNL     1       1.997  -1.379  -3.505  0.00  0.00    -0.357 N 
ATOM     14  H   UNL     1       2.489  -1.285  -2.674  0.00  0.00    +0.142 HD
ATOM     15  H   UNL     1       2.450  -1.692  -4.304  0.00  0.00    +0.142 HD
ENDBRANCH   6  13
BRANCH   1  16
ATOM     16  N   UNL     1       0.688  -0.476  -1.203  0.00  0.00    -0.330 N 
ATOM     17  H   UNL     1       1.632  -0.695  -1.170  0.00  0.00    +0.147 HD
BRANCH  16  19
ATOM     18  C   UNL     1      -0.019   1.526   0.010  0.00  0.00    +0.040 C 
ATOM     19  C   UNL     1       0.002  -0.004   0.002  0.00  0.00    +0.177 C 
BRANCH  19  20
ATOM     20  C   UNL     1       0.731  -0.503   1.223  0.00  0.00    +0.327 C 
ATOM     21  O   UNL     1       1.722  -1.184   1.099  0.00  0.00    -0.249 OA
BRANCH  20  22
ATOM     22  O   UNL     1       0.280  -0.192   2.448  0.00  0.00    -0.467 OA
ATOM     23  C   UNL     1       1.020  -0.699   3.560  0.00  0.00    +0.280 C 
ENDBRANCH  20  22
ENDBRANCH  19  20
ENDBRANCH  16  19
ENDBRANCH   1  16
TORSDOF 5
