REMARK  Name = ZINC46773272
REMARK  14 active torsions:
REMARK  status: ('A' for Active; 'I' for Inactive)
REMARK    1  A    between atoms: C_1  and  C_2
REMARK    2  A    between atoms: C_5  and  S_8
REMARK    3  A    between atoms: S_8  and  N_11
REMARK    4  A    between atoms: N_11  and  C_12
REMARK    5  A    between atoms: C_12  and  C_14
REMARK    6  A    between atoms: C_12  and  C_18
REMARK    7  A    between atoms: C_14  and  C_15
REMARK    8  A    between atoms: C_15  and  C_16
REMARK    9  A    between atoms: C_15  and  C_17
REMARK   10  A    between atoms: N_20  and  N_21
REMARK   11  A    between atoms: N_21  and  C_22
REMARK   12  A    between atoms: C_22  and  N_24
REMARK   13  A    between atoms: N_24  and  C_25
REMARK   14  A    between atoms: C_30  and  C_31
REMARK                            x       y       z     vdW  Elec       q    Type
REMARK                         _______ _______ _______ _____ _____    ______ ____
ROOT
ATOM      1  C   UNL     1       3.638  -5.619   1.178  0.00  0.00    +0.248 C 
ATOM      2  O   UNL     1       3.762  -6.368   0.232  0.00  0.00    -0.273 OA
ATOM      3  N   UNL     1       4.632  -5.501   2.080  0.00  0.00    -0.234 N 
ATOM      4  H   UNL     1       4.533  -4.902   2.836  0.00  0.00    +0.173 HD
ENDROOT
BRANCH   3   5
ATOM      5  N   UNL     1       5.810  -6.245   1.925  0.00  0.00    -0.246 N 
ATOM      6  H   UNL     1       5.909  -6.844   1.169  0.00  0.00    +0.172 HD
BRANCH   5   7
ATOM      7  C   UNL     1       6.804  -6.127   2.827  0.00  0.00    +0.151 C 
ATOM      8  S   UNL     1       8.243  -7.036   2.638  0.00  0.00    -0.017 S 
BRANCH   7   9
ATOM      9  N   UNL     1       6.666  -5.295   3.878  0.00  0.00    -0.296 N 
ATOM     10  H   UNL     1       5.825  -4.836   4.026  0.00  0.00    +0.154 HD
BRANCH   9  11
ATOM     11  C   UNL     1       7.737  -5.093   4.756  0.00  0.00    +0.037 A 
ATOM     12  C   UNL     1       8.509  -6.170   5.171  0.00  0.00    +0.023 A 
ATOM     13  C   UNL     1       9.565  -5.969   6.038  0.00  0.00    +0.003 A 
ATOM     14  C   UNL     1       9.854  -4.695   6.493  0.00  0.00    +0.020 A 
ATOM     15  C   UNL     1       9.087  -3.619   6.081  0.00  0.00    +0.046 A 
ATOM     16  C   UNL     1       8.033  -3.814   5.209  0.00  0.00    -0.011 A 
ATOM     17  C   UNL     1       7.202  -2.642   4.756  0.00  0.00    +0.047 C 
ATOM     18 CL   UNL     1       9.454  -2.023   6.655  0.00  0.00    -0.083 Cl
ENDBRANCH   9  11
ENDBRANCH   7   9
ENDBRANCH   5   7
ENDBRANCH   3   5
BRANCH   1  19
ATOM     19  C   UNL     1       2.371  -4.819   1.345  0.00  0.00    +0.164 C 
BRANCH  19  20
ATOM     20  N   UNL     1       1.454  -5.122   0.243  0.00  0.00    -0.178 NA
ATOM     21  H   UNL     1       1.532  -4.645  -0.598  0.00  0.00    +0.149 HD
BRANCH  20  22
ATOM     22  S   UNL     1       0.285  -6.279   0.433  0.00  0.00    +0.059 S 
ATOM     23  O   UNL     1       0.929  -7.422   0.979  0.00  0.00    -0.153 OA
ATOM     24  O   UNL     1      -0.444  -6.324  -0.785  0.00  0.00    -0.153 OA
BRANCH  22  29
ATOM     25  C   UNL     1      -3.536  -4.279   4.654  0.00  0.00    +0.044 C 
ATOM     26  C   UNL     1      -2.582  -4.778   3.599  0.00  0.00    -0.050 A 
ATOM     27  C   UNL     1      -2.735  -4.382   2.284  0.00  0.00    +0.005 A 
ATOM     28  C   UNL     1      -1.860  -4.840   1.317  0.00  0.00    +0.029 A 
ATOM     29  C   UNL     1      -0.830  -5.694   1.666  0.00  0.00    +0.105 A 
ATOM     30  C   UNL     1      -0.676  -6.090   2.982  0.00  0.00    +0.029 A 
ATOM     31  C   UNL     1      -1.549  -5.628   3.949  0.00  0.00    +0.005 A 
ENDBRANCH  22  29
ENDBRANCH  20  22
ENDBRANCH  19  20
BRANCH  19  32
ATOM     32  C   UNL     1       2.706  -3.326   1.334  0.00  0.00    +0.033 C 
BRANCH  32  33
ATOM     33  C   UNL     1       1.436  -2.517   1.605  0.00  0.00    -0.015 C 
ATOM     34  C   UNL     1       0.952  -2.790   3.031  0.00  0.00    +0.007 C 
ATOM     35  C   UNL     1       1.737  -1.026   1.446  0.00  0.00    +0.007 C 
ENDBRANCH  32  33
ENDBRANCH  19  32
ENDBRANCH   1  19
TORSDOF 10
