REMARK  Name = ZINC12559068
REMARK  3 active torsions:
REMARK  status: ('A' for Active; 'I' for Inactive)
REMARK    1  A    between atoms: C_1  and  C_2
REMARK    2  A    between atoms: C_3  and  S_15
REMARK    3  A    between atoms: S_15  and  C_16
REMARK                            x       y       z     vdW  Elec       q    Type
REMARK                         _______ _______ _______ _____ _____    ______ ____
ROOT
ATOM      1  C   UNL     1       0.185   1.066   0.151  0.00  0.00    +0.041 C 
ATOM      2  C   UNL     1      -0.055  -0.407  -0.059  0.00  0.00    -0.045 C 
ATOM      3  C   UNL     1      -0.260  -0.875  -1.292  0.00  0.00    +0.077 C 
ATOM      4  C   UNL     1      -0.469  -2.321  -1.498  0.00  0.00    +0.251 C 
ATOM      5  O   UNL     1      -0.888  -2.733  -2.562  0.00  0.00    -0.270 OA
ATOM      6  N   UNL     1      -0.193  -3.182  -0.500  0.00  0.00    -0.304 N 
ATOM      7  C   UNL     1       0.435  -2.719   0.734  0.00  0.00    +0.107 C 
ATOM      8  C   UNL     1      -0.057  -1.338   1.123  0.00  0.00    +0.063 C 
ATOM      9  C   UNL     1       0.786  -0.759   2.226  0.00  0.00    -0.017 C 
ATOM     10  C   UNL     1       2.081  -1.037   2.303  0.00  0.00    -0.004 C 
ATOM     11  C   UNL     1       2.699  -1.941   1.322  0.00  0.00    -0.003 C 
ATOM     12  C   UNL     1       1.931  -2.726   0.583  0.00  0.00    -0.004 C 
ATOM     13  H   UNL     1      -0.415  -4.120  -0.602  0.00  0.00    +0.150 HD
ENDROOT
BRANCH   3  14
ATOM     14  S   UNL     1      -0.280   0.228  -2.667  0.00  0.00    -0.047 S 
BRANCH  14  15
ATOM     15  C   UNL     1       1.128  -0.247  -3.615  0.00  0.00    +0.172 A 
ATOM     16  N   UNL     1       1.467   0.274  -4.832  0.00  0.00    -0.333 N 
ATOM     17  H   UNL     1       0.983   0.959  -5.319  0.00  0.00    +0.168 HD
ATOM     18  C   UNL     1       2.630  -0.360  -5.239  0.00  0.00    +0.067 A 
ATOM     19  C   UNL     1       3.435  -0.259  -6.363  0.00  0.00    +0.029 A 
ATOM     20  C   UNL     1       4.559  -1.052  -6.477  0.00  0.00    +0.022 A 
ATOM     21  C   UNL     1       4.889  -1.951  -5.472  0.00  0.00    +0.043 A 
ATOM     22  C   UNL     1       4.099  -2.064  -4.349  0.00  0.00    +0.050 A 
ATOM     23  C   UNL     1       2.958  -1.268  -4.219  0.00  0.00    +0.091 A 
ATOM     24  N   UNL     1       2.009  -1.148  -3.255  0.00  0.00    -0.222 NA
ATOM     25 CL   UNL     1       6.306  -2.941  -5.633  0.00  0.00    -0.083 Cl
ENDBRANCH  14  15
ENDBRANCH   3  14
TORSDOF 2
