REMARK  Name = ZINC13425869
REMARK  8 active torsions:
REMARK  status: ('A' for Active; 'I' for Inactive)
REMARK    1  A    between atoms: C_1  and  C_2
REMARK    2  A    between atoms: C_2  and  C_3
REMARK    3  A    between atoms: C_3  and  N_4
REMARK    4  A    between atoms: C_14  and  S_15
REMARK    5  A    between atoms: S_15  and  C_16
REMARK    6  A    between atoms: C_16  and  C_17
REMARK    7  A    between atoms: C_25  and  C_31
REMARK    8  A    between atoms: C_26  and  C_28
REMARK                            x       y       z     vdW  Elec       q    Type
REMARK                         _______ _______ _______ _____ _____    ______ ____
ROOT
ATOM      1  S   UNL     1      -2.078  -2.395  -2.280  0.00  0.00    -0.083 S 
ENDROOT
BRANCH   1  12
ATOM      2  N   UNL     1       0.026  -2.796  -0.644  0.00  0.00    -0.287 N 
ATOM      3  C   UNL     1       1.068  -3.484  -0.122  0.00  0.00    +0.262 A 
ATOM      4  O   UNL     1       1.747  -3.017   0.774  0.00  0.00    -0.267 OA
ATOM      5  C   UNL     1       1.349  -4.815  -0.675  0.00  0.00    +0.065 A 
ATOM      6  C   UNL     1       2.400  -5.600  -0.203  0.00  0.00    +0.017 A 
ATOM      7  C   UNL     1       2.622  -6.833  -0.750  0.00  0.00    +0.021 A 
ATOM      8  C   UNL     1       1.812  -7.313  -1.773  0.00  0.00    +0.043 A 
ATOM      9  C   UNL     1       0.767  -6.558  -2.258  0.00  0.00    +0.048 A 
ATOM     10  C   UNL     1       0.519  -5.294  -1.714  0.00  0.00    +0.080 A 
ATOM     11  N   UNL     1      -0.496  -4.518  -2.159  0.00  0.00    -0.223 NA
ATOM     12  C   UNL     1      -0.730  -3.335  -1.645  0.00  0.00    +0.172 A 
ATOM     13 CL   UNL     1       2.121  -8.883  -2.447  0.00  0.00    -0.083 Cl
BRANCH   2  14
ATOM     14  C   UNL     1      -0.297  -1.464  -0.127  0.00  0.00    +0.127 C 
BRANCH  14  16
ATOM     15  C   UNL     1      -1.623  -0.202   1.575  0.00  0.00    +0.005 C 
ATOM     16  C   UNL     1      -1.285  -1.593   1.034  0.00  0.00    +0.018 C 
ENDBRANCH  14  16
ENDBRANCH   2  14
ENDBRANCH   1  12
BRANCH   1  17
ATOM     17  C   UNL     1      -2.792  -3.461  -3.562  0.00  0.00    +0.113 C 
BRANCH  17  18
ATOM     18  C   UNL     1      -3.971  -2.767  -4.194  0.00  0.00    -0.022 A 
ATOM     19  C   UNL     1      -5.222  -3.016  -3.746  0.00  0.00    +0.075 A 
ATOM     20  C   UNL     1      -6.334  -2.377  -4.324  0.00  0.00    +0.250 A 
ATOM     21  O   UNL     1      -7.457  -2.611  -3.910  0.00  0.00    -0.268 OA
ATOM     22  N   UNL     1      -6.157  -1.504  -5.336  0.00  0.00    -0.317 N 
ATOM     23  H   UNL     1      -6.926  -1.065  -5.732  0.00  0.00    +0.169 HD
ATOM     24  C   UNL     1      -4.911  -1.235  -5.805  0.00  0.00    +0.089 A 
ATOM     25  C   UNL     1      -3.765  -1.838  -5.264  0.00  0.00    +0.014 A 
ATOM     26  C   UNL     1      -2.546  -1.458  -5.848  0.00  0.00    -0.020 A 
ATOM     27  C   UNL     1      -2.599  -0.548  -6.865  0.00  0.00    +0.106 A 
ATOM     28  S   UNL     1      -4.345  -0.231  -7.018  0.00  0.00    -0.064 S 
ATOM     29  C   UNL     1      -1.235  -2.029  -5.372  0.00  0.00    +0.046 C 
BRANCH  27  30
ATOM     30  C   UNL     1      -1.530   0.001  -7.618  0.00  0.00    +0.393 C 
ATOM     31  O   UNL     1      -0.377  -0.339  -7.383  0.00  0.00    -0.240 OA
ATOM     32  O   UNL     1      -1.760   0.814  -8.505  0.00  0.00    -0.240 OA
ENDBRANCH  27  30
ENDBRANCH  17  18
ENDBRANCH   1  17
TORSDOF 6
