REMARK  Name = ZINC49750220
REMARK  11 active torsions:
REMARK  status: ('A' for Active; 'I' for Inactive)
REMARK    1  A    between atoms: C_1  and  C_2
REMARK    2  A    between atoms: C_2  and  O_3
REMARK    3  A    between atoms: O_3  and  C_4
REMARK    4  A    between atoms: C_4  and  C_6
REMARK    5  A    between atoms: C_7  and  C_28
REMARK    6  A    between atoms: C_8  and  C_25
REMARK    7  A    between atoms: C_10  and  N_11
REMARK    8  A    between atoms: C_12  and  C_14
REMARK    9  A    between atoms: N_19  and  C_21
REMARK   10  A    between atoms: C_21  and  C_22
REMARK   11  A    between atoms: C_22  and  C_23
REMARK                            x       y       z     vdW  Elec       q    Type
REMARK                         _______ _______ _______ _____ _____    ______ ____
ROOT
ATOM      1  C   UNL     1       1.450  -2.345  -2.518  0.00  0.00    +0.091 A 
ATOM      2  C   UNL     1       2.814  -2.606  -2.513  0.00  0.00    -0.015 A 
ATOM      3  C   UNL     1       3.339  -3.113  -3.671  0.00  0.00    +0.079 A 
ATOM      4  S   UNL     1       1.916  -3.213  -4.737  0.00  0.00    -0.068 S 
ATOM      5  C   UNL     1       0.743  -2.625  -3.689  0.00  0.00    +0.087 A 
ATOM      6  C   UNL     1       3.668  -2.345  -1.299  0.00  0.00    +0.046 C 
ENDROOT
BRANCH   3   7
ATOM      7  C   UNL     1       4.726  -3.482  -3.960  0.00  0.00    +0.248 C 
ATOM      8  O   UNL     1       5.583  -3.348  -3.106  0.00  0.00    -0.270 OA
ATOM      9  N   UNL     1       5.055  -3.971  -5.173  0.00  0.00    -0.325 N 
ATOM     10  H   UNL     1       4.372  -4.078  -5.853  0.00  0.00    +0.145 HD
ATOM     11  H   UNL     1       5.973  -4.215  -5.365  0.00  0.00    +0.145 HD
ENDBRANCH   3   7
BRANCH   5  12
ATOM     12  N   UNL     1      -0.607  -2.456  -3.930  0.00  0.00    -0.279 N 
ATOM     13  C   UNL     1      -1.123  -2.783  -5.131  0.00  0.00    +0.219 C 
ATOM     14  O   UNL     1      -0.403  -3.225  -6.000  0.00  0.00    -0.275 OA
ATOM     15  H   UNL     1      -1.183  -2.103  -3.234  0.00  0.00    +0.155 HD
BRANCH  13  16
ATOM     16  C   UNL     1      -2.596  -2.599  -5.393  0.00  0.00    +0.059 C 
ATOM     17  C   UNL     1      -3.401  -3.446  -4.404  0.00  0.00    +0.009 C 
ATOM     18  C   UNL     1      -4.892  -3.313  -4.729  0.00  0.00    -0.018 C 
ATOM     19  C   UNL     1      -5.131  -3.733  -6.181  0.00  0.00    -0.079 C 
ATOM     20  N   UNL     1      -4.354  -2.869  -7.078  0.00  0.00    +0.381 N 
ATOM     21  C   UNL     1      -2.920  -3.044  -6.821  0.00  0.00    -0.066 C 
ATOM     22  H   UNL     1      -4.608  -1.906  -6.919  0.00  0.00    -0.082 HD
BRANCH  20  23
ATOM     23  C   UNL     1      -4.647  -3.225  -8.473  0.00  0.00    -0.064 C 
BRANCH  23  24
ATOM     24  C   UNL     1      -6.114  -2.916  -8.781  0.00  0.00    +0.100 C 
BRANCH  24  25
ATOM     25  C   UNL     1      -6.407  -3.272 -10.179  0.00  0.00    +0.061 C 
ATOM     26  N   UNL     1      -6.633  -3.548 -11.258  0.00  0.00    -0.197 NA
ENDBRANCH  24  25
ENDBRANCH  23  24
ENDBRANCH  20  23
ENDBRANCH  13  16
ENDBRANCH   5  12
BRANCH   1  27
ATOM     27  C   UNL     1       0.776  -1.800  -1.335  0.00  0.00    +0.342 C 
ATOM     28  O   UNL     1       0.312  -2.551  -0.499  0.00  0.00    -0.245 OA
BRANCH  27  29
ATOM     29  O   UNL     1       0.671  -0.465  -1.174  0.00  0.00    -0.461 OA
BRANCH  29  31
ATOM     30  C   UNL     1      -0.019   1.526   0.010  0.00  0.00    +0.048 C 
ATOM     31  C   UNL     1       0.002  -0.004   0.002  0.00  0.00    +0.229 C 
ENDBRANCH  29  31
ENDBRANCH  27  29
ENDBRANCH   1  27
TORSDOF 9
