REMARK  Name = ZINC04711068
REMARK  7 active torsions:
REMARK  status: ('A' for Active; 'I' for Inactive)
REMARK    1  A    between atoms: C_1  and  C_2
REMARK    2  A    between atoms: C_2  and  O_3
REMARK    3  A    between atoms: O_3  and  N_4
REMARK    4  A    between atoms: C_5  and  C_7
REMARK    5  A    between atoms: C_10  and  C_13
REMARK    6  A    between atoms: C_13  and  N_14
REMARK    7  A    between atoms: C_17  and  C_25
REMARK                            x       y       z     vdW  Elec       q    Type
REMARK                         _______ _______ _______ _____ _____    ______ ____
ROOT
ATOM      1  C   UNL     1      -1.305   1.933   0.019  0.00  0.00    +0.039 A 
ATOM      2  C   UNL     1      -1.327   3.329   0.032  0.00  0.00    +0.013 A 
ATOM      3  C   UNL     1      -2.534   3.996   0.037  0.00  0.00    +0.006 A 
ATOM      4  C   UNL     1      -3.721   3.285   0.039  0.00  0.00    -0.030 A 
ATOM      5  C   UNL     1      -3.706   1.901   0.030  0.00  0.00    +0.006 A 
ATOM      6  C   UNL     1      -2.506   1.222   0.021  0.00  0.00    +0.013 A 
ENDROOT
BRANCH   1   8
ATOM      7  N   UNL     1       1.143   1.901   0.001  0.00  0.00    -0.191 N 
ATOM      8  C   UNL     1      -0.014   1.211   0.009  0.00  0.00    +0.267 C 
ATOM      9  O   UNL     1       0.002  -0.004   0.002  0.00  0.00    -0.268 OA
ATOM     10  H   UNL     1       1.130   2.871   0.007  0.00  0.00    +0.183 HD
BRANCH   7  11
ATOM     11  O   UNL     1       2.379   1.210  -0.014  0.00  0.00    -0.280 OA
BRANCH  11  13
ATOM     12  C   UNL     1       4.796   1.215  -0.037  0.00  0.00    +0.036 C 
ATOM     13  C   UNL     1       3.524   2.065  -0.021  0.00  0.00    +0.187 C 
ENDBRANCH  11  13
ENDBRANCH   7  11
ENDBRANCH   1   8
BRANCH   4  14
ATOM     14  C   UNL     1      -5.037   4.021   0.051  0.00  0.00    +0.149 C 
BRANCH  14  15
ATOM     15  N   UNL     1      -5.455   4.251   1.436  0.00  0.00    -0.261 N 
ATOM     16  C   UNL     1      -5.069   5.417   2.112  0.00  0.00    +0.079 A 
ATOM     17  C   UNL     1      -4.569   6.505   1.417  0.00  0.00    +0.030 A 
ATOM     18  C   UNL     1      -4.193   7.645   2.103  0.00  0.00    -0.048 A 
ATOM     19  C   UNL     1      -4.314   7.701   3.479  0.00  0.00    +0.007 A 
ATOM     20  C   UNL     1      -4.813   6.617   4.179  0.00  0.00    +0.048 A 
ATOM     21  C   UNL     1      -5.192   5.473   3.499  0.00  0.00    +0.143 A 
ATOM     22  O   UNL     1      -5.686   4.399   4.171  0.00  0.00    -0.481 OA
ATOM     23  C   UNL     1      -6.672   3.614   3.493  0.00  0.00    +0.325 C 
ATOM     24  C   UNL     1      -6.224   3.345   2.079  0.00  0.00    +0.258 C 
ATOM     25  O   UNL     1      -6.549   2.317   1.523  0.00  0.00    -0.271 OA
ATOM     26  C   UNL     1      -3.649   8.831   1.349  0.00  0.00    +0.044 C 
ENDBRANCH  14  15
ENDBRANCH   4  14
TORSDOF 5
