REMARK  Name = ZINC33033222
REMARK  13 active torsions:
REMARK  status: ('A' for Active; 'I' for Inactive)
REMARK    1  A    between atoms: C_1  and  C_2
REMARK    2  A    between atoms: C_2  and  C_3
REMARK    3  A    between atoms: C_3  and  N_4
REMARK    4  A    between atoms: C_5  and  C_7
REMARK    5  A    between atoms: C_7  and  N_8
REMARK    6  A    between atoms: N_8  and  C_9
REMARK    7  A    between atoms: C_10  and  C_12
REMARK    8  A    between atoms: C_15  and  N_30
REMARK    9  A    between atoms: C_16  and  N_18
REMARK   10  A    between atoms: N_18  and  S_19
REMARK   11  A    between atoms: S_19  and  C_22
REMARK   12  A    between atoms: C_24  and  C_29
REMARK   13  A    between atoms: C_27  and  C_28
REMARK                            x       y       z     vdW  Elec       q    Type
REMARK                         _______ _______ _______ _____ _____    ______ ____
ROOT
ATOM      1  C   UNL     1      -4.093   2.976   1.279  0.00  0.00    +0.039 A 
ATOM      2  C   UNL     1      -4.206   3.392   2.608  0.00  0.00    +0.015 A 
ATOM      3  C   UNL     1      -3.595   2.672   3.611  0.00  0.00    +0.026 A 
ATOM      4  C   UNL     1      -2.866   1.529   3.305  0.00  0.00    +0.052 A 
ATOM      5  C   UNL     1      -2.748   1.107   1.978  0.00  0.00    +0.070 A 
ATOM      6  C   UNL     1      -3.355   1.830   0.968  0.00  0.00    +0.039 A 
ENDROOT
BRANCH   4   7
ATOM      7  N   UNL     1      -2.250   0.803   4.323  0.00  0.00    -0.332 N 
ATOM      8  C   UNL     1      -2.295   1.538   5.595  0.00  0.00    +0.086 C 
ATOM      9  C   UNL     1      -1.541   0.745   6.665  0.00  0.00    -0.063 C 
ATOM     10  N   UNL     1      -2.151  -0.585   6.806  0.00  0.00    +0.381 N 
ATOM     11  C   UNL     1      -2.106  -1.319   5.534  0.00  0.00    -0.063 C 
ATOM     12  C   UNL     1      -2.860  -0.526   4.464  0.00  0.00    +0.086 C 
ATOM     13  H   UNL     1      -1.603  -1.160   7.567  0.00  0.00    -0.086 HD
ATOM     14  H   UNL     1      -3.201  -0.476   7.115  0.00  0.00    -0.086 HD
ENDBRANCH   4   7
BRANCH   1  17
ATOM     15  N   UNL     1      -5.949   4.318   0.421  0.00  0.00    -0.292 N 
ATOM     16  C   UNL     1      -6.553   4.270   1.755  0.00  0.00    +0.133 C 
ATOM     17  C   UNL     1      -4.747   3.748   0.205  0.00  0.00    +0.247 C 
ATOM     18  O   UNL     1      -4.202   3.869  -0.875  0.00  0.00    -0.270 OA
BRANCH  15  19
ATOM     19  C   UNL     1      -6.651   4.986  -0.678  0.00  0.00    +0.203 C 
BRANCH  19  21
ATOM     20  N   UNL     1      -8.277   4.385  -2.441  0.00  0.00    -0.314 N 
ATOM     21  C   UNL     1      -7.532   3.992  -1.389  0.00  0.00    +0.230 C 
ATOM     22  O   UNL     1      -7.570   2.839  -1.015  0.00  0.00    -0.274 OA
ATOM     23  H   UNL     1      -8.243   5.431  -2.780  0.00  0.00    +0.149 HD
BRANCH  20  24
ATOM     24  C   UNL     1      -9.134   3.418  -3.133  0.00  0.00    +0.104 C 
BRANCH  24  26
ATOM     25  C   UNL     1     -10.762   3.107  -5.003  0.00  0.00    +0.005 C 
ATOM     26  C   UNL     1      -9.867   4.116  -4.280  0.00  0.00    +0.015 C 
ENDBRANCH  24  26
ENDBRANCH  20  24
ENDBRANCH  19  21
ENDBRANCH  15  19
ENDBRANCH   1  17
BRANCH   5  27
ATOM     27  N   UNL     1      -2.013  -0.044   1.671  0.00  0.00    -0.214 N 
ATOM     28  H   UNL     1      -1.104  -0.284   2.241  0.00  0.00    +0.174 HD
BRANCH  27  29
ATOM     29  S   UNL     1      -2.512  -1.044   0.449  0.00  0.00    +0.073 S 
ATOM     30  O   UNL     1      -3.906  -1.245   0.632  0.00  0.00    -0.150 OA
ATOM     31  O   UNL     1      -1.586  -2.121   0.402  0.00  0.00    -0.150 OA
BRANCH  29  32
ATOM     32  C   UNL     1      -2.325  -0.155  -1.061  0.00  0.00    +0.112 A 
ATOM     33  C   UNL     1      -3.435   0.137  -1.833  0.00  0.00    +0.032 A 
ATOM     34  C   UNL     1      -3.288   0.835  -3.017  0.00  0.00    -0.049 A 
ATOM     35  C   UNL     1      -2.033   1.242  -3.429  0.00  0.00    +0.004 A 
ATOM     36  C   UNL     1      -0.924   0.948  -2.659  0.00  0.00    +0.005 A 
ATOM     37  C   UNL     1      -1.070   0.251  -1.474  0.00  0.00    -0.024 A 
ATOM     38  C   UNL     1       0.138  -0.061  -0.629  0.00  0.00    +0.046 C 
ATOM     39  C   UNL     1      -4.498   1.153  -3.858  0.00  0.00    +0.044 C 
ENDBRANCH  29  32
ENDBRANCH  27  29
ENDBRANCH   5  27
TORSDOF 9
