REMARK  Name = ZINC31735620
REMARK  4 active torsions:
REMARK  status: ('A' for Active; 'I' for Inactive)
REMARK    1  A    between atoms: C_1  and  C_2
REMARK    2  A    between atoms: C_2  and  C_4
REMARK    3  A    between atoms: C_2  and  N_15
REMARK    4  A    between atoms: C_16  and  C_18
REMARK                            x       y       z     vdW  Elec       q    Type
REMARK                         _______ _______ _______ _____ _____    ______ ____
ROOT
ATOM      1  N   UNL     1      -1.082   6.110   0.931  0.00  0.00    -0.308 N 
ATOM      2  C   UNL     1      -0.984   7.330   1.496  0.00  0.00    +0.221 C 
ATOM      3  O   UNL     1      -0.024   8.032   1.258  0.00  0.00    -0.275 OA
ATOM      4  H   UNL     1      -1.953   5.473   1.147  0.00  0.00    +0.149 HD
ENDROOT
BRANCH   2   5
ATOM      5  C   UNL     1      -2.066   7.821   2.422  0.00  0.00    +0.115 C 
ATOM      6  C   UNL     1      -3.397   7.867   1.671  0.00  0.00    +0.113 C 
ATOM      7  C   UNL     1      -3.384   8.994   0.674  0.00  0.00    +0.218 C 
ATOM      8  O   UNL     1      -3.954   8.861  -0.389  0.00  0.00    -0.275 OA
ATOM      9  N   UNL     1      -2.748  10.148   0.947  0.00  0.00    -0.285 N 
ATOM     10  C   UNL     1      -2.071  10.313   2.159  0.00  0.00    +0.040 A 
ATOM     11  C   UNL     1      -1.717   9.202   2.913  0.00  0.00    -0.014 A 
ATOM     12  C   UNL     1      -1.048   9.364   4.110  0.00  0.00    +0.009 A 
ATOM     13  C   UNL     1      -0.728  10.632   4.559  0.00  0.00    +0.039 A 
ATOM     14  C   UNL     1      -1.078  11.743   3.810  0.00  0.00    +0.125 A 
ATOM     15  C   UNL     1      -1.750  11.586   2.610  0.00  0.00    +0.062 A 
ATOM     16  F   UNL     1      -0.763  12.981   4.250  0.00  0.00    -0.205 F 
ATOM     17  H   UNL     1      -2.759  10.968   0.215  0.00  0.00    +0.155 HD
ENDBRANCH   2   5
BRANCH   1  19
ATOM     18  C   UNL     1      -0.298   6.147  -1.385  0.00  0.00    +0.033 C 
ATOM     19  C   UNL     1      -0.030   5.632   0.031  0.00  0.00    +0.100 C 
BRANCH  19  20
ATOM     20  C   UNL     1      -0.021   4.125   0.024  0.00  0.00    -0.026 A 
ATOM     21  C   UNL     1      -1.216   3.428   0.033  0.00  0.00    +0.009 A 
ATOM     22  C   UNL     1      -1.216   2.045   0.019  0.00  0.00    +0.048 A 
ATOM     23  C   UNL     1      -0.016   1.356   0.009  0.00  0.00    +0.142 A 
ATOM     24  C   UNL     1       1.188   2.058   0.002  0.00  0.00    +0.076 A 
ATOM     25  C   UNL     1       1.182   3.443   0.008  0.00  0.00    +0.032 A 
ATOM     26  N   UNL     1       2.396   1.347  -0.012  0.00  0.00    -0.280 N 
ATOM     27  C   UNL     1       2.380   0.034  -0.332  0.00  0.00    +0.255 C 
ATOM     28  O   UNL     1       3.409  -0.608  -0.320  0.00  0.00    -0.272 OA
ATOM     29  C   UNL     1       1.078  -0.629  -0.703  0.00  0.00    +0.325 C 
ATOM     30  O   UNL     1       0.002  -0.004   0.002  0.00  0.00    -0.481 OA
ATOM     31  H   UNL     1       3.338   1.858   0.236  0.00  0.00    +0.155 HD
ENDBRANCH  19  20
ENDBRANCH   1  19
TORSDOF 3
