REMARK  Name = ZINC38108554
REMARK  4 active torsions:
REMARK  status: ('A' for Active; 'I' for Inactive)
REMARK    1  A    between atoms: C_1  and  C_2
REMARK    2  A    between atoms: C_3  and  S_8
REMARK    3  A    between atoms: S_8  and  N_11
REMARK    4  A    between atoms: N_11  and  C_12
REMARK                            x       y       z     vdW  Elec       q    Type
REMARK                         _______ _______ _______ _____ _____    ______ ____
ROOT
ATOM      1  N   UNL     1       0.791  -1.253  -3.739  0.00  0.00    -0.095 NA
ENDROOT
BRANCH   1   2
ATOM      2  C   UNL     1       0.935  -1.058  -5.112  0.00  0.00    +0.102 A 
ATOM      3  C   UNL     1       0.425   0.056  -5.713  0.00  0.00    +0.029 A 
ATOM      4  C   UNL     1       0.557   0.274  -7.085  0.00  0.00    +0.003 A 
ATOM      5  C   UNL     1       1.194  -0.599  -7.902  0.00  0.00    +0.012 A 
ATOM      6  C   UNL     1       1.757  -1.783  -7.376  0.00  0.00    +0.021 A 
ATOM      7  C   UNL     1       1.641  -2.040  -5.932  0.00  0.00    +0.117 A 
ATOM      8  N   UNL     1       2.244  -3.189  -5.697  0.00  0.00    -0.172 NA
ATOM      9  H   UNL     1       3.236  -4.524  -6.997  0.00  0.00    +0.188 HD
ATOM     10  N   UNL     1       2.749  -3.691  -6.902  0.00  0.00    -0.284 N 
ATOM     11  C   UNL     1       2.451  -2.853  -7.907  0.00  0.00    +0.113 A 
ENDBRANCH   1   2
BRANCH   1  12
ATOM     12  S   UNL     1      -0.011  -0.130  -2.823  0.00  0.00    +0.100 S 
ATOM     13  O   UNL     1      -1.367  -0.154  -3.248  0.00  0.00    -0.148 OA
ATOM     14  O   UNL     1       0.775   1.053  -2.851  0.00  0.00    -0.148 OA
BRANCH  12  17
ATOM     15  C   UNL     1      -0.018   1.503   0.010  0.00  0.00    +0.068 C 
ATOM     16  C   UNL     1       0.002  -0.004   0.002  0.00  0.00    +0.074 A 
ATOM     17  C   UNL     1       0.006  -0.707  -1.159  0.00  0.00    +0.171 A 
ATOM     18  S   UNL     1       0.032  -2.379  -0.532  0.00  0.00    -0.035 S 
ATOM     19  C   UNL     1       0.036  -2.010   1.110  0.00  0.00    +0.169 A 
ATOM     20  N   UNL     1       0.023  -0.700   1.123  0.00  0.00    -0.231 NA
ATOM     21 CL   UNL     1       0.058  -3.101   2.461  0.00  0.00    -0.054 Cl
ENDBRANCH  12  17
ENDBRANCH   1  12
TORSDOF 3
