REMARK  Name = ZINC58323557
REMARK  7 active torsions:
REMARK  status: ('A' for Active; 'I' for Inactive)
REMARK    1  A    between atoms: C_1  and  C_2
REMARK    2  A    between atoms: C_7  and  C_11
REMARK    3  A    between atoms: N_13  and  N_14
REMARK    4  A    between atoms: C_15  and  C_17
REMARK    5  A    between atoms: C_17  and  C_19
REMARK    6  A    between atoms: C_17  and  O_20
REMARK    7  A    between atoms: O_20  and  C_21
REMARK                            x       y       z     vdW  Elec       q    Type
REMARK                         _______ _______ _______ _____ _____    ______ ____
ROOT
ATOM      1  C   UNL     1       0.544  -5.108   2.486  0.00  0.00    +0.280 C 
ATOM      2  O   UNL     1       0.748  -6.102   1.817  0.00  0.00    -0.267 OA
ATOM      3  N   UNL     1       0.379  -5.216   3.820  0.00  0.00    -0.229 N 
ATOM      4  H   UNL     1       0.216  -4.423   4.354  0.00  0.00    +0.173 HD
ENDROOT
BRANCH   1  11
ATOM      5  C   UNL     1      -0.046   2.024   0.673  0.00  0.00    +0.044 C 
ATOM      6  C   UNL     1       0.142   0.532   0.569  0.00  0.00    -0.046 A 
ATOM      7  C   UNL     1       0.378  -0.063  -0.683  0.00  0.00    +0.021 A 
ATOM      8  C   UNL     1       0.546  -1.398  -0.781  0.00  0.00    +0.093 A 
ATOM      9  N   UNL     1       0.491  -2.191   0.330  0.00  0.00    -0.306 N 
ATOM     10  C   UNL     1       0.624  -3.535   0.505  0.00  0.00    +0.125 A 
ATOM     11  C   UNL     1       0.476  -3.783   1.839  0.00  0.00    +0.146 A 
ATOM     12  N   UNL     1       0.256  -2.611   2.462  0.00  0.00    -0.223 NA
ATOM     13  C   UNL     1       0.262  -1.639   1.566  0.00  0.00    +0.139 A 
ATOM     14  C   UNL     1       0.089  -0.242   1.684  0.00  0.00    +0.050 A 
ENDBRANCH   1  11
BRANCH   3  15
ATOM     15  N   UNL     1       0.443  -6.474   4.434  0.00  0.00    -0.231 N 
ATOM     16  C   UNL     1       0.279  -6.582   5.767  0.00  0.00    +0.270 C 
ATOM     17  O   UNL     1       0.075  -5.590   6.435  0.00  0.00    -0.270 OA
ATOM     18  H   UNL     1       0.607  -7.267   3.900  0.00  0.00    +0.173 HD
BRANCH  16  19
ATOM     19  C   UNL     1       0.348  -7.934   6.428  0.00  0.00    +0.257 C 
ATOM     20  C   UNL     1      -0.814  -8.801   5.938  0.00  0.00    +0.062 C 
BRANCH  19  21
ATOM     21  O   UNL     1       0.260  -7.777   7.846  0.00  0.00    -0.480 OA
BRANCH  21  22
ATOM     22  C   UNL     1       0.806  -8.760   8.610  0.00  0.00    +0.122 A 
ATOM     23  C   UNL     1       1.316  -9.903   8.012  0.00  0.00    +0.048 A 
ATOM     24  C   UNL     1       1.870 -10.901   8.790  0.00  0.00    +0.042 A 
ATOM     25  C   UNL     1       1.915 -10.761  10.167  0.00  0.00    +0.124 A 
ATOM     26  C   UNL     1       1.406  -9.621  10.766  0.00  0.00    +0.042 A 
ATOM     27  C   UNL     1       0.858  -8.618   9.989  0.00  0.00    +0.048 A 
ATOM     28  F   UNL     1       2.457 -11.738  10.927  0.00  0.00    -0.205 F 
ENDBRANCH  21  22
ENDBRANCH  19  21
ENDBRANCH  16  19
ENDBRANCH   3  15
TORSDOF 5
