REMARK  Name = ZINC64920970
REMARK  8 active torsions:
REMARK  status: ('A' for Active; 'I' for Inactive)
REMARK    1  A    between atoms: C_1  and  C_2
REMARK    2  A    between atoms: C_2  and  N_3
REMARK    3  A    between atoms: N_3  and  C_4
REMARK    4  A    between atoms: C_10  and  C_12
REMARK    5  A    between atoms: N_17  and  S_18
REMARK    6  A    between atoms: S_18  and  C_21
REMARK    7  A    between atoms: C_26  and  C_27
REMARK    8  A    between atoms: C_31  and  C_34
REMARK                            x       y       z     vdW  Elec       q    Type
REMARK                         _______ _______ _______ _____ _____    ______ ____
ROOT
ATOM      1  S   UNL     1       5.656  -0.196   1.157  0.00  0.00    +0.062 S 
ATOM      2  O   UNL     1       4.980   0.207   2.341  0.00  0.00    -0.153 OA
ATOM      3  O   UNL     1       6.722  -1.135   1.171  0.00  0.00    -0.153 OA
ENDROOT
BRANCH   1   4
ATOM      4  C   UNL     1       6.286   1.272   0.413  0.00  0.00    +0.112 A 
ATOM      5  C   UNL     1       6.098   2.494   1.033  0.00  0.00    +0.076 A 
ATOM      6  C   UNL     1       6.594   3.646   0.449  0.00  0.00    +0.145 A 
ATOM      7  C   UNL     1       7.281   3.571  -0.762  0.00  0.00    +0.076 A 
ATOM      8  C   UNL     1       7.467   2.344  -1.377  0.00  0.00    +0.032 A 
ATOM      9  C   UNL     1       6.972   1.196  -0.784  0.00  0.00    -0.022 A 
ATOM     10  C   UNL     1       7.178  -0.141  -1.449  0.00  0.00    +0.046 C 
ATOM     11  N   UNL     1       7.776   4.747  -1.343  0.00  0.00    -0.280 N 
ATOM     12  C   UNL     1       7.861   5.864  -0.590  0.00  0.00    +0.258 C 
ATOM     13  O   UNL     1       8.257   6.901  -1.080  0.00  0.00    -0.271 OA
ATOM     14  C   UNL     1       7.460   5.819   0.863  0.00  0.00    +0.256 C 
ATOM     15  O   UNL     1       6.418   4.856   1.044  0.00  0.00    -0.478 OA
ATOM     16  C   UNL     1       8.670   5.425   1.713  0.00  0.00    +0.062 C 
ATOM     17  H   UNL     1       8.054   4.757  -2.273  0.00  0.00    +0.155 HD
ENDBRANCH   1   4
BRANCH   1  22
ATOM     18  C   UNL     1       3.100  -0.367   0.071  0.00  0.00    +0.166 C 
ATOM     19  C   UNL     1       2.412  -1.189  -1.039  0.00  0.00    +0.031 C 
ATOM     20  C   UNL     1       3.603  -1.649  -1.920  0.00  0.00    +0.019 C 
ATOM     21  C   UNL     1       4.706  -1.878  -0.857  0.00  0.00    +0.110 C 
ATOM     22  N   UNL     1       4.502  -0.805   0.138  0.00  0.00    -0.165 NA
BRANCH  18  24
ATOM     23  N   UNL     1       1.354   0.121   1.754  0.00  0.00    -0.270 N 
ATOM     24  C   UNL     1       2.421  -0.619   1.392  0.00  0.00    +0.239 C 
ATOM     25  O   UNL     1       2.834  -1.488   2.130  0.00  0.00    -0.273 OA
BRANCH  23  26
ATOM     26  C   UNL     1       0.802  -0.025   3.031  0.00  0.00    +0.036 A 
ATOM     27  C   UNL     1       1.446  -0.804   3.983  0.00  0.00    +0.023 A 
ATOM     28  C   UNL     1       0.899  -0.946   5.243  0.00  0.00    +0.002 A 
ATOM     29  C   UNL     1      -0.290  -0.313   5.557  0.00  0.00    +0.000 A 
ATOM     30  C   UNL     1      -0.935   0.463   4.611  0.00  0.00    +0.002 A 
ATOM     31  C   UNL     1      -0.390   0.613   3.351  0.00  0.00    +0.023 A 
ENDBRANCH  23  26
BRANCH  23  33
ATOM     32  C   UNL     1       1.360   2.468   1.066  0.00  0.00    +0.025 C 
ATOM     33  C   UNL     1       0.773   1.079   0.810  0.00  0.00    +0.110 C 
ENDBRANCH  23  33
ENDBRANCH  18  24
ENDBRANCH   1  22
TORSDOF 5
