REMARK  Name = ZINC13691580
REMARK  5 active torsions:
REMARK  status: ('A' for Active; 'I' for Inactive)
REMARK    1  A    between atoms: C_9  and  C_11
REMARK    2  A    between atoms: C_12  and  N_27
REMARK    3  A    between atoms: N_13  and  N_17
REMARK    4  A    between atoms: C_18  and  C_19
REMARK    5  A    between atoms: C_24  and  O_25
REMARK                            x       y       z     vdW  Elec       q    Type
REMARK                         _______ _______ _______ _____ _____    ______ ____
ROOT
ATOM      1  C   UNL     1       3.728  -3.325  -0.044  0.00  0.00    +0.098 C 
ATOM      2  C   UNL     1       5.120  -3.373  -0.061  0.00  0.00    +0.118 C 
ATOM      3  N   UNL     1       5.575  -4.654  -0.075  0.00  0.00    -0.203 N 
ATOM      4  C   UNL     1       4.411  -5.551  -0.066  0.00  0.00    +0.213 C 
ATOM      5  C   UNL     1       3.208  -4.632  -0.040  0.00  0.00    +0.189 C 
ATOM      6  O   UNL     1       2.037  -4.957  -0.022  0.00  0.00    -0.290 OA
ENDROOT
BRANCH   1  15
ATOM      7  C   UNL     1      -0.059   1.333   0.038  0.00  0.00    +0.002 A 
ATOM      8  C   UNL     1       1.121   2.062   0.023  0.00  0.00    +0.002 A 
ATOM      9  C   UNL     1       2.339   1.421  -0.000  0.00  0.00    +0.030 A 
ATOM     10  C   UNL     1       2.388   0.023  -0.007  0.00  0.00    +0.089 A 
ATOM     11  C   UNL     1       1.189  -0.710   0.009  0.00  0.00    +0.066 A 
ATOM     12  C   UNL     1      -0.028  -0.046   0.032  0.00  0.00    +0.028 A 
ATOM     13  N   UNL     1       1.553  -2.046  -0.003  0.00  0.00    -0.338 N 
ATOM     14  H   UNL     1       0.950  -2.807   0.004  0.00  0.00    +0.167 HD
ATOM     15  C   UNL     1       2.922  -2.093  -0.026  0.00  0.00    +0.146 A 
ATOM     16  N   UNL     1       3.407  -0.872  -0.028  0.00  0.00    -0.228 NA
ENDBRANCH   1  15
BRANCH   2  17
ATOM     17  N   UNL     1       5.926  -2.272  -0.066  0.00  0.00    -0.345 N 
ATOM     18  H   UNL     1       5.537  -1.386  -0.134  0.00  0.00    +0.144 HD
ATOM     19  H   UNL     1       6.888  -2.375  -0.001  0.00  0.00    +0.144 HD
ENDBRANCH   2  17
BRANCH   3  20
ATOM     20  N   UNL     1       6.919  -5.049  -0.094  0.00  0.00    -0.186 NA
ATOM     21  C   UNL     1       7.224  -6.306  -0.207  0.00  0.00    +0.142 C 
BRANCH  21  22
ATOM     22  C   UNL     1       8.631  -6.734  -0.114  0.00  0.00    +0.037 A 
ATOM     23  C   UNL     1       8.965  -8.085  -0.241  0.00  0.00    +0.028 A 
ATOM     24  C   UNL     1      10.284  -8.478  -0.154  0.00  0.00    +0.019 A 
ATOM     25  C   UNL     1      11.280  -7.539   0.060  0.00  0.00    +0.019 A 
ATOM     26  C   UNL     1      10.962  -6.200   0.187  0.00  0.00    +0.047 A 
ATOM     27  C   UNL     1       9.643  -5.787   0.096  0.00  0.00    +0.126 A 
ATOM     28 BR   UNL     1      10.735 -10.306  -0.325  0.00  0.00    -0.050 Br
BRANCH  27  29
ATOM     29  O   UNL     1       9.331  -4.471   0.216  0.00  0.00    -0.506 OA
ATOM     30  H   UNL     1       9.153  -4.190   1.124  0.00  0.00    +0.292 HD
ENDBRANCH  27  29
ENDBRANCH  21  22
ENDBRANCH   3  20
TORSDOF 5
