REMARK  Name = ZINC43671660
REMARK  4 active torsions:
REMARK  status: ('A' for Active; 'I' for Inactive)
REMARK    1  A    between atoms: C_1  and  C_2
REMARK    2  A    between atoms: C_5  and  C_8
REMARK    3  A    between atoms: C_10  and  N_20
REMARK    4  A    between atoms: C_15  and  C_19
REMARK                            x       y       z     vdW  Elec       q    Type
REMARK                         _______ _______ _______ _____ _____    ______ ____
ROOT
ATOM      1  C   UNL     1       0.058  -4.256  -0.021  0.00  0.00    +0.095 A 
ATOM      2  C   UNL     1       0.069  -5.088   1.115  0.00  0.00    +0.073 A 
ATOM      3  C   UNL     1       0.085  -6.377   0.686  0.00  0.00    +0.122 A 
ATOM      4  N   UNL     1       0.085  -6.359  -0.677  0.00  0.00    -0.200 N 
ATOM      5  N   UNL     1       0.062  -5.022  -1.092  0.00  0.00    -0.163 NA
ATOM      6  C   UNL     1       0.099  -7.478  -1.513  0.00  0.00    +0.156 A 
ATOM      7  C   UNL     1      -0.408  -7.380  -2.803  0.00  0.00    +0.051 A 
ATOM      8  C   UNL     1      -0.387  -8.496  -3.621  0.00  0.00    -0.046 A 
ATOM      9  C   UNL     1       0.142  -9.677  -3.118  0.00  0.00    +0.023 A 
ATOM     10  C   UNL     1       0.629  -9.702  -1.825  0.00  0.00    +0.113 A 
ATOM     11  N   UNL     1       0.600  -8.620  -1.071  0.00  0.00    -0.236 NA
ATOM     12  C   UNL     1      -0.927  -8.432  -5.027  0.00  0.00    +0.044 C 
ENDROOT
BRANCH   1  17
ATOM     13  C   UNL     1      -0.018   1.503   0.010  0.00  0.00    +0.044 C 
ATOM     14  C   UNL     1       0.002  -0.004   0.002  0.00  0.00    -0.050 A 
ATOM     15  C   UNL     1       0.006  -0.686  -1.201  0.00  0.00    +0.004 A 
ATOM     16  C   UNL     1       0.024  -2.067  -1.215  0.00  0.00    +0.010 A 
ATOM     17  C   UNL     1       0.039  -2.772  -0.013  0.00  0.00    +0.002 A 
ATOM     18  C   UNL     1       0.036  -2.080   1.196  0.00  0.00    +0.010 A 
ATOM     19  C   UNL     1       0.023  -0.700   1.198  0.00  0.00    +0.004 A 
ENDBRANCH   1  17
BRANCH   3  20
ATOM     20  N   UNL     1       0.100  -7.511   1.492  0.00  0.00    -0.343 N 
ATOM     21  H   UNL     1       0.099  -7.419   2.458  0.00  0.00    +0.144 HD
ATOM     22  H   UNL     1       0.112  -8.393   1.089  0.00  0.00    +0.144 HD
ENDBRANCH   3  20
TORSDOF 2
