REMARK  Name = ZINC33916508
REMARK  6 active torsions:
REMARK  status: ('A' for Active; 'I' for Inactive)
REMARK    1  A    between atoms: C_4  and  O_31
REMARK    2  A    between atoms: C_5  and  C_7
REMARK    3  A    between atoms: N_15  and  C_18
REMARK    4  A    between atoms: C_24  and  C_26
REMARK    5  A    between atoms: C_24  and  C_28
REMARK    6  A    between atoms: C_26  and  O_27
REMARK                            x       y       z     vdW  Elec       q    Type
REMARK                         _______ _______ _______ _____ _____    ______ ____
ROOT
ATOM      1  C   UNL     1       1.227  -2.187  -0.022  0.00  0.00    -0.023 C 
ATOM      2  C   UNL     1       1.438  -2.731   1.387  0.00  0.00    +0.077 C 
ATOM      3  C   UNL     1       0.930  -4.197   1.109  0.00  0.00    +0.088 C 
ATOM      4  C   UNL     1       1.463  -4.918   2.240  0.00  0.00    +0.225 C 
ATOM      5  O   UNL     1       0.966  -5.863   2.813  0.00  0.00    -0.275 OA
ATOM      6  N   UNL     1       2.657  -4.301   2.523  0.00  0.00    -0.239 N 
ATOM      7  C   UNL     1       2.804  -3.089   1.881  0.00  0.00    +0.225 C 
ATOM      8  O   UNL     1       3.822  -2.446   1.737  0.00  0.00    -0.275 OA
ATOM      9  C   UNL     1      -0.341  -3.990   0.403  0.00  0.00    +0.071 C 
ATOM     10  N   UNL     1      -0.117  -2.732  -0.403  0.00  0.00    +0.397 N 
ATOM     11  H   UNL     1      -0.835  -2.060  -0.179  0.00  0.00    -0.083 HD
ATOM     12  H   UNL     1      -0.135  -2.938  -1.391  0.00  0.00    -0.083 HD
ENDROOT
BRANCH   1  17
ATOM     13  C   UNL     1       0.018   1.377   0.284  0.00  0.00    +0.000 A 
ATOM     14  C   UNL     1       1.170   2.088   0.002  0.00  0.00    +0.004 A 
ATOM     15  C   UNL     1       2.343   1.419  -0.287  0.00  0.00    +0.045 A 
ATOM     16  C   UNL     1       2.364   0.031  -0.296  0.00  0.00    +0.118 A 
ATOM     17  C   UNL     1       1.207  -0.680  -0.013  0.00  0.00    -0.019 A 
ATOM     18  C   UNL     1       0.036  -0.005   0.276  0.00  0.00    +0.005 A 
BRANCH  16  19
ATOM     19  O   UNL     1       3.517  -0.630  -0.581  0.00  0.00    -0.507 OA
ATOM     20  H   UNL     1       4.061  -0.823   0.194  0.00  0.00    +0.292 HD
ENDBRANCH  16  19
ENDBRANCH   1  17
BRANCH   6  21
ATOM     21  C   UNL     1       3.666  -4.862   3.424  0.00  0.00    +0.084 C 
ATOM     22  C   UNL     1       3.907  -3.896   4.585  0.00  0.00    +0.023 C 
ATOM     23  C   UNL     1       4.961  -4.483   5.527  0.00  0.00    +0.002 C 
ATOM     24  C   UNL     1       6.268  -4.694   4.760  0.00  0.00    +0.000 C 
ATOM     25  C   UNL     1       6.027  -5.660   3.598  0.00  0.00    +0.002 C 
ATOM     26  C   UNL     1       4.973  -5.074   2.657  0.00  0.00    +0.023 C 
ENDBRANCH   6  21
BRANCH   9  27
ATOM     27  C   UNL     1      -1.468  -3.819   1.389  0.00  0.00    +0.348 C 
ATOM     28  O   UNL     1      -2.122  -2.790   1.395  0.00  0.00    -0.248 OA
ATOM     29  O   UNL     1      -1.726  -4.710   2.180  0.00  0.00    -0.248 OA
ENDBRANCH   9  27
BRANCH   9  30
ATOM     30  C   UNL     1      -0.626  -5.163  -0.537  0.00  0.00    +0.155 C 
BRANCH  30  31
ATOM     31  O   UNL     1      -1.804  -4.889  -1.298  0.00  0.00    -0.396 OA
ATOM     32  H   UNL     1      -2.045  -5.592  -1.916  0.00  0.00    +0.209 HD
ENDBRANCH  30  31
ENDBRANCH   9  30
TORSDOF 6
