REMARK  Name = ZINC39579080
REMARK  8 active torsions:
REMARK  status: ('A' for Active; 'I' for Inactive)
REMARK    1  A    between atoms: C_1  and  C_2
REMARK    2  A    between atoms: C_2  and  O_3
REMARK    3  A    between atoms: O_3  and  C_4
REMARK    4  A    between atoms: C_9  and  C_10
REMARK    5  A    between atoms: N_11  and  N_12
REMARK    6  A    between atoms: C_13  and  C_15
REMARK    7  A    between atoms: C_18  and  C_21
REMARK    8  A    between atoms: C_24  and  C_27
REMARK                            x       y       z     vdW  Elec       q    Type
REMARK                         _______ _______ _______ _____ _____    ______ ____
ROOT
ATOM      1  C   UNL     1       3.001   2.921   5.166  0.00  0.00    +0.240 C 
ATOM      2  C   UNL     1       4.486   3.116   4.918  0.00  0.00    +0.041 C 
ATOM      3  C   UNL     1       4.605   4.439   4.696  0.00  0.00    +0.092 C 
ATOM      4  N   UNL     1       3.392   5.045   4.780  0.00  0.00    -0.153 NA
ATOM      5  N   UNL     1       2.454   4.282   5.038  0.00  0.00    -0.170 NA
ENDROOT
BRANCH   3   6
ATOM      6  C   UNL     1       5.881   5.136   4.401  0.00  0.00    +0.002 A 
ATOM      7  C   UNL     1       7.071   4.413   4.334  0.00  0.00    +0.010 A 
ATOM      8  C   UNL     1       8.256   5.061   4.060  0.00  0.00    +0.009 A 
ATOM      9  C   UNL     1       8.265   6.439   3.852  0.00  0.00    -0.018 A 
ATOM     10  C   UNL     1       7.074   7.163   3.920  0.00  0.00    +0.009 A 
ATOM     11  C   UNL     1       5.889   6.514   4.187  0.00  0.00    +0.010 A 
BRANCH   9  12
ATOM     12  C   UNL     1       9.540   7.136   3.557  0.00  0.00    -0.018 A 
ATOM     13  C   UNL     1      10.731   6.415   3.483  0.00  0.00    +0.008 A 
ATOM     14  C   UNL     1      11.915   7.069   3.209  0.00  0.00    +0.001 A 
ATOM     15  C   UNL     1      11.921   8.438   3.008  0.00  0.00    +0.000 A 
ATOM     16  C   UNL     1      10.743   9.159   3.080  0.00  0.00    +0.001 A 
ATOM     17  C   UNL     1       9.552   8.514   3.348  0.00  0.00    +0.008 A 
ENDBRANCH   9  12
ENDBRANCH   3   6
BRANCH   1  19
ATOM     18  N   UNL     1       2.507   0.671   4.265  0.00  0.00    -0.205 N 
ATOM     19  C   UNL     1       2.403   2.007   4.127  0.00  0.00    +0.263 C 
ATOM     20  O   UNL     1       1.828   2.475   3.167  0.00  0.00    -0.271 OA
ATOM     21  H   UNL     1       2.966   0.297   5.033  0.00  0.00    +0.177 HD
BRANCH  18  23
ATOM     22  C   UNL     1       2.051  -1.466   3.433  0.00  0.00    +0.142 C 
ATOM     23  N   UNL     1       1.951  -0.178   3.300  0.00  0.00    -0.188 NA
BRANCH  22  29
ATOM     24  C   UNL     1       0.802  -1.823   1.306  0.00  0.00    +0.129 A 
ATOM     25  C   UNL     1       0.261  -2.672   0.354  0.00  0.00    +0.046 A 
ATOM     26  C   UNL     1       0.372  -4.042   0.503  0.00  0.00    +0.004 A 
ATOM     27  C   UNL     1       1.023  -4.575   1.602  0.00  0.00    +0.001 A 
ATOM     28  C   UNL     1       1.567  -3.745   2.559  0.00  0.00    +0.013 A 
ATOM     29  C   UNL     1       1.467  -2.359   2.417  0.00  0.00    +0.036 A 
BRANCH  24  30
ATOM     30  O   UNL     1       0.693  -0.477   1.160  0.00  0.00    -0.492 OA
BRANCH  30  32
ATOM     31  C   UNL     1      -0.019   1.526   0.010  0.00  0.00    +0.048 C 
ATOM     32  C   UNL     1       0.002  -0.004   0.002  0.00  0.00    +0.226 C 
ENDBRANCH  30  32
ENDBRANCH  24  30
ENDBRANCH  22  29
ENDBRANCH  18  23
ENDBRANCH   1  19
TORSDOF 7
