REMARK  Name = ZINC16050530
REMARK  14 active torsions:
REMARK  status: ('A' for Active; 'I' for Inactive)
REMARK    1  A    between atoms: C_1  and  C_2
REMARK    2  A    between atoms: C_2  and  O_3
REMARK    3  A    between atoms: O_3  and  C_4
REMARK    4  A    between atoms: C_7  and  C_10
REMARK    5  A    between atoms: N_12  and  C_13
REMARK    6  A    between atoms: C_13  and  C_15
REMARK    7  A    between atoms: C_13  and  C_18
REMARK    8  A    between atoms: C_15  and  C_16
REMARK    9  A    between atoms: C_15  and  C_17
REMARK   10  A    between atoms: C_18  and  O_20
REMARK   11  A    between atoms: O_20  and  C_21
REMARK   12  A    between atoms: C_21  and  C_22
REMARK   13  A    between atoms: N_24  and  C_25
REMARK   14  A    between atoms: C_26  and  C_30
REMARK                            x       y       z     vdW  Elec       q    Type
REMARK                         _______ _______ _______ _____ _____    ______ ____
ROOT
ATOM      1  C   UNL     1      -1.024  -2.120   0.601  0.00  0.00    +0.328 C 
ATOM      2  O   UNL     1       0.081  -2.436   0.977  0.00  0.00    -0.249 OA
ENDROOT
BRANCH   1   3
ATOM      3  C   UNL     1      -1.256  -0.754   0.010  0.00  0.00    +0.185 C 
BRANCH   3   6
ATOM      4  C   UNL     1      -0.016   1.344   0.009  0.00  0.00    +0.245 C 
ATOM      5  O   UNL     1      -1.077   1.937   0.018  0.00  0.00    -0.270 OA
ATOM      6  N   UNL     1       0.002  -0.004   0.002  0.00  0.00    -0.298 N 
ATOM      7  H   UNL     1       0.849  -0.478  -0.009  0.00  0.00    +0.150 HD
BRANCH   4  11
ATOM      8  C   UNL     1       3.632   3.517  -0.012  0.00  0.00    +0.121 A 
ATOM      9  C   UNL     1       2.420   4.197   0.002  0.00  0.00    +0.046 A 
ATOM     10  C   UNL     1       1.235   3.496   0.009  0.00  0.00    +0.016 A 
ATOM     11  C   UNL     1       1.252   2.099   0.001  0.00  0.00    +0.037 A 
ATOM     12  C   UNL     1       2.472   1.419  -0.008  0.00  0.00    +0.016 A 
ATOM     13  C   UNL     1       3.653   2.127  -0.020  0.00  0.00    +0.046 A 
BRANCH   8  14
ATOM     14  O   UNL     1       4.798   4.211  -0.019  0.00  0.00    -0.492 OA
BRANCH  14  16
ATOM     15  C   UNL     1       7.208   4.398  -0.040  0.00  0.00    +0.048 C 
ATOM     16  C   UNL     1       6.007   3.449  -0.034  0.00  0.00    +0.225 C 
ENDBRANCH  14  16
ENDBRANCH   8  14
ENDBRANCH   4  11
ENDBRANCH   3   6
BRANCH   3  17
ATOM     17  C   UNL     1      -1.773  -0.899  -1.423  0.00  0.00    +0.014 C 
ATOM     18  C   UNL     1      -3.087  -1.682  -1.415  0.00  0.00    +0.009 C 
ATOM     19  C   UNL     1      -2.009   0.488  -2.023  0.00  0.00    +0.009 C 
ENDBRANCH   3  17
ENDBRANCH   1   3
BRANCH   1  20
ATOM     20  O   UNL     1      -2.042  -2.987   0.710  0.00  0.00    -0.454 OA
BRANCH  20  21
ATOM     21  C   UNL     1      -1.745  -4.285   1.288  0.00  0.00    +0.328 C 
BRANCH  21  22
ATOM     22  C   UNL     1      -3.001  -5.117   1.329  0.00  0.00    +0.255 C 
ATOM     23  O   UNL     1      -4.044  -4.661   0.912  0.00  0.00    -0.272 OA
ATOM     24  N   UNL     1      -2.965  -6.368   1.830  0.00  0.00    -0.277 N 
ATOM     25  H   UNL     1      -2.131  -6.733   2.164  0.00  0.00    +0.155 HD
BRANCH  24  26
ATOM     26  C   UNL     1      -4.121  -7.133   1.867  0.00  0.00    +0.084 A 
ATOM     27  C   UNL     1      -4.281  -8.432   2.336  0.00  0.00    +0.065 A 
ATOM     28  C   UNL     1      -5.610  -8.990   2.258  0.00  0.00    +0.022 A 
ATOM     29  C   UNL     1      -6.573  -8.212   1.732  0.00  0.00    +0.048 A 
ATOM     30  S   UNL     1      -5.712  -6.705   1.335  0.00  0.00    -0.081 S 
BRANCH  27  31
ATOM     31  C   UNL     1      -3.157  -9.196   2.885  0.00  0.00    +0.244 C 
ATOM     32  O   UNL     1      -2.049  -8.695   2.939  0.00  0.00    -0.270 OA
ATOM     33  N   UNL     1      -3.350 -10.453   3.330  0.00  0.00    -0.325 N 
ATOM     34  H   UNL     1      -4.233 -10.853   3.287  0.00  0.00    +0.145 HD
ATOM     35  H   UNL     1      -2.606 -10.959   3.693  0.00  0.00    +0.145 HD
ENDBRANCH  27  31
ENDBRANCH  24  26
ENDBRANCH  21  22
ENDBRANCH  20  21
ENDBRANCH   1  20
TORSDOF 11
