REMARK  Name = ZINC62960563
REMARK  3 active torsions:
REMARK  status: ('A' for Active; 'I' for Inactive)
REMARK    1  A    between atoms: C_11  and  C_13
REMARK    2  A    between atoms: C_13  and  C_18
REMARK    3  A    between atoms: N_19  and  O_20
REMARK                            x       y       z     vdW  Elec       q    Type
REMARK                         _______ _______ _______ _____ _____    ______ ____
ROOT
ATOM      1  C   UNL     1      -0.082   1.536   0.022  0.00  0.00    +0.001 C 
ATOM      2  C   UNL     1       1.410   1.952   0.031  0.00  0.00    +0.001 C 
ATOM      3  C   UNL     1       2.059   0.885   0.948  0.00  0.00    +0.007 C 
ATOM      4  C   UNL     1       1.314  -0.416   0.595  0.00  0.00    -0.026 C 
ATOM      5  C   UNL     1      -0.044  -0.007   0.007  0.00  0.00    +0.007 C 
ATOM      6  C   UNL     1       2.115  -1.205  -0.439  0.00  0.00    +0.026 C 
ATOM      7  C   UNL     1       1.350  -2.479  -0.811  0.00  0.00    +0.108 C 
ATOM      8  N   UNL     1       1.039  -3.220   0.419  0.00  0.00    -0.301 N 
ATOM      9  C   UNL     1       0.333  -2.525   1.504  0.00  0.00    +0.108 C 
ATOM     10  C   UNL     1       1.107  -1.250   1.858  0.00  0.00    +0.026 C 
ATOM     11  C   UNL     1       1.395  -4.514   0.550  0.00  0.00    +0.229 C 
ATOM     12  O   UNL     1       1.885  -5.106  -0.388  0.00  0.00    -0.275 OA
ENDROOT
BRANCH  11  13
ATOM     13  C   UNL     1       1.183  -5.224   1.862  0.00  0.00    +0.105 C 
ATOM     14  C   UNL     1       1.831  -6.623   1.816  0.00  0.00    +0.024 C 
ATOM     15  C   UNL     1       3.224  -6.417   2.462  0.00  0.00    +0.001 C 
ATOM     16  C   UNL     1       2.927  -5.411   3.602  0.00  0.00    +0.001 C 
ATOM     17  C   UNL     1       1.879  -4.454   2.998  0.00  0.00    +0.024 C 
BRANCH  13  18
ATOM     18  C   UNL     1      -0.292  -5.347   2.150  0.00  0.00    +0.147 C 
ATOM     19  N   UNL     1      -0.691  -5.837   3.277  0.00  0.00    -0.076 NA
ATOM     20  N   UNL     1      -1.213  -4.937   1.212  0.00  0.00    -0.343 N 
ATOM     21  H   UNL     1      -0.915  -4.638   0.339  0.00  0.00    +0.144 HD
ATOM     22  H   UNL     1      -2.159  -4.947   1.425  0.00  0.00    +0.144 HD
BRANCH  19  23
ATOM     23  O   UNL     1       0.252  -6.358   4.196  0.00  0.00    -0.408 OA
ATOM     24  H   UNL     1      -0.142  -6.702   5.010  0.00  0.00    +0.328 HD
ENDBRANCH  19  23
ENDBRANCH  13  18
ENDBRANCH  11  13
TORSDOF 3
