REMARK  Name = ZINC06941076
REMARK  10 active torsions:
REMARK  status: ('A' for Active; 'I' for Inactive)
REMARK    1  A    between atoms: C_1  and  C_2
REMARK    2  A    between atoms: C_5  and  O_8
REMARK    3  A    between atoms: O_8  and  C_9
REMARK    4  A    between atoms: C_9  and  C_10
REMARK    5  A    between atoms: C_11  and  C_31
REMARK    6  A    between atoms: C_13  and  C_15
REMARK    7  A    between atoms: C_18  and  C_21
REMARK    8  A    between atoms: N_23  and  C_24
REMARK    9  A    between atoms: C_24  and  C_25
REMARK   10  A    between atoms: C_28  and  C_30
REMARK                            x       y       z     vdW  Elec       q    Type
REMARK                         _______ _______ _______ _____ _____    ______ ____
ROOT
ATOM      1  C   UNL     1      -2.478   1.195   4.373  0.00  0.00    +0.037 A 
ATOM      2  C   UNL     1      -2.982   2.152   5.258  0.00  0.00    +0.014 A 
ATOM      3  C   UNL     1      -3.631   1.754   6.405  0.00  0.00    +0.014 A 
ATOM      4  C   UNL     1      -3.776   0.394   6.690  0.00  0.00    +0.037 A 
ATOM      5  C   UNL     1      -3.268  -0.563   5.807  0.00  0.00    +0.014 A 
ATOM      6  C   UNL     1      -2.624  -0.165   4.658  0.00  0.00    +0.014 A 
ENDROOT
BRANCH   1  10
ATOM      7  C   UNL     1      -0.923   2.856   1.599  0.00  0.00    +0.120 A 
ATOM      8  C   UNL     1      -0.718   1.572   1.248  0.00  0.00    +0.129 A 
ATOM      9  O   UNL     1      -1.255   0.803   2.214  0.00  0.00    -0.440 OA
ATOM     10  C   UNL     1      -1.786   1.621   3.140  0.00  0.00    +0.228 A 
ATOM     11  N   UNL     1      -1.587   2.863   2.763  0.00  0.00    -0.210 NA
ATOM     12  C   UNL     1      -0.013   1.086   0.008  0.00  0.00    +0.088 C 
BRANCH   7  13
ATOM     13  C   UNL     1      -0.488   4.069   0.818  0.00  0.00    +0.288 C 
BRANCH  13  14
ATOM     14  O   UNL     1      -1.522   4.447  -0.092  0.00  0.00    -0.486 OA
BRANCH  14  19
ATOM     15  C   UNL     1      -0.550   8.940  -3.347  0.00  0.00    +0.044 C 
ATOM     16  C   UNL     1      -0.810   7.738  -2.476  0.00  0.00    -0.050 A 
ATOM     17  C   UNL     1      -2.008   7.056  -2.581  0.00  0.00    +0.007 A 
ATOM     18  C   UNL     1      -2.249   5.953  -1.784  0.00  0.00    +0.046 A 
ATOM     19  C   UNL     1      -1.288   5.531  -0.877  0.00  0.00    +0.121 A 
ATOM     20  C   UNL     1      -0.089   6.221  -0.770  0.00  0.00    +0.046 A 
ATOM     21  C   UNL     1       0.150   7.319  -1.573  0.00  0.00    +0.007 A 
ENDBRANCH  14  19
ENDBRANCH  13  14
ENDBRANCH   7  13
ENDBRANCH   1  10
BRANCH   4  22
ATOM     22  C   UNL     1      -4.467  -0.032   7.924  0.00  0.00    +0.244 C 
ATOM     23  O   UNL     1      -4.594  -1.216   8.172  0.00  0.00    -0.270 OA
ATOM     24  N   UNL     1      -4.957   0.891   8.775  0.00  0.00    -0.304 N 
ATOM     25  H   UNL     1      -4.856   1.835   8.577  0.00  0.00    +0.149 HD
BRANCH  24  26
ATOM     26  C   UNL     1      -5.643   0.468   9.999  0.00  0.00    +0.179 C 
BRANCH  26  27
ATOM     27  C   UNL     1      -6.090   1.683  10.769  0.00  0.00    +0.122 A 
ATOM     28  C   UNL     1      -7.275   2.307  10.636  0.00  0.00    +0.046 A 
ATOM     29  C   UNL     1      -7.272   3.390  11.545  0.00  0.00    +0.045 A 
ATOM     30  C   UNL     1      -6.087   3.363  12.180  0.00  0.00    +0.102 A 
ATOM     31  O   UNL     1      -5.377   2.324  11.710  0.00  0.00    -0.463 OA
ATOM     32  C   UNL     1      -5.633   4.331  13.242  0.00  0.00    +0.086 C 
ENDBRANCH  26  27
ENDBRANCH  24  26
ENDBRANCH   4  22
TORSDOF 7
