REMARK  Name = ZINC24631116
REMARK  10 active torsions:
REMARK  status: ('A' for Active; 'I' for Inactive)
REMARK    1  A    between atoms: C_1  and  C_2
REMARK    2  A    between atoms: C_6  and  N_9
REMARK    3  A    between atoms: C_7  and  C_8
REMARK    4  A    between atoms: N_9  and  S_10
REMARK    5  A    between atoms: S_10  and  C_13
REMARK    6  A    between atoms: C_16  and  C_19
REMARK    7  A    between atoms: N_21  and  C_22
REMARK    8  A    between atoms: C_22  and  C_23
REMARK    9  A    between atoms: C_23  and  C_25
REMARK   10  A    between atoms: C_23  and  N_30
REMARK                            x       y       z     vdW  Elec       q    Type
REMARK                         _______ _______ _______ _____ _____    ______ ____
ROOT
ATOM      1  C   UNL     1       2.405  -3.442  -6.096  0.00  0.00    +0.109 A 
ATOM      2  C   UNL     1       1.200  -2.765  -6.172  0.00  0.00    +0.029 A 
ATOM      3  C   UNL     1       0.674  -2.160  -5.049  0.00  0.00    +0.015 A 
ATOM      4  C   UNL     1       1.360  -2.231  -3.836  0.00  0.00    +0.037 A 
ATOM      5  C   UNL     1       2.577  -2.910  -3.767  0.00  0.00    +0.015 A 
ATOM      6  C   UNL     1       3.090  -3.516  -4.896  0.00  0.00    +0.029 A 
ENDROOT
BRANCH   4   7
ATOM      7  C   UNL     1       0.802  -1.583  -2.629  0.00  0.00    +0.244 C 
ATOM      8  O   UNL     1      -0.256  -0.988  -2.693  0.00  0.00    -0.270 OA
ATOM      9  N   UNL     1       1.467  -1.653  -1.459  0.00  0.00    -0.313 N 
ATOM     10  H   UNL     1       2.424  -2.192  -1.401  0.00  0.00    +0.149 HD
BRANCH   9  11
ATOM     11  C   UNL     1       0.914  -1.012  -0.263  0.00  0.00    +0.094 C 
BRANCH  11  12
ATOM     12  C   UNL     1       1.929  -1.100   0.878  0.00  0.00    -0.013 C 
BRANCH  12  13
ATOM     13  N   UNL     1       3.139  -0.349   0.516  0.00  0.00    +0.386 N 
ATOM     14  C   UNL     1       4.047  -0.208   1.683  0.00  0.00    -0.078 C 
ATOM     15  C   UNL     1       5.417   0.102   1.031  0.00  0.00    -0.020 C 
ATOM     16  C   UNL     1       5.406  -0.785  -0.235  0.00  0.00    -0.020 C 
ATOM     17  C   UNL     1       3.918  -1.066  -0.516  0.00  0.00    -0.078 C 
ATOM     18  H   UNL     1       2.787   0.627   0.151  0.00  0.00    -0.081 HD
ENDBRANCH  12  13
BRANCH  12  19
ATOM     19  C   UNL     1       1.329  -0.513   2.130  0.00  0.00    -0.022 A 
ATOM     20  C   UNL     1       0.873  -1.149   3.237  0.00  0.00    +0.009 A 
ATOM     21  C   UNL     1       0.359  -0.398   4.277  0.00  0.00    +0.008 A 
ATOM     22  C   UNL     1       0.326   0.952   4.160  0.00  0.00    +0.045 A 
ATOM     23  S   UNL     1       1.043   1.200   2.543  0.00  0.00    -0.103 S 
ENDBRANCH  12  19
ENDBRANCH  11  12
ENDBRANCH   9  11
ENDBRANCH   4   7
BRANCH   1  24
ATOM     24  S   UNL     1       3.069  -4.214  -7.534  0.00  0.00    +0.072 S 
ATOM     25  O   UNL     1       3.934  -5.245  -7.078  0.00  0.00    -0.150 OA
ATOM     26  O   UNL     1       1.973  -4.467  -8.402  0.00  0.00    -0.150 OA
BRANCH  24  27
ATOM     27  N   UNL     1       4.026  -3.095  -8.292  0.00  0.00    -0.216 N 
ATOM     28  H   UNL     1       3.808  -2.797  -9.329  0.00  0.00    +0.174 HD
BRANCH  27  34
ATOM     29  C   UNL     1       7.046   0.717  -7.585  0.00  0.00    +0.044 C 
ATOM     30  C   UNL     1       6.595  -0.682  -7.253  0.00  0.00    -0.046 A 
ATOM     31  C   UNL     1       7.255  -1.407  -6.277  0.00  0.00    +0.004 A 
ATOM     32  C   UNL     1       6.844  -2.691  -5.969  0.00  0.00    +0.002 A 
ATOM     33  C   UNL     1       5.773  -3.254  -6.636  0.00  0.00    +0.025 A 
ATOM     34  C   UNL     1       5.109  -2.529  -7.616  0.00  0.00    +0.051 A 
ATOM     35  C   UNL     1       5.527  -1.241  -7.927  0.00  0.00    -0.025 A 
ATOM     36  C   UNL     1       4.814  -0.453  -8.995  0.00  0.00    +0.046 C 
ENDBRANCH  27  34
ENDBRANCH  24  27
ENDBRANCH   1  24
TORSDOF 8
