REMARK  Name = ZINC10860990
REMARK  6 active torsions:
REMARK  status: ('A' for Active; 'I' for Inactive)
REMARK    1  A    between atoms: C_1  and  C_2
REMARK    2  A    between atoms: C_2  and  C_4
REMARK    3  A    between atoms: C_2  and  O_10
REMARK    4  A    between atoms: O_10  and  C_11
REMARK    5  A    between atoms: C_11  and  C_13
REMARK    6  A    between atoms: C_27  and  C_28
REMARK                            x       y       z     vdW  Elec       q    Type
REMARK                         _______ _______ _______ _____ _____    ______ ____
ROOT
ATOM      1  C   UNL     1      -3.283  -1.187   1.072  0.00  0.00    +0.073 A 
ATOM      2  C   UNL     1      -3.530  -2.600   1.361  0.00  0.00    +0.015 A 
ATOM      3  C   UNL     1      -2.488  -3.533   1.394  0.00  0.00    +0.011 A 
ATOM      4  C   UNL     1      -2.763  -4.840   1.668  0.00  0.00    +0.001 A 
ATOM      5  C   UNL     1      -4.068  -5.259   1.916  0.00  0.00    +0.002 A 
ATOM      6  C   UNL     1      -5.105  -4.378   1.890  0.00  0.00    +0.028 A 
ATOM      7  C   UNL     1      -4.861  -3.020   1.611  0.00  0.00    +0.072 A 
ATOM      8  N   UNL     1      -5.855  -2.134   1.577  0.00  0.00    -0.247 NA
ATOM      9  C   UNL     1      -5.659  -0.852   1.318  0.00  0.00    +0.072 A 
ATOM     10  C   UNL     1      -4.377  -0.331   1.067  0.00  0.00    -0.007 A 
ATOM     11  C   UNL     1      -4.152   1.130   0.794  0.00  0.00    +0.038 C 
ATOM     12  C   UNL     1      -5.427   1.803   0.293  0.00  0.00    +0.009 C 
ATOM     13  C   UNL     1      -6.562   1.547   1.292  0.00  0.00    +0.037 C 
ATOM     14  C   UNL     1      -6.829   0.055   1.297  0.00  0.00    -0.021 C 
ATOM     15  C   UNL     1      -8.083  -0.429   1.297  0.00  0.00    +0.013 C 
ENDROOT
BRANCH  15  16
ATOM     16  C   UNL     1      -9.226   0.487   1.449  0.00  0.00    -0.025 A 
ATOM     17  C   UNL     1     -10.436   0.213   0.805  0.00  0.00    +0.011 A 
ATOM     18  C   UNL     1     -11.502   1.075   0.952  0.00  0.00    +0.039 A 
ATOM     19  C   UNL     1     -11.376   2.211   1.736  0.00  0.00    +0.123 A 
ATOM     20  C   UNL     1     -10.179   2.488   2.377  0.00  0.00    +0.039 A 
ATOM     21  C   UNL     1      -9.107   1.632   2.243  0.00  0.00    +0.011 A 
ATOM     22  F   UNL     1     -12.425   3.051   1.876  0.00  0.00    -0.205 F 
ENDBRANCH  15  16
BRANCH   1  23
ATOM     23  C   UNL     1      -1.919  -0.688   0.800  0.00  0.00    +0.341 C 
ATOM     24  O   UNL     1      -1.220  -0.302   1.716  0.00  0.00    -0.245 OA
BRANCH  23  25
ATOM     25  O   UNL     1      -1.450  -0.662  -0.462  0.00  0.00    -0.449 OA
BRANCH  25  27
ATOM     26  C   UNL     1      -0.171   1.345  -0.884  0.00  0.00    +0.062 C 
ATOM     27  C   UNL     1      -0.123  -0.167  -0.651  0.00  0.00    +0.259 C 
BRANCH  27  28
ATOM     28  C   UNL     1       0.499  -0.840  -1.848  0.00  0.00    +0.261 C 
ATOM     29  O   UNL     1      -0.162  -1.594  -2.530  0.00  0.00    -0.271 OA
ATOM     30  N   UNL     1       1.788  -0.604  -2.159  0.00  0.00    -0.237 N 
ATOM     31  C   UNL     1       2.344  -1.207  -3.229  0.00  0.00    +0.303 C 
ATOM     32  O   UNL     1       1.683  -1.962  -3.913  0.00  0.00    -0.253 OA
ATOM     33  N   UNL     1       3.634  -0.971  -3.541  0.00  0.00    -0.313 N 
ATOM     34  H   UNL     1       2.317  -0.001  -1.613  0.00  0.00    +0.159 HD
ATOM     35  H   UNL     1       4.162  -0.367  -2.995  0.00  0.00    +0.146 HD
ATOM     36  H   UNL     1       4.034  -1.404  -4.311  0.00  0.00    +0.146 HD
ENDBRANCH  27  28
ENDBRANCH  25  27
ENDBRANCH  23  25
ENDBRANCH   1  23
TORSDOF 5
