REMARK  Name = ZINC50062536
REMARK  7 active torsions:
REMARK  status: ('A' for Active; 'I' for Inactive)
REMARK    1  A    between atoms: C_1  and  C_2
REMARK    2  A    between atoms: C_8  and  C_28
REMARK    3  A    between atoms: C_8  and  C_29
REMARK    4  A    between atoms: C_10  and  N_12
REMARK    5  A    between atoms: N_15  and  C_16
REMARK    6  A    between atoms: N_22  and  C_27
REMARK    7  A    between atoms: N_25  and  C_26
REMARK                            x       y       z     vdW  Elec       q    Type
REMARK                         _______ _______ _______ _____ _____    ______ ____
ROOT
ATOM      1  N   UNL     1      -2.456  -3.144  -0.998  0.00  0.00    -0.292 N 
ATOM      2  C   UNL     1      -3.622  -2.576  -0.632  0.00  0.00    +0.304 C 
ATOM      3  O   UNL     1      -3.715  -2.015   0.442  0.00  0.00    -0.252 OA
ATOM      4  N   UNL     1      -4.686  -2.630  -1.458  0.00  0.00    -0.269 N 
ATOM      5  H   UNL     1      -2.382  -3.592  -1.856  0.00  0.00    +0.151 HD
ATOM      6  H   UNL     1      -4.592  -3.009  -2.346  0.00  0.00    +0.156 HD
ENDROOT
BRANCH   1  16
ATOM      7  C   UNL     1      -0.139   1.832  -0.800  0.00  0.00    +0.086 C 
ATOM      8  C   UNL     1      -0.053   0.340  -0.611  0.00  0.00    +0.103 A 
ATOM      9  C   UNL     1      -1.098  -0.495  -0.446  0.00  0.00    +0.050 A 
ATOM     10  C   UNL     1      -0.563  -1.788  -0.307  0.00  0.00    +0.014 A 
ATOM     11  C   UNL     1       0.779  -1.675  -0.392  0.00  0.00    +0.111 A 
ATOM     12  O   UNL     1       1.080  -0.385  -0.583  0.00  0.00    -0.464 OA
ATOM     13  C   UNL     1       1.730  -2.842  -0.288  0.00  0.00    +0.081 C 
ATOM     14  C   UNL     1       0.978  -4.027   0.330  0.00  0.00    -0.026 C 
ATOM     15  C   UNL     1      -0.341  -4.241  -0.417  0.00  0.00    +0.034 C 
ATOM     16  C   UNL     1      -1.300  -3.086  -0.101  0.00  0.00    +0.109 C 
ATOM     17  C   UNL     1       0.689  -3.734   1.803  0.00  0.00    +0.011 C 
ATOM     18  C   UNL     1       1.837  -5.288   0.220  0.00  0.00    +0.011 C 
ENDBRANCH   1  16
BRANCH   4  19
ATOM     19  C   UNL     1      -5.928  -2.139  -1.034  0.00  0.00    +0.037 A 
ATOM     20  C   UNL     1      -6.793  -1.553  -1.951  0.00  0.00    +0.025 A 
ATOM     21  C   UNL     1      -8.018  -1.068  -1.540  0.00  0.00    +0.030 A 
ATOM     22  C   UNL     1      -8.388  -1.165  -0.207  0.00  0.00    +0.070 A 
ATOM     23  C   UNL     1      -7.521  -1.752   0.717  0.00  0.00    +0.071 A 
ATOM     24  C   UNL     1      -6.294  -2.244   0.299  0.00  0.00    +0.051 A 
ATOM     25  N   UNL     1      -8.160  -1.705   1.954  0.00  0.00    -0.295 N 
ATOM     26  C   UNL     1      -9.359  -1.116   1.791  0.00  0.00    +0.330 A 
ATOM     27  O   UNL     1     -10.169  -0.919   2.678  0.00  0.00    -0.246 OA
ATOM     28  N   UNL     1      -9.527  -0.778   0.499  0.00  0.00    -0.295 N 
ATOM     29  C   UNL     1     -10.705  -0.117  -0.069  0.00  0.00    +0.154 C 
ATOM     30  C   UNL     1      -7.618  -2.211   3.218  0.00  0.00    +0.154 C 
ENDBRANCH   4  19
TORSDOF 2
