REMARK  Name = ZINC24656640
REMARK  5 active torsions:
REMARK  status: ('A' for Active; 'I' for Inactive)
REMARK    1  A    between atoms: C_1  and  C_2
REMARK    2  A    between atoms: C_2  and  C_4
REMARK    3  A    between atoms: C_2  and  N_9
REMARK    4  A    between atoms: N_9  and  C_10
REMARK    5  A    between atoms: C_11  and  C_13
REMARK                            x       y       z     vdW  Elec       q    Type
REMARK                         _______ _______ _______ _____ _____    ______ ____
ROOT
ATOM      1  N   UNL     1      -2.092   1.085   1.167  0.00  0.00    -0.293 N 
ATOM      2  C   UNL     1      -2.256  -0.364   1.018  0.00  0.00    +0.133 C 
ATOM      3  C   UNL     1      -3.176   1.877   1.283  0.00  0.00    +0.248 C 
ATOM      4  O   UNL     1      -3.040   3.068   1.483  0.00  0.00    -0.270 OA
ENDROOT
BRANCH   3   5
ATOM      5  C   UNL     1      -4.529   1.298   1.167  0.00  0.00    +0.053 A 
ATOM      6  C   UNL     1      -4.824   0.054   1.745  0.00  0.00    +0.020 A 
ATOM      7  C   UNL     1      -6.101  -0.447   1.604  0.00  0.00    +0.071 A 
ATOM      8  C   UNL     1      -7.048   0.290   0.900  0.00  0.00    +0.249 A 
ATOM      9  N   UNL     1      -6.741   1.464   0.370  0.00  0.00    -0.328 N 
ATOM     10  C   UNL     1      -5.535   1.980   0.480  0.00  0.00    +0.099 A 
ATOM     11  O   UNL     1      -8.305  -0.197   0.759  0.00  0.00    -0.268 OA
ATOM     12  H   UNL     1      -7.503   2.036  -0.180  0.00  0.00    +0.168 HD
ENDBRANCH   3   5
BRANCH   1  14
ATOM     13  C   UNL     1      -0.030   1.351  -0.121  0.00  0.00    +0.034 C 
ATOM     14  C   UNL     1      -0.750   1.671   1.191  0.00  0.00    +0.110 C 
BRANCH  14  15
ATOM     15  C   UNL     1       0.029   1.095   2.345  0.00  0.00    +0.010 A 
ATOM     16  C   UNL     1       0.883   1.719   3.194  0.00  0.00    +0.013 A 
ATOM     17  C   UNL     1       1.492   0.982   4.192  0.00  0.00    +0.008 A 
ATOM     18  C   UNL     1       1.219  -0.342   4.293  0.00  0.00    +0.045 A 
ATOM     19  S   UNL     1       0.063  -0.583   2.953  0.00  0.00    -0.100 S 
ENDBRANCH  14  15
ENDBRANCH   1  14
TORSDOF 3
