REMARK  Name = ZINC61882377
REMARK  4 active torsions:
REMARK  status: ('A' for Active; 'I' for Inactive)
REMARK    1  A    between atoms: C_4  and  S_9
REMARK    2  A    between atoms: C_6  and  N_7
REMARK    3  A    between atoms: S_9  and  N_12
REMARK    4  A    between atoms: N_12  and  C_13
REMARK                            x       y       z     vdW  Elec       q    Type
REMARK                         _______ _______ _______ _____ _____    ______ ____
ROOT
ATOM      1  S   UNL     1       4.091  -0.959  -0.108  0.00  0.00    +0.060 S 
ATOM      2  O   UNL     1       4.245  -2.080  -0.968  0.00  0.00    -0.153 OA
ATOM      3  O   UNL     1       4.975   0.153  -0.140  0.00  0.00    -0.153 OA
ENDROOT
BRANCH   1   7
ATOM      4  C   UNL     1      -0.073   0.670  -0.851  0.00  0.00    +0.044 A 
ATOM      5  C   UNL     1       0.389  -0.412  -1.578  0.00  0.00    +0.045 A 
ATOM      6  C   UNL     1       1.661  -0.907  -1.350  0.00  0.00    +0.049 A 
ATOM      7  C   UNL     1       2.473  -0.324  -0.395  0.00  0.00    +0.122 A 
ATOM      8  C   UNL     1       2.017   0.757   0.336  0.00  0.00    +0.065 A 
ATOM      9  C   UNL     1       0.740   1.258   0.109  0.00  0.00    +0.042 A 
ATOM     10 BR   UNL     1       3.127   1.553   1.642  0.00  0.00    -0.046 Br
ATOM     11 CL   UNL     1      -0.627  -1.148  -2.777  0.00  0.00    -0.083 Cl
BRANCH   9  12
ATOM     12  N   UNL     1       0.276   2.351   0.845  0.00  0.00    -0.357 N 
ATOM     13  H   UNL     1      -0.615   2.700   0.686  0.00  0.00    +0.142 HD
ATOM     14  H   UNL     1       0.845   2.761   1.515  0.00  0.00    +0.142 HD
ENDBRANCH   9  12
ENDBRANCH   1   7
BRANCH   1  15
ATOM     15  N   UNL     1       4.121  -1.543   1.441  0.00  0.00    -0.188 NA
ATOM     16  H   UNL     1       4.702  -1.135   2.102  0.00  0.00    +0.148 HD
BRANCH  15  17
ATOM     17  C   UNL     1       3.270  -2.676   1.813  0.00  0.00    +0.061 C 
ATOM     18  C   UNL     1       2.026  -2.187   2.584  0.00  0.00    +0.000 C 
ATOM     19  C   UNL     1       1.746  -3.297   3.610  0.00  0.00    -0.077 C 
ATOM     20  N   UNL     1       2.967  -4.100   3.746  0.00  0.00    +0.383 N 
ATOM     21  C   UNL     1       3.998  -3.592   2.814  0.00  0.00    -0.050 C 
ATOM     22  C   UNL     1       4.934  -2.718   3.686  0.00  0.00    -0.016 C 
ATOM     23  C   UNL     1       4.931  -3.485   5.033  0.00  0.00    -0.020 C 
ATOM     24  C   UNL     1       3.483  -4.021   5.123  0.00  0.00    -0.078 C 
ATOM     25  H   UNL     1       2.767  -5.062   3.515  0.00  0.00    -0.081 HD
ENDBRANCH  15  17
ENDBRANCH   1  15
TORSDOF 4
