REMARK  Name = ZINC10013828
REMARK  8 active torsions:
REMARK  status: ('A' for Active; 'I' for Inactive)
REMARK    1  A    between atoms: C_1  and  C_2
REMARK    2  A    between atoms: C_5  and  C_8
REMARK    3  A    between atoms: C_14  and  C_22
REMARK    4  A    between atoms: C_16  and  C_20
REMARK    5  A    between atoms: C_17  and  N_19
REMARK    6  A    between atoms: C_27  and  O_28
REMARK    7  A    between atoms: O_28  and  C_29
REMARK    8  A    between atoms: C_29  and  C_31
REMARK                            x       y       z     vdW  Elec       q    Type
REMARK                         _______ _______ _______ _____ _____    ______ ____
ROOT
ATOM      1  C   UNL     1      -0.080  -3.467  -0.305  0.00  0.00    +0.084 C 
ATOM      2  N   UNL     1      -0.233  -4.026  -1.475  0.00  0.00    -0.150 NA
ATOM      3  N   UNL     1      -0.338  -5.414  -1.387  0.00  0.00    -0.115 NA
ATOM      4  C   UNL     1      -0.203  -5.833  -0.179  0.00  0.00    +0.227 C 
ATOM      5  C   UNL     1      -0.112  -4.591   0.704  0.00  0.00    +0.140 C 
ATOM      6  C   UNL     1       1.226  -4.700   1.445  0.00  0.00    +0.086 C 
ATOM      7  C   UNL     1       1.423  -6.122   1.895  0.00  0.00    +0.095 C 
ATOM      8  C   UNL     1       0.793  -7.186   1.355  0.00  0.00    +0.200 C 
ATOM      9  O   UNL     1      -0.115  -7.072   0.349  0.00  0.00    -0.425 OA
ENDROOT
BRANCH   1  14
ATOM     10  C   UNL     1       0.603   2.137   0.783  0.00  0.00    +0.044 C 
ATOM     11  C   UNL     1       0.424   0.668   0.497  0.00  0.00    -0.050 A 
ATOM     12  C   UNL     1       0.804   0.154  -0.730  0.00  0.00    +0.004 A 
ATOM     13  C   UNL     1       0.643  -1.189  -0.999  0.00  0.00    +0.010 A 
ATOM     14  C   UNL     1       0.096  -2.032  -0.027  0.00  0.00    -0.001 A 
ATOM     15  C   UNL     1      -0.285  -1.505   1.212  0.00  0.00    +0.010 A 
ATOM     16  C   UNL     1      -0.113  -0.161   1.467  0.00  0.00    +0.004 A 
ENDBRANCH   1  14
BRANCH   6  17
ATOM     17  C   UNL     1       1.213  -3.787   2.644  0.00  0.00    +0.004 A 
ATOM     18  C   UNL     1       0.272  -3.965   3.639  0.00  0.00    +0.008 A 
ATOM     19  C   UNL     1       0.260  -3.129   4.740  0.00  0.00    +0.001 A 
ATOM     20  C   UNL     1       1.190  -2.111   4.847  0.00  0.00    +0.004 A 
ATOM     21  C   UNL     1       2.133  -1.928   3.855  0.00  0.00    +0.047 A 
ATOM     22  C   UNL     1       2.151  -2.770   2.752  0.00  0.00    +0.136 A 
BRANCH  22  23
ATOM     23  O   UNL     1       3.081  -2.596   1.777  0.00  0.00    -0.422 OA
BRANCH  23  24
ATOM     24  C   UNL     1       4.218  -3.316   1.852  0.00  0.00    +0.346 C 
ATOM     25  O   UNL     1       4.378  -4.106   2.761  0.00  0.00    -0.244 OA
BRANCH  24  26
ATOM     26  C   UNL     1       5.269  -3.144   0.830  0.00  0.00    +0.078 A 
ATOM     27  C   UNL     1       5.091  -2.232  -0.213  0.00  0.00    +0.016 A 
ATOM     28  C   UNL     1       6.077  -2.075  -1.164  0.00  0.00    +0.001 A 
ATOM     29  C   UNL     1       7.242  -2.820  -1.088  0.00  0.00    +0.001 A 
ATOM     30  C   UNL     1       7.426  -3.725  -0.059  0.00  0.00    +0.021 A 
ATOM     31  C   UNL     1       6.450  -3.888   0.904  0.00  0.00    +0.055 A 
ATOM     32 CL   UNL     1       6.685  -5.019   2.200  0.00  0.00    -0.083 Cl
ENDBRANCH  24  26
ENDBRANCH  23  24
ENDBRANCH  22  23
ENDBRANCH   6  17
BRANCH   8  33
ATOM     33  N   UNL     1       1.076  -8.436   1.846  0.00  0.00    -0.328 N 
ATOM     34  H   UNL     1       1.718  -8.541   2.567  0.00  0.00    +0.145 HD
ATOM     35  H   UNL     1       0.635  -9.215   1.473  0.00  0.00    +0.145 HD
ENDBRANCH   8  33
BRANCH   7  36
ATOM     36  C   UNL     1       2.342  -6.363   2.967  0.00  0.00    +0.100 C 
ATOM     37  N   UNL     1       3.070  -6.554   3.818  0.00  0.00    -0.191 NA
ENDBRANCH   7  36
TORSDOF 7
