REMARK  Name = ZINC43454795
REMARK  8 active torsions:
REMARK  status: ('A' for Active; 'I' for Inactive)
REMARK    1  A    between atoms: C_1  and  C_2
REMARK    2  A    between atoms: C_2  and  N_3
REMARK    3  A    between atoms: N_6  and  C_9
REMARK    4  A    between atoms: C_14  and  N_15
REMARK    5  A    between atoms: N_18  and  C_19
REMARK    6  A    between atoms: C_19  and  C_20
REMARK    7  A    between atoms: C_20  and  N_21
REMARK    8  A    between atoms: C_22  and  C_24
REMARK                            x       y       z     vdW  Elec       q    Type
REMARK                         _______ _______ _______ _____ _____    ______ ____
ROOT
ATOM      1  C   UNL     1      -4.357  -2.844  -1.685  0.00  0.00    +0.051 A 
ATOM      2  C   UNL     1      -3.810  -3.448  -2.807  0.00  0.00    +0.026 A 
ATOM      3  C   UNL     1      -4.582  -4.293  -3.583  0.00  0.00    +0.022 A 
ATOM      4  C   UNL     1      -5.901  -4.538  -3.244  0.00  0.00    +0.043 A 
ATOM      5  C   UNL     1      -6.454  -3.939  -2.126  0.00  0.00    +0.045 A 
ATOM      6  C   UNL     1      -5.685  -3.095  -1.340  0.00  0.00    +0.057 A 
ATOM      7 CL   UNL     1      -6.864  -5.599  -4.223  0.00  0.00    -0.083 Cl
ENDROOT
BRANCH   1  11
ATOM      8  N   UNL     1      -1.371  -0.523  -0.005  0.00  0.00    +0.382 N 
ATOM      9  C   UNL     1      -2.054  -0.117  -1.240  0.00  0.00    -0.060 C 
ATOM     10  C   UNL     1      -3.523  -0.545  -1.174  0.00  0.00    +0.086 C 
ATOM     11  N   UNL     1      -3.577  -1.989  -0.898  0.00  0.00    -0.332 N 
ATOM     12  C   UNL     1      -2.787  -2.509   0.229  0.00  0.00    +0.086 C 
ATOM     13  C   UNL     1      -1.352  -1.988   0.097  0.00  0.00    -0.060 C 
ATOM     14  H   UNL     1      -1.860  -0.138   0.789  0.00  0.00    -0.082 HD
BRANCH   8  16
ATOM     15  C   UNL     1      -0.010   1.512  -0.001  0.00  0.00    -0.017 C 
ATOM     16  C   UNL     1       0.008  -0.017  -0.021  0.00  0.00    -0.082 C 
ENDBRANCH   8  16
ENDBRANCH   1  11
BRANCH   6  17
ATOM     17  N   UNL     1      -6.242  -2.491  -0.204  0.00  0.00    -0.268 N 
ATOM     18  C   UNL     1      -7.292  -3.063   0.417  0.00  0.00    +0.304 C 
ATOM     19  O   UNL     1      -7.692  -4.153   0.056  0.00  0.00    -0.253 OA
ATOM     20  N   UNL     1      -7.899  -2.427   1.439  0.00  0.00    -0.298 N 
ATOM     21  H   UNL     1      -5.871  -1.661   0.135  0.00  0.00    +0.156 HD
ATOM     22  H   UNL     1      -7.580  -1.558   1.727  0.00  0.00    +0.150 HD
BRANCH  20  23
ATOM     23  C   UNL     1      -9.041  -3.049   2.114  0.00  0.00    +0.124 C 
BRANCH  23  24
ATOM     24  C   UNL     1      -9.540  -2.127   3.227  0.00  0.00    +0.123 C 
BRANCH  24  25
ATOM     25  N   UNL     1     -10.682  -2.749   3.902  0.00  0.00    -0.314 N 
ATOM     26  C   UNL     1     -11.289  -2.113   4.924  0.00  0.00    +0.210 C 
ATOM     27  O   UNL     1     -10.890  -1.026   5.284  0.00  0.00    -0.276 OA
ATOM     28  C   UNL     1     -12.464  -2.753   5.618  0.00  0.00    +0.109 C 
ATOM     29  H   UNL     1     -11.001  -3.618   3.614  0.00  0.00    +0.149 HD
ENDBRANCH  24  25
ENDBRANCH  23  24
ENDBRANCH  20  23
ENDBRANCH   6  17
TORSDOF 6
