REMARK  Name = ZINC13730630
REMARK  8 active torsions:
REMARK  status: ('A' for Active; 'I' for Inactive)
REMARK    1  A    between atoms: C_1  and  C_2
REMARK    2  A    between atoms: C_2  and  C_3
REMARK    3  A    between atoms: C_2  and  C_4
REMARK    4  A    between atoms: C_2  and  N_36
REMARK    5  A    between atoms: C_4  and  O_5
REMARK    6  A    between atoms: C_6  and  C_7
REMARK    7  A    between atoms: C_6  and  N_36
REMARK    8  A    between atoms: C_10  and  C_12
REMARK                            x       y       z     vdW  Elec       q    Type
REMARK                         _______ _______ _______ _____ _____    ______ ____
ROOT
ATOM      1  C   UNL     1      -3.342   2.742  -0.511  0.00  0.00    +0.089 A 
ATOM      2  C   UNL     1      -2.957   3.516   0.523  0.00  0.00    +0.043 A 
ATOM      3  C   UNL     1      -1.649   3.120   0.870  0.00  0.00    +0.050 A 
ATOM      4  C   UNL     1      -1.305   2.117   0.020  0.00  0.00    +0.136 A 
ATOM      5  O   UNL     1      -2.339   1.902  -0.816  0.00  0.00    -0.462 OA
ENDROOT
BRANCH   4   6
ATOM      6  C   UNL     1      -0.017   1.392   0.010  0.00  0.00    +0.031 A 
ATOM      7  C   UNL     1       1.186   2.101   0.002  0.00  0.00    +0.014 A 
ATOM      8  C   UNL     1       2.385   1.419  -0.013  0.00  0.00    +0.016 A 
ATOM      9  C   UNL     1       2.397   0.034  -0.021  0.00  0.00    +0.019 A 
ATOM     10  C   UNL     1       1.209  -0.675  -0.013  0.00  0.00    +0.031 A 
ATOM     11  C   UNL     1       0.002  -0.004   0.002  0.00  0.00    +0.030 A 
ATOM     12 BR   UNL     1      -1.621  -0.974   0.012  0.00  0.00    -0.050 Br
ATOM     13 BR   UNL     1       4.046  -0.892  -0.041  0.00  0.00    -0.050 Br
ENDBRANCH   4   6
BRANCH   1  14
ATOM     14  C   UNL     1      -4.673   2.812  -1.212  0.00  0.00    -0.006 C 
BRANCH  14  15
ATOM     15  N   UNL     1      -4.581   3.770  -2.330  0.00  0.00    +0.389 N 
ATOM     16  H   UNL     1      -4.331   4.696  -1.963  0.00  0.00    -0.084 HD
ATOM     17  H   UNL     1      -3.857   3.455  -2.987  0.00  0.00    -0.084 HD
BRANCH  15  19
ATOM     18  C   UNL     1      -6.251   2.485  -3.592  0.00  0.00    -0.008 C 
ATOM     19  C   UNL     1      -5.873   3.860  -3.037  0.00  0.00    -0.050 C 
ATOM     20  C   UNL     1      -6.957   4.334  -2.067  0.00  0.00    -0.008 C 
BRANCH  19  21
ATOM     21  C   UNL     1      -5.747   4.858  -4.189  0.00  0.00    +0.143 C 
BRANCH  21  22
ATOM     22  O   UNL     1      -6.995   4.950  -4.878  0.00  0.00    -0.396 OA
ATOM     23  H   UNL     1      -6.988   5.567  -5.623  0.00  0.00    +0.209 HD
ENDBRANCH  21  22
ENDBRANCH  19  21
ENDBRANCH  15  19
ENDBRANCH  14  15
ENDBRANCH   1  14
TORSDOF 6
