REMARK  Name = ZINC35935062
REMARK  8 active torsions:
REMARK  status: ('A' for Active; 'I' for Inactive)
REMARK    1  A    between atoms: C_1  and  C_2
REMARK    2  A    between atoms: C_3  and  N_21
REMARK    3  A    between atoms: C_4  and  C_14
REMARK    4  A    between atoms: C_7  and  O_9
REMARK    5  A    between atoms: O_9  and  C_10
REMARK    6  A    between atoms: C_10  and  C_11
REMARK    7  A    between atoms: C_10  and  C_12
REMARK    8  A    between atoms: C_10  and  C_13
REMARK                            x       y       z     vdW  Elec       q    Type
REMARK                         _______ _______ _______ _____ _____    ______ ____
ROOT
ATOM      1  C   UNL     1      -0.018   1.503   0.010  0.00  0.00    +0.068 C 
ATOM      2  C   UNL     1       0.002  -0.004   0.002  0.00  0.00    +0.069 A 
ATOM      3  C   UNL     1       0.008  -0.796  -1.095  0.00  0.00    +0.074 A 
ATOM      4  C   UNL     1       0.029  -2.142  -0.656  0.00  0.00    +0.114 A 
ATOM      5  N   UNL     1       0.035  -2.145   0.658  0.00  0.00    -0.159 NA
ATOM      6  N   UNL     1       0.024  -0.817   1.102  0.00  0.00    -0.167 N 
ATOM      7  C   UNL     1       0.031  -0.410   2.387  0.00  0.00    +0.437 C 
ATOM      8  O   UNL     1       0.018   0.775   2.649  0.00  0.00    -0.221 OA
ENDROOT
BRANCH   4   9
ATOM      9  C   UNL     1       0.041  -3.341  -1.530  0.00  0.00    +0.004 A 
ATOM     10  C   UNL     1      -0.652  -3.332  -2.739  0.00  0.00    +0.011 A 
ATOM     11  C   UNL     1      -0.637  -4.450  -3.547  0.00  0.00    +0.020 A 
ATOM     12  C   UNL     1       0.064  -5.579  -3.159  0.00  0.00    +0.041 A 
ATOM     13  C   UNL     1       0.754  -5.593  -1.959  0.00  0.00    +0.020 A 
ATOM     14  C   UNL     1       0.750  -4.478  -1.146  0.00  0.00    +0.011 A 
ATOM     15 CL   UNL     1       0.078  -6.983  -4.181  0.00  0.00    -0.084 Cl
ENDBRANCH   4   9
BRANCH   3  16
ATOM     16  N   UNL     1      -0.005  -0.361  -2.430  0.00  0.00    -0.355 N 
ATOM     17  H   UNL     1      -0.019   0.588  -2.631  0.00  0.00    +0.142 HD
ATOM     18  H   UNL     1       0.001  -1.009  -3.152  0.00  0.00    +0.142 HD
ENDBRANCH   3  16
BRANCH   7  19
ATOM     19  O   UNL     1       0.053  -1.319   3.380  0.00  0.00    -0.441 OA
BRANCH  19  20
ATOM     20  C   UNL     1       0.060  -0.817   4.718  0.00  0.00    +0.107 C 
ATOM     21  C   UNL     1      -1.199   0.020   4.955  0.00  0.00    +0.055 C 
ATOM     22  C   UNL     1       0.086  -1.989   5.701  0.00  0.00    +0.055 C 
ATOM     23  C   UNL     1       1.300   0.054   4.930  0.00  0.00    +0.055 C 
ENDBRANCH  19  20
ENDBRANCH   7  19
TORSDOF 4
