REMARK  Name = ZINC08862238
REMARK  4 active torsions:
REMARK  status: ('A' for Active; 'I' for Inactive)
REMARK    1  A    between atoms: C_4  and  C_7
REMARK    2  A    between atoms: C_7  and  C_27
REMARK    3  A    between atoms: N_10  and  N_14
REMARK    4  A    between atoms: C_15  and  C_17
REMARK                            x       y       z     vdW  Elec       q    Type
REMARK                         _______ _______ _______ _____ _____    ______ ____
ROOT
ATOM      1  C   UNL     1       5.134  10.439  -0.609  0.00  0.00    +0.165 C 
ATOM      2  C   UNL     1       4.702   9.166  -1.311  0.00  0.00    +0.272 C 
ATOM      3  O   UNL     1       4.830   8.899  -2.486  0.00  0.00    -0.270 OA
ATOM      4  N   UNL     1       4.144   8.396  -0.356  0.00  0.00    -0.136 N 
ATOM      5  C   UNL     1       4.160   9.000   0.837  0.00  0.00    +0.327 C 
ATOM      6  O   UNL     1       3.710   8.503   1.851  0.00  0.00    -0.251 OA
ATOM      7  N   UNL     1       4.732  10.216   0.790  0.00  0.00    -0.276 N 
ATOM      8  H   UNL     1       4.853  10.829   1.533  0.00  0.00    +0.152 HD
ENDROOT
BRANCH   1  12
ATOM      9  C   UNL     1       9.366  10.949  -0.895  0.00  0.00    +0.000 A 
ATOM     10  C   UNL     1       8.735  11.079   0.328  0.00  0.00    +0.000 A 
ATOM     11  C   UNL     1       7.365  10.913   0.421  0.00  0.00    +0.006 A 
ATOM     12  C   UNL     1       6.627  10.619  -0.710  0.00  0.00    -0.011 A 
ATOM     13  C   UNL     1       7.258  10.484  -1.932  0.00  0.00    +0.006 A 
ATOM     14  C   UNL     1       8.627  10.654  -2.026  0.00  0.00    +0.000 A 
ENDBRANCH   1  12
BRANCH   1  15
ATOM     15  C   UNL     1       4.418  11.632  -1.187  0.00  0.00    -0.011 A 
ATOM     16  C   UNL     1       4.418  11.845  -2.552  0.00  0.00    +0.006 A 
ATOM     17  C   UNL     1       3.757  12.937  -3.082  0.00  0.00    +0.000 A 
ATOM     18  C   UNL     1       3.103  13.822  -2.245  0.00  0.00    +0.000 A 
ATOM     19  C   UNL     1       3.107  13.612  -0.879  0.00  0.00    +0.000 A 
ATOM     20  C   UNL     1       3.764  12.518  -0.350  0.00  0.00    +0.006 A 
ENDBRANCH   1  15
BRANCH   4  21
ATOM     21  N   UNL     1       3.610   7.121  -0.587  0.00  0.00    -0.219 N 
ATOM     22  C   UNL     1       4.286   6.025  -0.190  0.00  0.00    +0.269 C 
ATOM     23  O   UNL     1       5.361   6.142   0.368  0.00  0.00    -0.268 OA
ATOM     24  H   UNL     1       2.753   7.028  -1.032  0.00  0.00    +0.174 HD
BRANCH  22  25
ATOM     25  C   UNL     1       3.725   4.689  -0.432  0.00  0.00    +0.095 A 
ATOM     26  C   UNL     1       4.253   3.477  -0.108  0.00  0.00    +0.068 A 
ATOM     27  C   UNL     1       3.552   2.300  -0.429  0.00  0.00    +0.008 A 
ATOM     28  C   UNL     1       3.931   0.956  -0.178  0.00  0.00    +0.010 A 
ATOM     29  C   UNL     1       3.132  -0.074  -0.558  0.00  0.00    +0.001 A 
ATOM     30  C   UNL     1       1.922   0.143  -1.207  0.00  0.00    +0.001 A 
ATOM     31  C   UNL     1       1.512   1.435  -1.464  0.00  0.00    +0.016 A 
ATOM     32  C   UNL     1       2.313   2.491  -1.086  0.00  0.00    +0.021 A 
ATOM     33  S   UNL     1       2.185   4.256  -1.222  0.00  0.00    -0.082 S 
ATOM     34 CL   UNL     1       5.786   3.384   0.700  0.00  0.00    -0.082 Cl
ENDBRANCH  22  25
ENDBRANCH   4  21
TORSDOF 4
