REMARK  Name = ZINC08476227
REMARK  9 active torsions:
REMARK  status: ('A' for Active; 'I' for Inactive)
REMARK    1  A    between atoms: C_1  and  C_2
REMARK    2  A    between atoms: C_2  and  N_3
REMARK    3  A    between atoms: C_7  and  C_9
REMARK    4  A    between atoms: C_9  and  C_11
REMARK    5  A    between atoms: C_9  and  S_12
REMARK    6  A    between atoms: S_12  and  C_13
REMARK    7  A    between atoms: C_21  and  C_25
REMARK    8  A    between atoms: N_28  and  C_29
REMARK    9  A    between atoms: C_29  and  C_30
REMARK                            x       y       z     vdW  Elec       q    Type
REMARK                         _______ _______ _______ _____ _____    ______ ____
ROOT
ATOM      1  C   UNL     1      -3.094   1.813   0.701  0.00  0.00    +0.173 A 
ATOM      2  N   UNL     1      -4.340   1.382   0.688  0.00  0.00    -0.216 NA
ATOM      3  C   UNL     1      -4.664   0.222   1.246  0.00  0.00    +0.117 A 
ATOM      4  C   UNL     1      -3.710  -0.602   1.866  0.00  0.00    +0.076 A 
ATOM      5  C   UNL     1      -4.218  -1.851   2.436  0.00  0.00    -0.023 A 
ATOM      6  C   UNL     1      -5.540  -2.088   2.312  0.00  0.00    -0.004 A 
ATOM      7  S   UNL     1      -6.179  -0.682   1.442  0.00  0.00    -0.073 S 
ATOM      8  C   UNL     1      -6.299  -3.282   2.804  0.00  0.00    +0.046 C 
ATOM      9  C   UNL     1      -5.291  -4.387   3.151  0.00  0.00    -0.009 C 
ATOM     10  C   UNL     1      -4.171  -3.780   4.002  0.00  0.00    +0.008 C 
ATOM     11  C   UNL     1      -3.310  -2.854   3.143  0.00  0.00    +0.037 C 
ATOM     12  C   UNL     1      -5.995  -5.495   3.937  0.00  0.00    +0.008 C 
ATOM     13  C   UNL     1      -2.365  -0.112   1.860  0.00  0.00    +0.263 A 
ATOM     14  O   UNL     1      -1.470  -0.759   2.375  0.00  0.00    -0.267 OA
ATOM     15  N   UNL     1      -2.103   1.072   1.277  0.00  0.00    -0.288 N 
ENDROOT
BRANCH  15  16
ATOM     16  C   UNL     1      -0.729   1.579   1.267  0.00  0.00    +0.124 C 
ATOM     17  C   UNL     1      -0.013   1.086   0.008  0.00  0.00    +0.027 C 
ENDBRANCH  15  16
BRANCH   1  18
ATOM     18  S   UNL     1      -2.702   3.361  -0.043  0.00  0.00    -0.075 S 
BRANCH  18  19
ATOM     19  C   UNL     1      -4.345   3.861  -0.615  0.00  0.00    +0.137 C 
ATOM     20  C   UNL     1      -4.830   2.885  -1.689  0.00  0.00    +0.029 C 
BRANCH  19  25
ATOM     21  N   UNL     1      -6.414   8.046  -1.760  0.00  0.00    -0.299 N 
ATOM     22  C   UNL     1      -5.313   7.270  -1.735  0.00  0.00    +0.306 C 
ATOM     23  O   UNL     1      -4.263   7.690  -2.180  0.00  0.00    -0.252 OA
ATOM     24  N   UNL     1      -5.376   6.027  -1.218  0.00  0.00    -0.239 N 
ATOM     25  C   UNL     1      -4.274   5.250  -1.193  0.00  0.00    +0.233 C 
ATOM     26  O   UNL     1      -3.227   5.670  -1.637  0.00  0.00    -0.274 OA
ATOM     27  H   UNL     1      -7.252   7.710  -1.405  0.00  0.00    +0.150 HD
ATOM     28  H   UNL     1      -6.214   5.691  -0.863  0.00  0.00    +0.159 HD
BRANCH  21  30
ATOM     29  C   UNL     1      -7.722  10.059  -2.229  0.00  0.00    +0.024 C 
ATOM     30  C   UNL     1      -6.346   9.397  -2.322  0.00  0.00    +0.102 C 
ENDBRANCH  21  30
ENDBRANCH  19  25
ENDBRANCH  18  19
ENDBRANCH   1  18
TORSDOF 5
