REMARK  Name = ZINC32176483
REMARK  8 active torsions:
REMARK  status: ('A' for Active; 'I' for Inactive)
REMARK    1  A    between atoms: C_1  and  C_2
REMARK    2  A    between atoms: C_4  and  C_7
REMARK    3  A    between atoms: C_7  and  O_8
REMARK    4  A    between atoms: O_8  and  C_9
REMARK    5  A    between atoms: C_9  and  C_11
REMARK    6  A    between atoms: C_11  and  C_12
REMARK    7  A    between atoms: C_11  and  C_18
REMARK    8  A    between atoms: C_11  and  O_24
REMARK                            x       y       z     vdW  Elec       q    Type
REMARK                         _______ _______ _______ _____ _____    ______ ____
ROOT
ATOM      1  C   UNL     1       2.851  -3.869  -2.985  0.00  0.00    +0.213 C 
ENDROOT
BRANCH   1   2
ATOM      2  C   UNL     1       3.987  -3.572  -3.930  0.00  0.00    -0.001 A 
ATOM      3  C   UNL     1       5.258  -3.348  -3.434  0.00  0.00    +0.007 A 
ATOM      4  C   UNL     1       6.301  -3.080  -4.301  0.00  0.00    +0.000 A 
ATOM      5  C   UNL     1       6.070  -3.027  -5.663  0.00  0.00    +0.000 A 
ATOM      6  C   UNL     1       4.798  -3.247  -6.159  0.00  0.00    +0.000 A 
ATOM      7  C   UNL     1       3.757  -3.519  -5.292  0.00  0.00    +0.007 A 
ENDBRANCH   1   2
BRANCH   1   8
ATOM      8  C   UNL     1       2.905  -5.318  -2.574  0.00  0.00    -0.001 A 
ATOM      9  C   UNL     1       4.058  -5.835  -2.014  0.00  0.00    +0.007 A 
ATOM     10  C   UNL     1       4.105  -7.163  -1.633  0.00  0.00    +0.000 A 
ATOM     11  C   UNL     1       3.004  -7.977  -1.821  0.00  0.00    +0.000 A 
ATOM     12  C   UNL     1       1.853  -7.461  -2.387  0.00  0.00    +0.000 A 
ATOM     13  C   UNL     1       1.803  -6.131  -2.763  0.00  0.00    +0.007 A 
ENDBRANCH   1   8
BRANCH   1  14
ATOM     14  C   UNL     1       2.974  -2.996  -1.762  0.00  0.00    +0.349 C 
ATOM     15  O   UNL     1       3.525  -3.416  -0.773  0.00  0.00    -0.247 OA
BRANCH  14  16
ATOM     16  O   UNL     1       2.469  -1.752  -1.773  0.00  0.00    -0.454 OA
BRANCH  16  17
ATOM     17  C   UNL     1       2.623  -0.968  -0.561  0.00  0.00    +0.309 C 
BRANCH  17  21
ATOM     18  C   UNL     1      -0.546   3.009  -0.773  0.00  0.00    +0.069 C 
ATOM     19  C   UNL     1       0.658   2.107  -0.855  0.00  0.00    +0.081 A 
ATOM     20  C   UNL     1       0.719   0.740  -0.499  0.00  0.00    +0.074 A 
ATOM     21  C   UNL     1       2.001   0.390  -0.759  0.00  0.00    +0.175 A 
ATOM     22  O   UNL     1       2.607   1.490  -1.228  0.00  0.00    -0.356 OA
ATOM     23  N   UNL     1       1.848   2.430  -1.274  0.00  0.00    -0.083 NA
ENDBRANCH  17  21
ENDBRANCH  16  17
ENDBRANCH  14  16
ENDBRANCH   1  14
BRANCH   1  24
ATOM     24  O   UNL     1       1.607  -3.605  -3.637  0.00  0.00    -0.370 OA
ATOM     25  H   UNL     1       1.340  -4.151  -4.553  0.00  0.00    +0.212 HD
ENDBRANCH   1  24
TORSDOF 7
