REMARK  Name = ZINC39596413
REMARK  7 active torsions:
REMARK  status: ('A' for Active; 'I' for Inactive)
REMARK    1  A    between atoms: C_1  and  C_2
REMARK    2  A    between atoms: C_2  and  C_4
REMARK    3  A    between atoms: C_2  and  O_28
REMARK    4  A    between atoms: C_4  and  N_5
REMARK    5  A    between atoms: C_6  and  C_8
REMARK    6  A    between atoms: C_19  and  C_21
REMARK    7  A    between atoms: O_28  and  C_29
REMARK                            x       y       z     vdW  Elec       q    Type
REMARK                         _______ _______ _______ _____ _____    ______ ____
ROOT
ATOM      1  C   UNL     1       1.255  -5.466   0.323  0.00  0.00    +0.100 C 
ATOM      2  C   UNL     1      -0.263  -5.449   0.609  0.00  0.00    +0.121 C 
ATOM      3  N   UNL     1      -0.550  -6.783   1.188  0.00  0.00    -0.300 N 
ATOM      4  C   UNL     1       0.612  -7.062   2.065  0.00  0.00    +0.115 C 
ATOM      5  C   UNL     1       1.826  -6.526   1.281  0.00  0.00    -0.004 C 
ATOM      6  C   UNL     1       2.830  -5.888   2.237  0.00  0.00    -0.010 C 
ATOM      7  C   UNL     1       3.427  -6.970   3.140  0.00  0.00    -0.082 C 
ATOM      8  N   UNL     1       4.085  -7.990   2.315  0.00  0.00    +0.379 N 
ATOM      9  C   UNL     1       3.095  -8.663   1.466  0.00  0.00    -0.082 C 
ATOM     10  C   UNL     1       2.485  -7.652   0.492  0.00  0.00    -0.010 C 
ATOM     11  C   UNL     1      -1.625  -7.566   0.966  0.00  0.00    +0.219 C 
ATOM     12  O   UNL     1      -2.466  -7.227   0.161  0.00  0.00    -0.275 OA
ATOM     13  H   UNL     1       4.783  -7.552   1.733  0.00  0.00    -0.086 HD
ATOM     14  H   UNL     1       4.530  -8.670   2.914  0.00  0.00    -0.086 HD
ENDROOT
BRANCH  11  15
ATOM     15  C   UNL     1      -1.780  -8.862   1.718  0.00  0.00    +0.079 C 
ATOM     16  C   UNL     1      -2.685  -9.813   0.924  0.00  0.00    +0.017 C 
ATOM     17  C   UNL     1      -2.681 -11.177   1.618  0.00  0.00    +0.027 C 
ATOM     18  C   UNL     1      -2.947 -11.011   3.086  0.00  0.00    -0.031 C 
ATOM     19  C   UNL     1      -2.835  -9.888   3.721  0.00  0.00    -0.030 C 
ATOM     20  C   UNL     1      -2.428  -8.594   3.078  0.00  0.00    +0.039 C 
ENDBRANCH  11  15
BRANCH   1  22
ATOM     21  N   UNL     1       2.963  -3.716  -0.047  0.00  0.00    -0.312 N 
ATOM     22  C   UNL     1       1.859  -4.117   0.614  0.00  0.00    +0.218 C 
ATOM     23  O   UNL     1       1.351  -3.390   1.442  0.00  0.00    -0.275 OA
ATOM     24  H   UNL     1       3.370  -4.297  -0.710  0.00  0.00    +0.149 HD
BRANCH  21  25
ATOM     25  C   UNL     1       3.551  -2.404   0.235  0.00  0.00    +0.148 C 
BRANCH  25  27
ATOM     26  C   UNL     1       5.471  -0.884  -0.262  0.00  0.00    +0.053 C 
ATOM     27  C   UNL     1       4.786  -2.199  -0.644  0.00  0.00    +0.187 C 
BRANCH  27  28
ATOM     28  O   UNL     1       4.391  -2.149  -2.017  0.00  0.00    -0.488 OA
BRANCH  28  29
ATOM     29  C   UNL     1       5.310  -2.545  -2.937  0.00  0.00    +0.121 A 
ATOM     30  C   UNL     1       6.598  -2.869  -2.538  0.00  0.00    +0.048 A 
ATOM     31  C   UNL     1       7.530  -3.272  -3.475  0.00  0.00    +0.042 A 
ATOM     32  C   UNL     1       7.179  -3.352  -4.812  0.00  0.00    +0.124 A 
ATOM     33  C   UNL     1       5.893  -3.028  -5.212  0.00  0.00    +0.042 A 
ATOM     34  C   UNL     1       4.957  -2.632  -4.276  0.00  0.00    +0.048 A 
ATOM     35  F   UNL     1       8.091  -3.745  -5.727  0.00  0.00    -0.205 F 
ENDBRANCH  28  29
ENDBRANCH  27  28
ENDBRANCH  25  27
ENDBRANCH  21  25
ENDBRANCH   1  22
TORSDOF 6
