REMARK  Name = ZINC37232757
REMARK  4 active torsions:
REMARK  status: ('A' for Active; 'I' for Inactive)
REMARK    1  A    between atoms: C_1  and  C_2
REMARK    2  A    between atoms: C_6  and  N_11
REMARK    3  A    between atoms: N_11  and  C_12
REMARK    4  A    between atoms: C_12  and  C_13
REMARK                            x       y       z     vdW  Elec       q    Type
REMARK                         _______ _______ _______ _____ _____    ______ ____
ROOT
ATOM      1  C   UNL     1      -0.018   1.503   0.010  0.00  0.00    +0.109 C 
ATOM      2  C   UNL     1       0.002  -0.004   0.002  0.00  0.00    +0.194 A 
ATOM      3  N   UNL     1      -1.054  -0.761   0.003  0.00  0.00    -0.213 NA
ATOM      4  C   UNL     1      -0.660  -2.063  -0.006  0.00  0.00    +0.111 A 
ATOM      5  C   UNL     1      -1.347  -3.279  -0.009  0.00  0.00    +0.054 A 
ATOM      6  C   UNL     1      -0.637  -4.466  -0.018  0.00  0.00    +0.030 A 
ATOM      7  C   UNL     1       0.756  -4.451  -0.024  0.00  0.00    +0.026 A 
ATOM      8  C   UNL     1       1.441  -3.255  -0.021  0.00  0.00    +0.050 A 
ATOM      9  C   UNL     1       0.743  -2.056  -0.013  0.00  0.00    +0.155 A 
ATOM     10  O   UNL     1       1.114  -0.756  -0.013  0.00  0.00    -0.440 OA
ENDROOT
BRANCH   6  11
ATOM     11  N   UNL     1      -1.320  -5.686  -0.021  0.00  0.00    -0.337 N 
ATOM     12  H   UNL     1      -2.290  -5.699  -0.017  0.00  0.00    +0.147 HD
BRANCH  11  13
ATOM     13  C   UNL     1      -0.571  -6.945  -0.031  0.00  0.00    +0.176 C 
BRANCH  13  14
ATOM     14  C   UNL     1      -1.536  -8.103  -0.033  0.00  0.00    +0.123 A 
ATOM     15  C   UNL     1      -2.040  -8.706  -1.125  0.00  0.00    +0.047 A 
ATOM     16  C   UNL     1      -2.895  -9.734  -0.667  0.00  0.00    +0.056 A 
ATOM     17  C   UNL     1      -2.863  -9.699   0.678  0.00  0.00    +0.165 A 
ATOM     18  O   UNL     1      -2.033  -8.713   1.056  0.00  0.00    -0.453 OA
ATOM     19  I   UNL     1      -3.920 -10.971   1.963  0.00  0.00    -0.001 I 
ENDBRANCH  13  14
ENDBRANCH  11  13
ENDBRANCH   6  11
TORSDOF 3
