REMARK  Name = ZINC30342882
REMARK  4 active torsions:
REMARK  status: ('A' for Active; 'I' for Inactive)
REMARK    1  A    between atoms: C_1  and  C_2
REMARK    2  A    between atoms: C_2  and  C_18
REMARK    3  A    between atoms: N_5  and  C_9
REMARK    4  A    between atoms: C_9  and  C_10
REMARK                            x       y       z     vdW  Elec       q    Type
REMARK                         _______ _______ _______ _____ _____    ______ ____
ROOT
ATOM      1  C   UNL     1      -0.111   1.530  -0.110  0.00  0.00    +0.050 C 
ATOM      2  C   UNL     1      -0.050   0.002  -0.067  0.00  0.00    +0.168 C 
ATOM      3  C   UNL     1      -1.442  -0.583   0.072  0.00  0.00    +0.254 C 
ATOM      4  O   UNL     1      -2.366  -0.468  -0.705  0.00  0.00    -0.272 OA
ATOM      5  N   UNL     1      -1.438  -1.259   1.238  0.00  0.00    -0.219 N 
ATOM      6  C   UNL     1      -0.251  -1.184   1.849  0.00  0.00    +0.310 C 
ATOM      7  O   UNL     1      -0.004  -1.714   2.914  0.00  0.00    -0.252 OA
ATOM      8  N   UNL     1       0.640  -0.456   1.152  0.00  0.00    -0.279 N 
ATOM      9  H   UNL     1       1.559  -0.269   1.402  0.00  0.00    +0.152 HD
ENDROOT
BRANCH   2  10
ATOM     10  C   UNL     1       0.634  -0.535  -1.297  0.00  0.00    +0.137 A 
ATOM     11  C   UNL     1       1.954  -0.756  -1.430  0.00  0.00    +0.047 A 
ATOM     12  C   UNL     1       2.156  -1.258  -2.737  0.00  0.00    +0.041 A 
ATOM     13  C   UNL     1       0.947  -1.314  -3.324  0.00  0.00    +0.195 A 
ATOM     14  O   UNL     1       0.028  -0.881  -2.445  0.00  0.00    -0.465 OA
ENDBRANCH   2  10
BRANCH   5  15
ATOM     15  C   UNL     1      -2.593  -1.987   1.771  0.00  0.00    +0.154 C 
BRANCH  15  16
ATOM     16  C   UNL     1      -3.323  -1.115   2.761  0.00  0.00    -0.011 A 
ATOM     17  C   UNL     1      -3.065  -1.240   4.113  0.00  0.00    +0.008 A 
ATOM     18  C   UNL     1      -3.733  -0.441   5.021  0.00  0.00    +0.020 A 
ATOM     19  C   UNL     1      -4.661   0.485   4.577  0.00  0.00    +0.042 A 
ATOM     20  C   UNL     1      -4.919   0.611   3.224  0.00  0.00    +0.040 A 
ATOM     21  C   UNL     1      -4.246  -0.186   2.315  0.00  0.00    +0.047 A 
ATOM     22 CL   UNL     1      -4.565  -0.025   0.616  0.00  0.00    -0.083 Cl
ATOM     23 CL   UNL     1      -5.502   1.488   5.717  0.00  0.00    -0.083 Cl
ENDBRANCH  15  16
ENDBRANCH   5  15
TORSDOF 3
