REMARK  Name = ZINC58201279
REMARK  9 active torsions:
REMARK  status: ('A' for Active; 'I' for Inactive)
REMARK    1  A    between atoms: C_1  and  C_2
REMARK    2  A    between atoms: C_3  and  C_9
REMARK    3  A    between atoms: C_4  and  C_8
REMARK    4  A    between atoms: N_5  and  C_7
REMARK    5  A    between atoms: C_9  and  C_10
REMARK    6  A    between atoms: C_10  and  C_11
REMARK    7  A    between atoms: C_11  and  N_13
REMARK    8  A    between atoms: N_18  and  C_19
REMARK    9  A    between atoms: C_19  and  C_20
REMARK                            x       y       z     vdW  Elec       q    Type
REMARK                         _______ _______ _______ _____ _____    ______ ____
ROOT
ATOM      1  N   UNL     1       2.561   0.538  -5.123  0.00  0.00    -0.147 NA
ATOM      2  C   UNL     1       2.548   0.959  -6.389  0.00  0.00    +0.201 A 
ATOM      3  N   UNL     1       1.447   1.199  -7.136  0.00  0.00    -0.333 N 
ATOM      4  C   UNL     1       1.863   1.619  -8.386  0.00  0.00    +0.103 A 
ATOM      5  C   UNL     1       3.193   1.631  -8.396  0.00  0.00    +0.106 A 
ATOM      6  N   UNL     1       3.634   1.224  -7.149  0.00  0.00    -0.314 N 
ATOM      7  H   UNL     1       0.528   1.096  -6.846  0.00  0.00    +0.168 HD
ENDROOT
BRANCH   1   8
ATOM      8  C   UNL     1       1.417   0.313  -4.487  0.00  0.00    +0.239 C 
ATOM      9  O   UNL     1       0.358   0.490  -5.059  0.00  0.00    -0.274 OA
BRANCH   8  10
ATOM     10  C   UNL     1       1.431  -0.162  -3.057  0.00  0.00    +0.103 C 
BRANCH  10  11
ATOM     11  C   UNL     1      -0.006  -0.343  -2.566  0.00  0.00    +0.048 C 
BRANCH  11  14
ATOM     12  C   UNL     1      -0.018   1.503   0.010  0.00  0.00    +0.068 C 
ATOM     13  C   UNL     1       0.002  -0.004   0.002  0.00  0.00    +0.063 A 
ATOM     14  C   UNL     1       0.008  -0.818  -1.135  0.00  0.00    -0.004 A 
ATOM     15  C   UNL     1       0.028  -2.107  -0.725  0.00  0.00    +0.039 A 
ATOM     16  N   UNL     1       0.034  -2.109   0.625  0.00  0.00    -0.271 N 
ATOM     17  N   UNL     1       0.023  -0.777   1.058  0.00  0.00    -0.176 NA
ATOM     18  C   UNL     1       0.055  -3.295   1.485  0.00  0.00    +0.172 C 
ATOM     19  C   UNL     1       0.040  -3.323  -1.615  0.00  0.00    +0.065 C 
ENDBRANCH  11  14
ENDBRANCH  10  11
ENDBRANCH   8  10
ENDBRANCH   1   8
BRANCH   6  20
ATOM     20  C   UNL     1       5.031   1.101  -6.728  0.00  0.00    +0.159 C 
BRANCH  20  21
ATOM     21  C   UNL     1       5.527  -0.290  -7.032  0.00  0.00    -0.028 A 
ATOM     22  C   UNL     1       5.390  -1.294  -6.091  0.00  0.00    +0.005 A 
ATOM     23  C   UNL     1       5.844  -2.569  -6.370  0.00  0.00    +0.000 A 
ATOM     24  C   UNL     1       6.434  -2.841  -7.590  0.00  0.00    +0.000 A 
ATOM     25  C   UNL     1       6.570  -1.837  -8.531  0.00  0.00    +0.000 A 
ATOM     26  C   UNL     1       6.112  -0.563  -8.254  0.00  0.00    +0.005 A 
ENDBRANCH  20  21
ENDBRANCH   6  20
TORSDOF 6
