REMARK  Name = ZINC15081146
REMARK  10 active torsions:
REMARK  status: ('A' for Active; 'I' for Inactive)
REMARK    1  A    between atoms: C_1  and  C_2
REMARK    2  A    between atoms: C_2  and  O_39
REMARK    3  A    between atoms: C_6  and  C_30
REMARK    4  A    between atoms: C_8  and  C_21
REMARK    5  A    between atoms: C_10  and  C_12
REMARK    6  A    between atoms: N_14  and  C_15
REMARK    7  A    between atoms: C_24  and  O_29
REMARK    8  A    between atoms: C_25  and  O_27
REMARK    9  A    between atoms: O_27  and  C_28
REMARK   10  A    between atoms: N_32  and  C_33
REMARK                            x       y       z     vdW  Elec       q    Type
REMARK                         _______ _______ _______ _____ _____    ______ ____
ROOT
ATOM      1  C   UNL     1      -0.934   4.843   1.304  0.00  0.00    +0.042 C 
ATOM      2  C   UNL     1       0.580   4.937   1.100  0.00  0.00    +0.082 C 
ATOM      3  C   UNL     1       1.292   4.549   2.398  0.00  0.00    +0.110 C 
ATOM      4  C   UNL     1       2.782   4.519   2.137  0.00  0.00    +0.148 C 
ATOM      5  O   UNL     1       3.548   5.120   2.852  0.00  0.00    -0.296 OA
ATOM      6  C   UNL     1       3.288   3.718   0.958  0.00  0.00    +0.149 C 
ATOM      7  C   UNL     1       2.502   4.136  -0.288  0.00  0.00    +0.053 C 
ATOM      8  C   UNL     1       1.004   3.984  -0.019  0.00  0.00    +0.115 C 
ENDROOT
BRANCH   7   9
ATOM      9  C   UNL     1       2.895   3.259  -1.449  0.00  0.00    -0.039 A 
ATOM     10  C   UNL     1       2.935   1.886  -1.293  0.00  0.00    +0.008 A 
ATOM     11  C   UNL     1       3.290   1.077  -2.357  0.00  0.00    +0.049 A 
ATOM     12  C   UNL     1       3.619   1.642  -3.578  0.00  0.00    +0.158 A 
ATOM     13  C   UNL     1       3.584   3.025  -3.733  0.00  0.00    +0.162 A 
ATOM     14  C   UNL     1       3.222   3.830  -2.665  0.00  0.00    +0.053 A 
BRANCH  13  15
ATOM     15  O   UNL     1       3.906   3.585  -4.930  0.00  0.00    -0.491 OA
ATOM     16  C   UNL     1       3.849   5.010  -5.016  0.00  0.00    +0.277 C 
ENDBRANCH  13  15
BRANCH  12  17
ATOM     17  O   UNL     1       3.974   0.848  -4.623  0.00  0.00    -0.503 OA
ATOM     18  H   UNL     1       4.923   0.667  -4.675  0.00  0.00    +0.292 HD
ENDBRANCH  12  17
ENDBRANCH   7   9
BRANCH   8  19
ATOM     19  C   UNL     1       0.711   2.564   0.394  0.00  0.00    +0.224 C 
ATOM     20  O   UNL     1       1.206   2.113   1.405  0.00  0.00    -0.275 OA
ATOM     21  N   UNL     1      -0.100   1.797  -0.360  0.00  0.00    -0.285 N 
ATOM     22  H   UNL     1      -0.432   2.129  -1.208  0.00  0.00    +0.155 HD
BRANCH  21  23
ATOM     23  C   UNL     1      -0.459   0.517   0.078  0.00  0.00    +0.033 A 
ATOM     24  C   UNL     1      -0.687  -0.496  -0.844  0.00  0.00    +0.023 A 
ATOM     25  C   UNL     1      -1.036  -1.759  -0.408  0.00  0.00    +0.002 A 
ATOM     26  C   UNL     1      -1.169  -2.013   0.945  0.00  0.00    +0.000 A 
ATOM     27  C   UNL     1      -0.948  -1.005   1.866  0.00  0.00    +0.002 A 
ATOM     28  C   UNL     1      -0.594   0.259   1.436  0.00  0.00    +0.023 A 
ENDBRANCH  21  23
ENDBRANCH   8  19
BRANCH   6  29
ATOM     29  C   UNL     1       4.754   3.997   0.749  0.00  0.00    +0.228 C 
ATOM     30  O   UNL     1       5.136   4.482  -0.295  0.00  0.00    -0.275 OA
ATOM     31  N   UNL     1       5.641   3.706   1.721  0.00  0.00    -0.285 N 
ATOM     32  H   UNL     1       5.348   3.249   2.525  0.00  0.00    +0.155 HD
BRANCH  31  33
ATOM     33  C   UNL     1       6.986   4.064   1.572  0.00  0.00    +0.033 A 
ATOM     34  C   UNL     1       7.983   3.266   2.116  0.00  0.00    +0.023 A 
ATOM     35  C   UNL     1       9.309   3.620   1.963  0.00  0.00    +0.002 A 
ATOM     36  C   UNL     1       9.644   4.773   1.277  0.00  0.00    +0.000 A 
ATOM     37  C   UNL     1       8.653   5.572   0.738  0.00  0.00    +0.002 A 
ATOM     38  C   UNL     1       7.325   5.221   0.883  0.00  0.00    +0.023 A 
ENDBRANCH  31  33
ENDBRANCH   6  29
BRANCH   2  39
ATOM     39  O   UNL     1       0.931   6.275   0.744  0.00  0.00    -0.388 OA
ATOM     40  H   UNL     1       0.691   6.935   1.410  0.00  0.00    +0.210 HD
ENDBRANCH   2  39
TORSDOF 8
