REMARK  Name = ZINC03288295
REMARK  5 active torsions:
REMARK  status: ('A' for Active; 'I' for Inactive)
REMARK    1  A    between atoms: C_1  and  N_2
REMARK    2  A    between atoms: N_2  and  C_3
REMARK    3  A    between atoms: C_4  and  C_6
REMARK    4  A    between atoms: C_8  and  C_16
REMARK    5  A    between atoms: C_19  and  C_22
REMARK                            x       y       z     vdW  Elec       q    Type
REMARK                         _______ _______ _______ _____ _____    ______ ____
ROOT
ATOM      1  C   UNL     1       6.642  -1.378   1.395  0.00  0.00    +0.143 C 
ATOM      2  C   UNL     1       6.337  -1.181  -0.095  0.00  0.00    +0.122 C 
ATOM      3  N   UNL     1       6.335  -2.479  -0.768  0.00  0.00    -0.291 N 
ATOM      4  C   UNL     1       7.109  -3.497  -0.369  0.00  0.00    +0.304 C 
ATOM      5  O   UNL     1       7.108  -4.524  -1.019  0.00  0.00    -0.253 OA
ATOM      6  N   UNL     1       7.889  -3.425   0.726  0.00  0.00    -0.273 N 
ATOM      7  C   UNL     1       7.873  -2.257   1.498  0.00  0.00    +0.019 C 
ATOM      8  C   UNL     1       8.885  -1.935   2.280  0.00  0.00    +0.029 C 
ATOM      9  H   UNL     1       5.752  -2.608  -1.532  0.00  0.00    +0.151 HD
ATOM     10  H   UNL     1       8.455  -4.171   0.977  0.00  0.00    +0.156 HD
ENDROOT
BRANCH   2  11
ATOM     11  C   UNL     1       4.985  -0.533  -0.250  0.00  0.00    -0.026 A 
ATOM     12  C   UNL     1       4.892   0.840  -0.397  0.00  0.00    +0.006 A 
ATOM     13  C   UNL     1       3.656   1.438  -0.539  0.00  0.00    +0.009 A 
ATOM     14  C   UNL     1       2.502   0.658  -0.534  0.00  0.00    -0.018 A 
ATOM     15  C   UNL     1       2.602  -0.724  -0.380  0.00  0.00    +0.009 A 
ATOM     16  C   UNL     1       3.843  -1.312  -0.245  0.00  0.00    +0.006 A 
BRANCH  14  17
ATOM     17  C   UNL     1       1.171   1.296  -0.687  0.00  0.00    -0.018 A 
ATOM     18  C   UNL     1       0.017   0.515  -0.682  0.00  0.00    +0.008 A 
ATOM     19  C   UNL     1      -1.218   1.113  -0.831  0.00  0.00    +0.001 A 
ATOM     20  C   UNL     1      -1.312   2.486  -0.973  0.00  0.00    +0.000 A 
ATOM     21  C   UNL     1      -0.169   3.266  -0.978  0.00  0.00    +0.001 A 
ATOM     22  C   UNL     1       1.071   2.678  -0.836  0.00  0.00    +0.008 A 
ENDBRANCH  14  17
ENDBRANCH   2  11
BRANCH   1  26
ATOM     23  C   UNL     1       3.338  -1.954   3.238  0.00  0.00    +0.131 C 
ATOM     24  N   UNL     1       4.520  -1.306   2.665  0.00  0.00    -0.307 N 
ATOM     25  C   UNL     1       4.665   0.150   2.737  0.00  0.00    +0.131 C 
ATOM     26  C   UNL     1       5.475  -2.050   2.072  0.00  0.00    +0.226 C 
ATOM     27  O   UNL     1       5.395  -3.260   2.082  0.00  0.00    -0.275 OA
ENDBRANCH   1  26
TORSDOF 3
