REMARK  Name = ZINC67322226
REMARK  9 active torsions:
REMARK  status: ('A' for Active; 'I' for Inactive)
REMARK    1  A    between atoms: C_1  and  C_2
REMARK    2  A    between atoms: C_5  and  N_9
REMARK    3  A    between atoms: C_10  and  C_12
REMARK    4  A    between atoms: C_13  and  C_29
REMARK    5  A    between atoms: N_14  and  C_17
REMARK    6  A    between atoms: C_17  and  C_18
REMARK    7  A    between atoms: N_20  and  C_21
REMARK    8  A    between atoms: C_24  and  C_28
REMARK    9  A    between atoms: C_25  and  C_27
REMARK                            x       y       z     vdW  Elec       q    Type
REMARK                         _______ _______ _______ _____ _____    ______ ____
ROOT
ATOM      1  C   UNL     1      -0.137  -6.280  -1.253  0.00  0.00    +0.170 A 
ATOM      2  C   UNL     1      -0.246  -7.093  -2.345  0.00  0.00    +0.069 A 
ATOM      3  N   UNL     1      -0.282  -8.360  -1.886  0.00  0.00    -0.239 N 
ATOM      4  N   UNL     1      -0.192  -8.288  -0.488  0.00  0.00    -0.064 NA
ATOM      5  N   UNL     1      -0.103  -7.049  -0.151  0.00  0.00    -0.125 NA
ATOM      6  C   UNL     1      -0.314  -6.658  -3.786  0.00  0.00    +0.068 C 
ENDROOT
BRANCH   1   8
ATOM      7  N   UNL     1       0.051  -4.117  -0.126  0.00  0.00    -0.279 N 
ATOM      8  C   UNL     1      -0.062  -4.807  -1.279  0.00  0.00    +0.270 C 
ATOM      9  O   UNL     1      -0.102  -4.215  -2.340  0.00  0.00    -0.268 OA
ATOM     10  H   UNL     1       0.150  -4.591   0.715  0.00  0.00    +0.155 HD
BRANCH   7  15
ATOM     11  C   UNL     1      -0.059   1.555  -0.193  0.00  0.00    +0.044 C 
ATOM     12  C   UNL     1      -0.031   0.048  -0.175  0.00  0.00    -0.049 A 
ATOM     13  C   UNL     1       0.557  -0.643  -1.218  0.00  0.00    +0.005 A 
ATOM     14  C   UNL     1       0.586  -2.024  -1.205  0.00  0.00    +0.025 A 
ATOM     15  C   UNL     1       0.024  -2.719  -0.142  0.00  0.00    +0.052 A 
ATOM     16  C   UNL     1      -0.566  -2.021   0.905  0.00  0.00    +0.062 A 
ATOM     17  C   UNL     1      -0.587  -0.639   0.888  0.00  0.00    +0.025 A 
ATOM     18 CL   UNL     1      -1.271  -2.884   2.236  0.00  0.00    -0.082 Cl
ENDBRANCH   7  15
ENDBRANCH   1   8
BRANCH   3  19
ATOM     19  C   UNL     1      -0.395  -9.578  -2.692  0.00  0.00    +0.241 C 
BRANCH  19  20
ATOM     20  C   UNL     1       0.982 -10.069  -3.056  0.00  0.00    +0.239 C 
ATOM     21  O   UNL     1       1.962  -9.461  -2.680  0.00  0.00    -0.273 OA
ATOM     22  N   UNL     1       1.126 -11.183  -3.801  0.00  0.00    -0.284 N 
ATOM     23  H   UNL     1       0.345 -11.622  -4.173  0.00  0.00    +0.155 HD
BRANCH  22  24
ATOM     24  C   UNL     1       2.401 -11.707  -4.037  0.00  0.00    +0.034 A 
ATOM     25  C   UNL     1       2.643 -12.466  -5.176  0.00  0.00    +0.023 A 
ATOM     26  C   UNL     1       3.903 -12.981  -5.406  0.00  0.00    +0.005 A 
ATOM     27  C   UNL     1       4.924 -12.744  -4.504  0.00  0.00    -0.047 A 
ATOM     28  C   UNL     1       4.687 -11.990  -3.369  0.00  0.00    -0.046 A 
ATOM     29  C   UNL     1       3.431 -11.466  -3.137  0.00  0.00    +0.027 A 
ATOM     30  C   UNL     1       5.803 -11.734  -2.389  0.00  0.00    +0.044 C 
ATOM     31  C   UNL     1       6.298 -13.309  -4.758  0.00  0.00    +0.044 C 
ENDBRANCH  22  24
ENDBRANCH  19  20
ENDBRANCH   3  19
TORSDOF 5
