REMARK  Name = ZINC40897981
REMARK  7 active torsions:
REMARK  status: ('A' for Active; 'I' for Inactive)
REMARK    1  A    between atoms: C_1  and  C_2
REMARK    2  A    between atoms: C_5  and  C_8
REMARK    3  A    between atoms: C_10  and  C_13
REMARK    4  A    between atoms: C_16  and  N_20
REMARK    5  A    between atoms: C_24  and  C_27
REMARK    6  A    between atoms: N_29  and  C_30
REMARK    7  A    between atoms: C_30  and  C_31
REMARK                            x       y       z     vdW  Elec       q    Type
REMARK                         _______ _______ _______ _____ _____    ______ ____
ROOT
ATOM      1  C   UNL     1       0.105  -7.481   1.578  0.00  0.00    +0.025 A 
ATOM      2  C   UNL     1       0.096  -7.284   2.958  0.00  0.00    +0.013 A 
ATOM      3  C   UNL     1       0.111  -8.369   3.809  0.00  0.00    +0.027 A 
ATOM      4  C   UNL     1       0.134  -9.659   3.293  0.00  0.00    +0.065 A 
ATOM      5  C   UNL     1       0.143  -9.859   1.915  0.00  0.00    +0.145 A 
ATOM      6  C   UNL     1       0.122  -8.775   1.060  0.00  0.00    +0.052 A 
ATOM      7  F   UNL     1       0.165 -11.113   1.415  0.00  0.00    -0.204 F 
ENDROOT
BRANCH   4   8
ATOM      8  N   UNL     1       0.150 -10.755   4.156  0.00  0.00    -0.327 N 
ATOM      9  C   UNL     1       1.422 -11.319   4.628  0.00  0.00    +0.105 C 
ATOM     10  C   UNL     1       1.398 -11.376   6.159  0.00  0.00    +0.020 C 
ATOM     11  C   UNL     1       0.160 -12.150   6.617  0.00  0.00    +0.016 C 
ATOM     12  C   UNL     1      -1.101 -11.425   6.141  0.00  0.00    +0.092 C 
ATOM     13  C   UNL     1      -1.106 -11.365   4.615  0.00  0.00    +0.118 C 
BRANCH  12  14
ATOM     14  C   UNL     1      -2.321 -12.170   6.621  0.00  0.00    +0.218 C 
ATOM     15  O   UNL     1      -3.117 -12.610   5.819  0.00  0.00    -0.275 OA
ATOM     16  N   UNL     1      -2.526 -12.347   7.942  0.00  0.00    -0.306 N 
ATOM     17  H   UNL     1      -1.889 -11.995   8.583  0.00  0.00    +0.149 HD
BRANCH  16  18
ATOM     18  C   UNL     1      -3.711 -13.070   8.408  0.00  0.00    +0.199 C 
BRANCH  18  19
ATOM     19  C   UNL     1      -3.704 -13.129   9.914  0.00  0.00    +0.228 C 
ATOM     20  O   UNL     1      -2.797 -12.616  10.536  0.00  0.00    -0.274 OA
ATOM     21  N   UNL     1      -4.704 -13.751  10.569  0.00  0.00    -0.328 N 
ATOM     22  H   UNL     1      -5.428 -14.161  10.072  0.00  0.00    +0.145 HD
ATOM     23  H   UNL     1      -4.699 -13.788  11.539  0.00  0.00    +0.145 HD
ENDBRANCH  18  19
ENDBRANCH  16  18
ENDBRANCH  12  14
ENDBRANCH   4   8
BRANCH   1  26
ATOM     24  C   UNL     1       0.061  -4.251  -0.021  0.00  0.00    +0.259 A 
ATOM     25  N   UNL     1       0.071  -5.026   1.038  0.00  0.00    -0.187 NA
ATOM     26  C   UNL     1       0.089  -6.315   0.662  0.00  0.00    +0.202 A 
ATOM     27  N   UNL     1       0.089  -6.373  -0.648  0.00  0.00    -0.056 NA
ATOM     28  O   UNL     1       0.065  -5.033  -1.115  0.00  0.00    -0.332 OA
BRANCH  24  33
ATOM     29  C   UNL     1      -0.018   1.503   0.010  0.00  0.00    +0.044 C 
ATOM     30  C   UNL     1       0.002  -0.004   0.002  0.00  0.00    -0.050 A 
ATOM     31  C   UNL     1       0.006  -0.686  -1.202  0.00  0.00    +0.004 A 
ATOM     32  C   UNL     1       0.025  -2.066  -1.216  0.00  0.00    +0.013 A 
ATOM     33  C   UNL     1       0.041  -2.773  -0.013  0.00  0.00    +0.039 A 
ATOM     34  C   UNL     1       0.037  -2.079   1.198  0.00  0.00    +0.013 A 
ATOM     35  C   UNL     1       0.023  -0.699   1.198  0.00  0.00    +0.004 A 
ENDBRANCH  24  33
ENDBRANCH   1  26
TORSDOF 6
