REMARK  Name = ZINC36222684
REMARK  4 active torsions:
REMARK  status: ('A' for Active; 'I' for Inactive)
REMARK    1  A    between atoms: C_1  and  C_2
REMARK    2  A    between atoms: C_5  and  C_9
REMARK    3  A    between atoms: C_7  and  C_8
REMARK    4  A    between atoms: C_10  and  C_21
REMARK                            x       y       z     vdW  Elec       q    Type
REMARK                         _______ _______ _______ _____ _____    ______ ____
ROOT
ATOM      1  C   UNL     1       0.060  -4.255  -0.021  0.00  0.00    +0.007 A 
ATOM      2  C   UNL     1      -0.987  -4.961   0.468  0.00  0.00    -0.003 A 
ATOM      3  S   UNL     1      -0.487  -6.656   0.235  0.00  0.00    -0.073 S 
ATOM      4  C   UNL     1       1.101  -6.380  -0.507  0.00  0.00    +0.118 A 
ATOM      5  C   UNL     1       1.205  -4.980  -0.562  0.00  0.00    +0.080 A 
ATOM      6  C   UNL     1       2.411  -4.467  -1.132  0.00  0.00    +0.262 A 
ATOM      7  O   UNL     1       2.591  -3.264  -1.217  0.00  0.00    -0.267 OA
ATOM      8  N   UNL     1       3.346  -5.328  -1.573  0.00  0.00    -0.295 N 
ATOM      9  H   UNL     1       4.166  -4.983  -1.960  0.00  0.00    +0.172 HD
ATOM     10  C   UNL     1       3.163  -6.676  -1.486  0.00  0.00    +0.194 A 
ATOM     11  N   UNL     1       2.065  -7.176  -0.957  0.00  0.00    -0.209 NA
ATOM     12  N   UNL     1       4.139  -7.524  -1.947  0.00  0.00    -0.329 N 
ATOM     13  C   UNL     1      -2.267  -4.438   1.066  0.00  0.00    +0.052 C 
ATOM     14  H   UNL     1       4.953  -7.162  -2.331  0.00  0.00    +0.145 HD
ATOM     15  H   UNL     1       4.015  -8.484  -1.888  0.00  0.00    +0.145 HD
ENDROOT
BRANCH   1  20
ATOM     16  C   UNL     1      -0.018   1.503   0.010  0.00  0.00    +0.044 C 
ATOM     17  C   UNL     1       0.002  -0.004   0.002  0.00  0.00    -0.048 A 
ATOM     18  C   UNL     1       0.006  -0.686  -1.202  0.00  0.00    +0.004 A 
ATOM     19  C   UNL     1       0.024  -2.066  -1.215  0.00  0.00    +0.009 A 
ATOM     20  C   UNL     1       0.040  -2.772  -0.013  0.00  0.00    -0.016 A 
ATOM     21  C   UNL     1       0.037  -2.079   1.196  0.00  0.00    +0.012 A 
ATOM     22  C   UNL     1       0.023  -0.699   1.198  0.00  0.00    -0.047 A 
ATOM     23  C   UNL     1       0.025   0.052   2.504  0.00  0.00    +0.044 C 
ENDBRANCH   1  20
TORSDOF 1
