REMARK  Name = ZINC01057047
REMARK  4 active torsions:
REMARK  status: ('A' for Active; 'I' for Inactive)
REMARK    1  A    between atoms: C_4  and  C_7
REMARK    2  A    between atoms: C_10  and  C_12
REMARK    3  A    between atoms: N_14  and  N_15
REMARK    4  A    between atoms: C_16  and  C_17
REMARK                            x       y       z     vdW  Elec       q    Type
REMARK                         _______ _______ _______ _____ _____    ______ ____
ROOT
ATOM      1  C   UNL     1      -3.525   1.650   0.028  0.00  0.00    +0.236 C 
ATOM      2  O   UNL     1      -3.541   2.863   0.034  0.00  0.00    -0.274 OA
ATOM      3  N   UNL     1      -2.349   0.992   0.019  0.00  0.00    -0.207 N 
ATOM      4  H   UNL     1      -2.336   0.022   0.013  0.00  0.00    +0.177 HD
ENDROOT
BRANCH   1   7
ATOM      5  C   UNL     1      -6.121   1.684   0.040  0.00  0.00    +0.032 C 
ATOM      6  C   UNL     1      -5.674   0.936   1.298  0.00  0.00    +0.022 C 
ATOM      7  C   UNL     1      -4.820   0.879   0.030  0.00  0.00    +0.085 C 
BRANCH   5  11
ATOM      8  C   UNL     1      -9.441   0.092  -2.126  0.00  0.00    +0.000 A 
ATOM      9  C   UNL     1      -8.927   1.331  -2.461  0.00  0.00    +0.000 A 
ATOM     10  C   UNL     1      -7.853   1.846  -1.760  0.00  0.00    +0.004 A 
ATOM     11  C   UNL     1      -7.292   1.122  -0.724  0.00  0.00    -0.044 A 
ATOM     12  C   UNL     1      -7.803  -0.119  -0.393  0.00  0.00    +0.004 A 
ATOM     13  C   UNL     1      -8.880  -0.632  -1.091  0.00  0.00    +0.000 A 
ENDBRANCH   5  11
ENDBRANCH   1   7
BRANCH   3  14
ATOM     14  N   UNL     1      -1.145   1.709   0.017  0.00  0.00    -0.188 NA
ATOM     15  C   UNL     1      -0.013   1.076   0.008  0.00  0.00    +0.139 C 
BRANCH  15  16
ATOM     16  C   UNL     1       1.254   1.830  -0.000  0.00  0.00    +0.014 A 
ATOM     17  C   UNL     1       2.475   1.152  -0.015  0.00  0.00    +0.011 A 
ATOM     18  C   UNL     1       3.657   1.863  -0.023  0.00  0.00    +0.002 A 
ATOM     19  C   UNL     1       3.636   3.247  -0.015  0.00  0.00    +0.021 A 
ATOM     20  C   UNL     1       2.431   3.928   0.001  0.00  0.00    +0.060 A 
ATOM     21  C   UNL     1       1.239   3.228   0.002  0.00  0.00    +0.068 A 
ATOM     22 CL   UNL     1      -0.272   4.082   0.013  0.00  0.00    -0.081 Cl
ATOM     23 CL   UNL     1       2.416   5.664   0.011  0.00  0.00    -0.082 Cl
ENDBRANCH  15  16
ENDBRANCH   3  14
TORSDOF 4
