REMARK  Name = ZINC39449492
REMARK  5 active torsions:
REMARK  status: ('A' for Active; 'I' for Inactive)
REMARK    1  A    between atoms: C_1  and  C_2
REMARK    2  A    between atoms: C_2  and  O_3
REMARK    3  A    between atoms: O_3  and  N_4
REMARK    4  A    between atoms: C_17  and  C_22
REMARK    5  A    between atoms: C_27  and  O_28
REMARK                            x       y       z     vdW  Elec       q    Type
REMARK                         _______ _______ _______ _____ _____    ______ ____
ROOT
ATOM      1  N   UNL     1       0.677  -1.730   1.281  0.00  0.00    -0.138 N 
ATOM      2  C   UNL     1      -0.307  -2.469   1.925  0.00  0.00    +0.149 A 
ATOM      3  C   UNL     1      -0.224  -3.847   2.003  0.00  0.00    +0.085 A 
ATOM      4  C   UNL     1       0.914  -4.545   1.389  0.00  0.00    +0.099 A 
ATOM      5  C   UNL     1       1.899  -3.770   0.739  0.00  0.00    +0.071 A 
ATOM      6  C   UNL     1       1.742  -2.310   0.698  0.00  0.00    +0.293 A 
ATOM      7  O   UNL     1       2.578  -1.623   0.140  0.00  0.00    -0.264 OA
ATOM      8  C   UNL     1       2.989  -4.410   0.149  0.00  0.00    +0.031 A 
ATOM      9  C   UNL     1       3.054  -5.791   0.231  0.00  0.00    +0.032 A 
ATOM     10  C   UNL     1       2.047  -6.487   0.886  0.00  0.00    +0.125 A 
ATOM     11  N   UNL     1       1.026  -5.866   1.436  0.00  0.00    -0.252 NA
ATOM     12  I   UNL     1       4.660  -6.824  -0.631  0.00  0.00    -0.042 I 
ATOM     13  N   UNL     1      -1.207  -4.560   2.662  0.00  0.00    -0.333 N 
ATOM     14  C   UNL     1      -1.962  -3.885   3.729  0.00  0.00    +0.112 C 
ATOM     15  C   UNL     1      -2.519  -2.572   3.166  0.00  0.00    +0.108 C 
ATOM     16  C   UNL     1      -1.405  -1.797   2.511  0.00  0.00    +0.187 C 
ATOM     17  O   UNL     1      -1.450  -0.584   2.487  0.00  0.00    -0.290 OA
ATOM     18  H   UNL     1      -1.395  -5.482   2.427  0.00  0.00    +0.147 HD
ENDROOT
BRANCH  14  19
ATOM     19  C   UNL     1      -1.048  -3.593   4.891  0.00  0.00    +0.014 A 
ATOM     20  C   UNL     1       0.322  -3.618   4.717  0.00  0.00    +0.009 A 
ATOM     21  C   UNL     1       1.161  -3.351   5.783  0.00  0.00    +0.001 A 
ATOM     22  C   UNL     1       0.631  -3.058   7.026  0.00  0.00    +0.004 A 
ATOM     23  C   UNL     1      -0.738  -3.031   7.206  0.00  0.00    +0.046 A 
ATOM     24  C   UNL     1      -1.582  -3.293   6.136  0.00  0.00    +0.122 A 
BRANCH  24  25
ATOM     25  O   UNL     1      -2.930  -3.262   6.309  0.00  0.00    -0.506 OA
ATOM     26  H   UNL     1      -3.313  -4.112   6.568  0.00  0.00    +0.292 HD
ENDBRANCH  24  25
ENDBRANCH  14  19
BRANCH   1  27
ATOM     27  O   UNL     1       0.552  -0.321   1.231  0.00  0.00    -0.408 OA
BRANCH  27  29
ATOM     28  C   UNL     1      -0.238   1.687   0.143  0.00  0.00    +0.051 C 
ATOM     29  C   UNL     1      -0.165   0.160   0.093  0.00  0.00    +0.257 C 
ENDBRANCH  27  29
ENDBRANCH   1  27
TORSDOF 4
