REMARK  Name = ZINC39982933
REMARK  9 active torsions:
REMARK  status: ('A' for Active; 'I' for Inactive)
REMARK    1  A    between atoms: C_1  and  C_2
REMARK    2  A    between atoms: C_4  and  O_23
REMARK    3  A    between atoms: C_6  and  O_22
REMARK    4  A    between atoms: C_7  and  C_8
REMARK    5  A    between atoms: C_10  and  C_15
REMARK    6  A    between atoms: C_11  and  C_14
REMARK    7  A    between atoms: C_19  and  C_21
REMARK    8  A    between atoms: O_23  and  C_24
REMARK    9  A    between atoms: C_24  and  C_25
REMARK                            x       y       z     vdW  Elec       q    Type
REMARK                         _______ _______ _______ _____ _____    ______ ____
ROOT
ATOM      1  C   UNL     1      -0.018   1.503   0.010  0.00  0.00    +0.044 C 
ATOM      2  C   UNL     1       0.002  -0.004   0.002  0.00  0.00    -0.038 A 
ATOM      3  C   UNL     1       0.006  -0.687  -1.199  0.00  0.00    +0.049 A 
ATOM      4  C   UNL     1       0.024  -2.075  -1.210  0.00  0.00    +0.125 A 
ATOM      5  C   UNL     1       0.039  -2.776  -0.013  0.00  0.00    +0.091 A 
ATOM      6  C   UNL     1       0.036  -2.088   1.190  0.00  0.00    +0.126 A 
ATOM      7  C   UNL     1       0.023  -0.700   1.195  0.00  0.00    +0.025 A 
ENDROOT
BRANCH   7   8
ATOM      8  C   UNL     1       0.026   0.048   2.503  0.00  0.00    +0.162 C 
ATOM      9  C   UNL     1      -1.321  -0.072   3.194  0.00  0.00    +0.006 C 
ATOM     10  C   UNL     1      -1.040  -0.692   4.342  0.00  0.00    +0.062 C 
ATOM     11  N   UNL     1       0.282  -0.957   4.433  0.00  0.00    -0.183 NA
ATOM     12  N   UNL     1       0.950  -0.581   3.462  0.00  0.00    -0.297 N 
ATOM     13  C   UNL     1      -2.058  -1.047   5.394  0.00  0.00    +0.067 C 
ATOM     14  H   UNL     1       1.909  -0.683   3.349  0.00  0.00    +0.183 HD
BRANCH   9  15
ATOM     15  C   UNL     1      -2.664   0.399   2.698  0.00  0.00    +0.146 C 
ATOM     16  C   UNL     1      -3.065  -0.429   1.446  0.00  0.00    +0.107 C 
ATOM     17  S   UNL     1      -3.898   0.914   0.495  0.00  0.00    -0.108 S 
ATOM     18  C   UNL     1      -3.145   2.304   1.326  0.00  0.00    +0.066 C 
ATOM     19  N   UNL     1      -2.586   1.813   2.382  0.00  0.00    -0.273 NA
ATOM     20  C   UNL     1      -3.158   3.745   0.886  0.00  0.00    +0.073 C 
ENDBRANCH   9  15
ENDBRANCH   7   8
BRANCH   6  21
ATOM     21  O   UNL     1       0.050  -2.772   2.364  0.00  0.00    -0.506 OA
ATOM     22  H   UNL     1       0.938  -2.959   2.700  0.00  0.00    +0.292 HD
ENDBRANCH   6  21
BRANCH   4  23
ATOM     23  O   UNL     1       0.027  -2.746  -2.391  0.00  0.00    -0.487 OA
BRANCH  23  24
ATOM     24  C   UNL     1       0.046  -4.173  -2.326  0.00  0.00    +0.264 C 
BRANCH  24  25
ATOM     25  C   UNL     1       0.046  -4.740  -3.723  0.00  0.00    -0.010 A 
ATOM     26  C   UNL     1      -1.151  -5.010  -4.359  0.00  0.00    +0.010 A 
ATOM     27  C   UNL     1      -1.153  -5.529  -5.639  0.00  0.00    +0.039 A 
ATOM     28  C   UNL     1       0.046  -5.778  -6.286  0.00  0.00    +0.123 A 
ATOM     29  C   UNL     1       1.245  -5.507  -5.648  0.00  0.00    +0.039 A 
ATOM     30  C   UNL     1       1.244  -4.984  -4.369  0.00  0.00    +0.010 A 
ATOM     31  F   UNL     1       0.046  -6.286  -7.538  0.00  0.00    -0.205 F 
ENDBRANCH  24  25
ENDBRANCH  23  24
ENDBRANCH   4  23
TORSDOF 6
