REMARK  Name = ZINC20889161
REMARK  8 active torsions:
REMARK  status: ('A' for Active; 'I' for Inactive)
REMARK    1  A    between atoms: C_1  and  C_2
REMARK    2  A    between atoms: C_2  and  C_4
REMARK    3  A    between atoms: C_2  and  N_14
REMARK    4  A    between atoms: C_15  and  C_17
REMARK    5  A    between atoms: C_17  and  O_18
REMARK    6  A    between atoms: O_18  and  C_19
REMARK    7  A    between atoms: C_19  and  C_21
REMARK    8  A    between atoms: C_24  and  N_27
REMARK                            x       y       z     vdW  Elec       q    Type
REMARK                         _______ _______ _______ _____ _____    ______ ____
ROOT
ATOM      1  C   UNL     1      -6.475   5.389  -0.331  0.00  0.00    +0.328 C 
ENDROOT
BRANCH   1   3
ATOM      2  N   UNL     1      -7.487   7.638  -0.523  0.00  0.00    -0.309 N 
ATOM      3  C   UNL     1      -6.370   6.887  -0.466  0.00  0.00    +0.251 C 
ATOM      4  O   UNL     1      -5.280   7.415  -0.523  0.00  0.00    -0.272 OA
ATOM      5  H   UNL     1      -8.476   7.158  -0.471  0.00  0.00    +0.149 HD
BRANCH   2   7
ATOM      6  C   UNL     1      -7.237   9.463  -2.132  0.00  0.00    +0.028 C 
ATOM      7  C   UNL     1      -7.386   9.093  -0.654  0.00  0.00    +0.076 C 
BRANCH   7   8
ATOM      8  C   UNL     1      -8.649   9.746  -0.090  0.00  0.00    -0.010 C 
ATOM      9  C   UNL     1      -8.797   9.377   1.388  0.00  0.00    +0.012 C 
ATOM     10  C   UNL     1     -10.060  10.029   1.953  0.00  0.00    -0.010 C 
ATOM     11  C   UNL     1      -9.954  11.550   1.815  0.00  0.00    +0.007 C 
ATOM     12  C   UNL     1      -9.806  11.919   0.338  0.00  0.00    -0.010 C 
ATOM     13  C   UNL     1      -8.542  11.266  -0.227  0.00  0.00    +0.012 C 
ATOM     14  C   UNL     1     -11.027  11.421  -0.437  0.00  0.00    +0.007 C 
ATOM     15  C   UNL     1     -11.133   9.901  -0.300  0.00  0.00    -0.010 C 
ATOM     16  C   UNL     1     -11.282   9.532   1.177  0.00  0.00    +0.007 C 
ATOM     17  C   UNL     1      -9.870   9.248  -0.865  0.00  0.00    +0.012 C 
ENDBRANCH   7   8
ENDBRANCH   2   7
ENDBRANCH   1   3
BRANCH   1  18
ATOM     18  O   UNL     1      -5.143   4.812  -0.291  0.00  0.00    -0.452 OA
BRANCH  18  19
ATOM     19  C   UNL     1      -5.060   3.473  -0.171  0.00  0.00    +0.340 C 
ATOM     20  O   UNL     1      -6.072   2.805  -0.102  0.00  0.00    -0.245 OA
BRANCH  19  21
ATOM     21  C   UNL     1      -3.740   2.817  -0.124  0.00  0.00    +0.059 A 
ATOM     22  C   UNL     1      -3.652   1.428  -0.001  0.00  0.00    +0.017 A 
ATOM     23  C   UNL     1      -2.418   0.819   0.043  0.00  0.00    +0.024 A 
ATOM     24  C   UNL     1      -1.259   1.585  -0.037  0.00  0.00    +0.035 A 
ATOM     25  C   UNL     1      -1.343   2.970  -0.155  0.00  0.00    +0.024 A 
ATOM     26  C   UNL     1      -2.573   3.584  -0.204  0.00  0.00    +0.017 A 
BRANCH  24  27
ATOM     27  N   UNL     1      -0.011   0.966   0.007  0.00  0.00    -0.270 N 
ATOM     28  C   UNL     1       1.023   1.577   0.618  0.00  0.00    +0.301 C 
ATOM     29  O   UNL     1       0.889   2.701   1.062  0.00  0.00    -0.253 OA
ATOM     30  N   UNL     1       2.206   0.942   0.737  0.00  0.00    -0.313 N 
ATOM     31  H   UNL     1       0.129  -0.022  -0.456  0.00  0.00    +0.156 HD
ATOM     32  H   UNL     1       3.050   1.441   1.235  0.00  0.00    +0.146 HD
ATOM     33  H   UNL     1       2.327  -0.075   0.336  0.00  0.00    +0.146 HD
ENDBRANCH  24  27
ENDBRANCH  19  21
ENDBRANCH  18  19
ENDBRANCH   1  18
TORSDOF 7
