REMARK  Name = ZINC67236166
REMARK  8 active torsions:
REMARK  status: ('A' for Active; 'I' for Inactive)
REMARK    1  A    between atoms: C_1  and  C_2
REMARK    2  A    between atoms: C_2  and  C_3
REMARK    3  A    between atoms: C_2  and  C_4
REMARK    4  A    between atoms: C_2  and  O_5
REMARK    5  A    between atoms: O_5  and  C_6
REMARK    6  A    between atoms: C_13  and  C_15
REMARK    7  A    between atoms: N_17  and  N_18
REMARK    8  A    between atoms: N_21  and  C_22
REMARK                            x       y       z     vdW  Elec       q    Type
REMARK                         _______ _______ _______ _____ _____    ______ ____
ROOT
ATOM      1  C   UNL     1       3.340  -1.193  -0.644  0.00  0.00    +0.404 C 
ATOM      2  O   UNL     1       3.896  -0.339   0.019  0.00  0.00    -0.226 OA
ATOM      3  N   UNL     1       3.394  -1.142  -1.990  0.00  0.00    -0.256 N 
ATOM      4  C   UNL     1       2.841  -2.233  -2.803  0.00  0.00    +0.112 C 
ATOM      5  C   UNL     1       1.853  -1.643  -3.814  0.00  0.00    +0.019 C 
ATOM      6  C   UNL     1       2.550  -0.547  -4.623  0.00  0.00    +0.004 C 
ATOM      7  C   UNL     1       3.006   0.571  -3.684  0.00  0.00    +0.032 C 
ATOM      8  C   UNL     1       4.002   0.009  -2.672  0.00  0.00    +0.167 C 
ENDROOT
BRANCH   8   9
ATOM      9  C   UNL     1       4.346   1.072  -1.660  0.00  0.00    +0.250 C 
ATOM     10  O   UNL     1       3.469   1.583  -0.996  0.00  0.00    -0.272 OA
ATOM     11  N   UNL     1       5.627   1.455  -1.494  0.00  0.00    -0.232 N 
ATOM     12  H   UNL     1       6.328   1.046  -2.025  0.00  0.00    +0.173 HD
BRANCH  11  13
ATOM     13  N   UNL     1       5.947   2.443  -0.553  0.00  0.00    -0.218 N 
ATOM     14  C   UNL     1       7.228   2.826  -0.387  0.00  0.00    +0.316 C 
ATOM     15  O   UNL     1       7.505   3.683   0.429  0.00  0.00    -0.251 OA
ATOM     16  N   UNL     1       8.202   2.258  -1.125  0.00  0.00    -0.295 N 
ATOM     17  H   UNL     1       5.245   2.851  -0.022  0.00  0.00    +0.174 HD
ATOM     18  H   UNL     1       7.981   1.574  -1.776  0.00  0.00    +0.151 HD
BRANCH  16  19
ATOM     19  C   UNL     1       9.595   2.674  -0.945  0.00  0.00    +0.075 C 
ATOM     20  C   UNL     1      10.435   2.896  -2.204  0.00  0.00    +0.024 C 
ATOM     21  C   UNL     1      10.687   1.671  -1.322  0.00  0.00    +0.024 C 
ENDBRANCH  16  19
ENDBRANCH  11  13
ENDBRANCH   8   9
BRANCH   1  22
ATOM     22  O   UNL     1       2.671  -2.189  -0.035  0.00  0.00    -0.445 OA
BRANCH  22  24
ATOM     23  C   UNL     1       2.006  -0.887   1.889  0.00  0.00    +0.055 C 
ATOM     24  C   UNL     1       2.655  -2.181   1.394  0.00  0.00    +0.107 C 
ATOM     25  C   UNL     1       4.089  -2.266   1.921  0.00  0.00    +0.055 C 
ATOM     26  C   UNL     1       1.853  -3.381   1.902  0.00  0.00    +0.055 C 
ENDBRANCH  22  24
ENDBRANCH   1  22
TORSDOF 5
