REMARK  Name = ZINC65248535
REMARK  5 active torsions:
REMARK  status: ('A' for Active; 'I' for Inactive)
REMARK    1  A    between atoms: C_1  and  C_2
REMARK    2  A    between atoms: C_2  and  C_3
REMARK    3  A    between atoms: C_6  and  C_9
REMARK    4  A    between atoms: C_12  and  C_15
REMARK    5  A    between atoms: C_17  and  O_28
REMARK                            x       y       z     vdW  Elec       q    Type
REMARK                         _______ _______ _______ _____ _____    ______ ____
ROOT
ATOM      1  C   UNL     1      -8.565  -1.829  -1.130  0.00  0.00    +0.202 C 
ATOM      2  C   UNL     1      -9.872  -2.315  -0.536  0.00  0.00    +0.120 C 
ATOM      3  C   UNL     1     -10.591  -1.409   0.244  0.00  0.00    +0.035 A 
ATOM      4  C   UNL     1     -11.817  -1.784   0.833  0.00  0.00    +0.016 A 
ATOM      5  C   UNL     1     -12.503  -0.887   1.590  0.00  0.00    +0.039 A 
ATOM      6  C   UNL     1     -12.018   0.405   1.798  0.00  0.00    +0.125 A 
ATOM      7  C   UNL     1     -10.829   0.826   1.249  0.00  0.00    +0.062 A 
ATOM      8  C   UNL     1     -10.075  -0.054   0.458  0.00  0.00    +0.047 A 
ATOM      9  N   UNL     1      -8.917   0.358  -0.077  0.00  0.00    -0.284 N 
ATOM     10  C   UNL     1      -8.152  -0.406  -0.828  0.00  0.00    +0.233 C 
ATOM     11  O   UNL     1      -7.111   0.034  -1.280  0.00  0.00    -0.274 OA
ATOM     12  F   UNL     1     -12.734   1.263   2.558  0.00  0.00    -0.205 F 
ATOM     13  H   UNL     1      -8.627   1.266   0.100  0.00  0.00    +0.155 HD
ENDROOT
BRANCH   1  17
ATOM     14  C   UNL     1      -5.398  -1.997   0.043  0.00  0.00    +0.168 C 
ATOM     15  N   UNL     1      -6.077  -2.246   1.115  0.00  0.00    -0.067 NA
ATOM     16  O   UNL     1      -7.370  -2.723   0.795  0.00  0.00    -0.368 OA
ATOM     17  C   UNL     1      -7.451  -2.755  -0.638  0.00  0.00    +0.311 C 
ATOM     18  N   UNL     1      -6.140  -2.266  -1.093  0.00  0.00    -0.289 N 
ATOM     19  H   UNL     1      -5.851  -2.156  -2.012  0.00  0.00    +0.151 HD
BRANCH  14  23
ATOM     20  C   UNL     1      -1.412  -0.526   0.013  0.00  0.00    -0.048 A 
ATOM     21  C   UNL     1      -2.049  -0.765   1.217  0.00  0.00    +0.004 A 
ATOM     22  C   UNL     1      -3.343  -1.243   1.234  0.00  0.00    +0.012 A 
ATOM     23  C   UNL     1      -4.009  -1.484   0.032  0.00  0.00    +0.018 A 
ATOM     24  C   UNL     1      -3.362  -1.241  -1.179  0.00  0.00    +0.012 A 
ATOM     25  C   UNL     1      -2.069  -0.758  -1.182  0.00  0.00    +0.004 A 
BRANCH  20  27
ATOM     26  C   UNL     1      -0.019   1.526   0.010  0.00  0.00    +0.009 C 
ATOM     27  C   UNL     1       0.002  -0.004   0.002  0.00  0.00    +0.032 C 
ENDBRANCH  20  27
ENDBRANCH  14  23
ENDBRANCH   1  17
BRANCH   2  28
ATOM     28  O   UNL     1     -10.316  -3.559  -0.750  0.00  0.00    -0.509 OA
ATOM     29  H   UNL     1     -11.161  -3.754  -0.321  0.00  0.00    +0.292 HD
ENDBRANCH   2  28
TORSDOF 4
