REMARK  Name = ZINC58236959
REMARK  7 active torsions:
REMARK  status: ('A' for Active; 'I' for Inactive)
REMARK    1  A    between atoms: C_1  and  C_2
REMARK    2  A    between atoms: C_2  and  C_3
REMARK    3  A    between atoms: C_2  and  N_13
REMARK    4  A    between atoms: C_6  and  N_9
REMARK    5  A    between atoms: C_14  and  C_16
REMARK    6  A    between atoms: C_18  and  N_25
REMARK    7  A    between atoms: C_20  and  N_22
REMARK                            x       y       z     vdW  Elec       q    Type
REMARK                         _______ _______ _______ _____ _____    ______ ____
ROOT
ATOM      1  N   UNL     1       0.577  -0.661  -1.205  0.00  0.00    -0.305 N 
ATOM      2  C   UNL     1      -0.172  -0.793  -2.317  0.00  0.00    +0.245 C 
ATOM      3  O   UNL     1      -1.317  -0.384  -2.331  0.00  0.00    -0.270 OA
ATOM      4  H   UNL     1       1.490  -0.988  -1.194  0.00  0.00    +0.150 HD
ENDROOT
BRANCH   2   5
ATOM      5  C   UNL     1       0.398  -1.435  -3.521  0.00  0.00    +0.041 A 
ATOM      6  C   UNL     1       1.710  -1.911  -3.506  0.00  0.00    +0.046 A 
ATOM      7  C   UNL     1       2.236  -2.510  -4.632  0.00  0.00    +0.129 A 
ATOM      8  C   UNL     1       1.466  -2.639  -5.775  0.00  0.00    +0.065 A 
ATOM      9  C   UNL     1       0.164  -2.169  -5.796  0.00  0.00    +0.129 A 
ATOM     10  C   UNL     1      -0.376  -1.573  -4.674  0.00  0.00    +0.046 A 
BRANCH   9  11
ATOM     11  N   UNL     1      -0.652  -2.311  -7.022  0.00  0.00    +0.057 N 
ATOM     12  O   UNL     1      -0.182  -2.837  -8.004  0.00  0.00    -0.126 OA
ATOM     13  O   UNL     1      -1.789  -1.901  -7.042  0.00  0.00    -0.126 OA
ENDBRANCH   9  11
BRANCH   7  14
ATOM     14  N   UNL     1       3.627  -3.015  -4.619  0.00  0.00    +0.057 N 
ATOM     15  O   UNL     1       4.301  -2.903  -3.622  0.00  0.00    -0.126 OA
ATOM     16  O   UNL     1       4.089  -3.540  -5.605  0.00  0.00    -0.126 OA
ENDBRANCH   7  14
ENDBRANCH   2   5
BRANCH   1  18
ATOM     17  C   UNL     1       0.169   1.493  -0.121  0.00  0.00    +0.033 C 
ATOM     18  C   UNL     1       0.012  -0.025  -0.012  0.00  0.00    +0.100 C 
BRANCH  18  19
ATOM     19  C   UNL     1       0.738  -0.518   1.212  0.00  0.00    -0.027 A 
ATOM     20  C   UNL     1       2.110  -0.692   1.178  0.00  0.00    +0.007 A 
ATOM     21  C   UNL     1       2.778  -1.144   2.299  0.00  0.00    +0.023 A 
ATOM     22  C   UNL     1       2.072  -1.425   3.461  0.00  0.00    +0.035 A 
ATOM     23  C   UNL     1       0.694  -1.250   3.492  0.00  0.00    +0.023 A 
ATOM     24  C   UNL     1       0.032  -0.792   2.370  0.00  0.00    +0.007 A 
BRANCH  22  25
ATOM     25  N   UNL     1       2.746  -1.884   4.598  0.00  0.00    -0.270 N 
ATOM     26  C   UNL     1       3.998  -1.458   4.857  0.00  0.00    +0.301 C 
ATOM     27  O   UNL     1       4.506  -0.603   4.157  0.00  0.00    -0.253 OA
ATOM     28  N   UNL     1       4.688  -1.980   5.891  0.00  0.00    -0.313 N 
ATOM     29  H   UNL     1       2.312  -2.509   5.200  0.00  0.00    +0.156 HD
ATOM     30  H   UNL     1       4.282  -2.662   6.449  0.00  0.00    +0.146 HD
ATOM     31  H   UNL     1       5.589  -1.673   6.077  0.00  0.00    +0.146 HD
ENDBRANCH  22  25
ENDBRANCH  18  19
ENDBRANCH   1  18
TORSDOF 6
