REMARK  Name = ZINC58089968
REMARK  7 active torsions:
REMARK  status: ('A' for Active; 'I' for Inactive)
REMARK    1  A    between atoms: C_1  and  N_2
REMARK    2  A    between atoms: N_2  and  C_3
REMARK    3  A    between atoms: C_3  and  N_5
REMARK    4  A    between atoms: N_5  and  N_6
REMARK    5  A    between atoms: C_7  and  C_9
REMARK    6  A    between atoms: N_12  and  C_15
REMARK    7  A    between atoms: C_20  and  N_21
REMARK                            x       y       z     vdW  Elec       q    Type
REMARK                         _______ _______ _______ _____ _____    ______ ____
ROOT
ATOM      1  C   UNL     1      -0.597  -4.842   1.152  0.00  0.00    +0.079 C 
ATOM      2  C   UNL     1      -2.084  -4.492   1.239  0.00  0.00    +0.032 C 
ATOM      3  C   UNL     1      -2.715  -5.248   2.413  0.00  0.00    +0.106 C 
ATOM      4  N   UNL     1      -2.442  -6.683   2.252  0.00  0.00    -0.328 N 
ATOM      5  C   UNL     1      -1.051  -7.121   2.070  0.00  0.00    +0.106 C 
ATOM      6  C   UNL     1      -0.439  -6.344   0.900  0.00  0.00    +0.032 C 
ENDROOT
BRANCH   4   7
ATOM      7  C   UNL     1      -3.484  -7.613   2.273  0.00  0.00    +0.060 A 
ATOM      8  C   UNL     1      -4.122  -7.971   1.092  0.00  0.00    +0.025 A 
ATOM      9  C   UNL     1      -5.151  -8.890   1.117  0.00  0.00    +0.002 A 
ATOM     10  C   UNL     1      -5.548  -9.455   2.316  0.00  0.00    +0.002 A 
ATOM     11  C   UNL     1      -4.915  -9.101   3.493  0.00  0.00    +0.034 A 
ATOM     12  C   UNL     1      -3.881  -8.186   3.475  0.00  0.00    +0.147 A 
BRANCH  12  13
ATOM     13  N   UNL     1      -3.200  -7.811   4.735  0.00  0.00    +0.058 N 
ATOM     14  O   UNL     1      -3.546  -8.311   5.780  0.00  0.00    -0.126 OA
ATOM     15  O   UNL     1      -2.298  -7.007   4.719  0.00  0.00    -0.126 OA
ENDBRANCH  12  13
ENDBRANCH   4   7
BRANCH   1  17
ATOM     16  N   UNL     1       0.016  -2.726   0.027  0.00  0.00    -0.235 N 
ATOM     17  C   UNL     1       0.035  -4.074   0.020  0.00  0.00    +0.232 C 
ATOM     18  O   UNL     1       0.559  -4.668  -0.898  0.00  0.00    -0.274 OA
ATOM     19  H   UNL     1      -0.403  -2.251   0.761  0.00  0.00    +0.173 HD
BRANCH  16  20
ATOM     20  N   UNL     1       0.603  -2.012  -1.025  0.00  0.00    -0.246 N 
ATOM     21  H   UNL     1       1.023  -2.487  -1.760  0.00  0.00    +0.172 HD
BRANCH  20  22
ATOM     22  C   UNL     1       0.585  -0.664  -1.018  0.00  0.00    +0.147 C 
ATOM     23  S   UNL     1       1.302   0.208  -2.304  0.00  0.00    -0.017 S 
BRANCH  22  25
ATOM     24  C   UNL     1      -0.018   1.461   0.010  0.00  0.00    +0.127 C 
ATOM     25  N   UNL     1       0.002  -0.004   0.002  0.00  0.00    -0.329 N 
ATOM     26  H   UNL     1      -0.404  -0.499   0.731  0.00  0.00    +0.147 HD
ENDBRANCH  22  25
ENDBRANCH  20  22
ENDBRANCH  16  20
ENDBRANCH   1  17
TORSDOF 6
