REMARK  Name = ZINC49126727
REMARK  6 active torsions:
REMARK  status: ('A' for Active; 'I' for Inactive)
REMARK    1  A    between atoms: C_1  and  C_2
REMARK    2  A    between atoms: C_5  and  N_13
REMARK    3  A    between atoms: C_7  and  N_8
REMARK    4  A    between atoms: N_8  and  S_9
REMARK    5  A    between atoms: S_9  and  C_12
REMARK    6  A    between atoms: C_16  and  C_21
REMARK                            x       y       z     vdW  Elec       q    Type
REMARK                         _______ _______ _______ _____ _____    ______ ____
ROOT
ATOM      1  C   UNL     1      -0.287   1.686   0.173  0.00  0.00    +0.046 C 
ATOM      2  C   UNL     1       0.024   0.222   0.002  0.00  0.00    -0.028 A 
ATOM      3  C   UNL     1      -0.090  -0.367  -1.243  0.00  0.00    +0.007 A 
ATOM      4  C   UNL     1       0.194  -1.710  -1.404  0.00  0.00    +0.024 A 
ATOM      5  C   UNL     1       0.595  -2.472  -0.314  0.00  0.00    +0.045 A 
ATOM      6  C   UNL     1       0.711  -1.884   0.937  0.00  0.00    +0.048 A 
ATOM      7  C   UNL     1       0.430  -0.534   1.095  0.00  0.00    +0.052 A 
ENDROOT
BRANCH   5   8
ATOM      8  N   UNL     1       0.882  -3.834  -0.478  0.00  0.00    -0.220 N 
ATOM      9  C   UNL     1       0.142  -4.832   0.042  0.00  0.00    +0.245 C 
ATOM     10  O   UNL     1      -0.861  -4.726   0.715  0.00  0.00    -0.273 OA
ATOM     11  C   UNL     1       0.822  -6.116  -0.390  0.00  0.00    +0.156 C 
ATOM     12  N   UNL     1       1.976  -5.648  -1.177  0.00  0.00    -0.315 N 
ATOM     13  C   UNL     1       1.923  -4.304  -1.176  0.00  0.00    +0.144 C 
ATOM     14  S   UNL     1       3.063  -3.305  -1.973  0.00  0.00    -0.018 S 
ATOM     15  C   UNL     1       1.287  -6.915   0.829  0.00  0.00    +0.038 C 
ATOM     16  H   UNL     1       2.642  -6.201  -1.614  0.00  0.00    +0.148 HD
ENDBRANCH   5   8
BRANCH   7  17
ATOM     17  N   UNL     1       0.552   0.063   2.352  0.00  0.00    -0.221 N 
ATOM     18  H   UNL     1      -0.066   0.762   2.618  0.00  0.00    +0.173 HD
BRANCH  17  19
ATOM     19  S   UNL     1       1.750  -0.422   3.387  0.00  0.00    +0.040 S 
ATOM     20  O   UNL     1       1.634   0.444   4.507  0.00  0.00    -0.155 OA
ATOM     21  O   UNL     1       1.559  -1.823   3.531  0.00  0.00    -0.155 OA
ATOM     22  C   UNL     1       3.296  -0.091   2.498  0.00  0.00    +0.218 C 
ENDBRANCH  17  19
ENDBRANCH   7  17
TORSDOF 3
