REMARK  Name = ZINC43965421
REMARK  5 active torsions:
REMARK  status: ('A' for Active; 'I' for Inactive)
REMARK    1  A    between atoms: C_3  and  N_23
REMARK    2  A    between atoms: C_6  and  C_7
REMARK    3  A    between atoms: C_8  and  C_9
REMARK    4  A    between atoms: N_11  and  C_12
REMARK    5  A    between atoms: C_15  and  N_18
REMARK                            x       y       z     vdW  Elec       q    Type
REMARK                         _______ _______ _______ _____ _____    ______ ____
ROOT
ATOM      1  C   UNL     1       0.036  -2.817  -0.131  0.00  0.00    +0.241 C 
ATOM      2  O   UNL     1       1.077  -2.205   0.022  0.00  0.00    -0.270 OA
ATOM      3  N   UNL     1       0.060  -4.151  -0.326  0.00  0.00    -0.282 N 
ATOM      4  H   UNL     1      -0.770  -4.648  -0.382  0.00  0.00    +0.155 HD
ENDROOT
BRANCH   3   5
ATOM      5  C   UNL     1       1.284  -4.818  -0.446  0.00  0.00    +0.034 A 
ATOM      6  C   UNL     1       2.376  -4.407   0.309  0.00  0.00    +0.025 A 
ATOM      7  C   UNL     1       3.583  -5.066   0.190  0.00  0.00    +0.029 A 
ATOM      8  C   UNL     1       3.707  -6.138  -0.684  0.00  0.00    +0.067 A 
ATOM      9  C   UNL     1       2.616  -6.548  -1.438  0.00  0.00    +0.029 A 
ATOM     10  C   UNL     1       1.406  -5.894  -1.315  0.00  0.00    +0.025 A 
BRANCH   8  11
ATOM     11  N   UNL     1       4.934  -6.806  -0.804  0.00  0.00    -0.220 N 
ATOM     12  C   UNL     1       5.208  -7.852  -1.607  0.00  0.00    +0.225 A 
ATOM     13  N   UNL     1       6.461  -8.184  -1.427  0.00  0.00    -0.222 NA
ATOM     14  C   UNL     1       7.017  -7.378  -0.523  0.00  0.00    +0.245 A 
ATOM     15  N   UNL     1       6.123  -6.514  -0.116  0.00  0.00    -0.154 NA
ENDBRANCH   8  11
ENDBRANCH   3   5
BRANCH   1  17
ATOM     16  C   UNL     1      -1.263  -0.758  -0.043  0.00  0.00    +0.013 C 
ATOM     17  C   UNL     1      -1.243  -2.105  -0.104  0.00  0.00    +0.068 C 
BRANCH  16  23
ATOM     18  C   UNL     1       0.874  -0.344  -1.248  0.00  0.00    +0.010 A 
ATOM     19  C   UNL     1       2.037   0.377  -1.417  0.00  0.00    +0.033 A 
ATOM     20  C   UNL     1       2.322   1.444  -0.583  0.00  0.00    +0.126 A 
ATOM     21  C   UNL     1       1.443   1.796   0.427  0.00  0.00    +0.033 A 
ATOM     22  C   UNL     1       0.276   1.085   0.609  0.00  0.00    +0.010 A 
ATOM     23  C   UNL     1      -0.019   0.006  -0.230  0.00  0.00    -0.025 A 
BRANCH  20  24
ATOM     24  N   UNL     1       3.573   2.212  -0.771  0.00  0.00    +0.056 N 
ATOM     25  O   UNL     1       4.343   1.908  -1.652  0.00  0.00    -0.126 OA
ATOM     26  O   UNL     1       3.825   3.145  -0.044  0.00  0.00    -0.126 OA
ENDBRANCH  20  24
ENDBRANCH  16  23
ENDBRANCH   1  17
TORSDOF 5
