REMARK  Name = ZINC40784451
REMARK  6 active torsions:
REMARK  status: ('A' for Active; 'I' for Inactive)
REMARK    1  A    between atoms: C_7  and  O_11
REMARK    2  A    between atoms: O_11  and  C_12
REMARK    3  A    between atoms: C_13  and  N_29
REMARK    4  A    between atoms: C_14  and  N_18
REMARK    5  A    between atoms: N_18  and  N_19
REMARK    6  A    between atoms: C_20  and  C_22
REMARK                            x       y       z     vdW  Elec       q    Type
REMARK                         _______ _______ _______ _____ _____    ______ ____
ROOT
ATOM      1  C   UNL     1       4.672  -2.804  -0.162  0.00  0.00    +0.246 A 
ATOM      2  C   UNL     1       4.699  -4.192  -0.285  0.00  0.00    +0.129 A 
ATOM      3  C   UNL     1       5.941  -4.820  -0.404  0.00  0.00    +0.163 A 
ATOM      4  N   UNL     1       7.043  -4.074  -0.396  0.00  0.00    -0.217 NA
ATOM      5  C   UNL     1       6.972  -2.763  -0.277  0.00  0.00    +0.227 A 
ATOM      6  N   UNL     1       5.820  -2.133  -0.168  0.00  0.00    -0.199 NA
ENDROOT
BRANCH   2   7
ATOM      7  N   UNL     1       3.511  -4.939  -0.289  0.00  0.00    -0.351 N 
ATOM      8  H   UNL     1       2.655  -4.490  -0.205  0.00  0.00    +0.143 HD
ATOM      9  H   UNL     1       3.545  -5.905  -0.375  0.00  0.00    +0.143 HD
ENDBRANCH   2   7
BRANCH   3  10
ATOM     10  N   UNL     1       6.025  -6.201  -0.530  0.00  0.00    -0.246 N 
ATOM     11  H   UNL     1       5.217  -6.737  -0.535  0.00  0.00    +0.172 HD
BRANCH  10  12
ATOM     12  N   UNL     1       7.277  -6.819  -0.649  0.00  0.00    -0.231 N 
ATOM     13  C   UNL     1       7.359  -8.159  -0.770  0.00  0.00    +0.260 C 
ATOM     14  O   UNL     1       6.346  -8.831  -0.776  0.00  0.00    -0.269 OA
ATOM     15  H   UNL     1       8.085  -6.282  -0.643  0.00  0.00    +0.173 HD
BRANCH  13  16
ATOM     16  C   UNL     1       8.679  -8.810  -0.896  0.00  0.00    +0.038 A 
ATOM     17  C   UNL     1       9.844  -8.041  -0.883  0.00  0.00    +0.014 A 
ATOM     18  C   UNL     1      11.073  -8.655  -1.000  0.00  0.00    +0.021 A 
ATOM     19  C   UNL     1      11.153 -10.032  -1.131  0.00  0.00    +0.041 A 
ATOM     20  C   UNL     1      10.001 -10.800  -1.145  0.00  0.00    +0.021 A 
ATOM     21  C   UNL     1       8.766 -10.198  -1.022  0.00  0.00    +0.014 A 
ATOM     22 CL   UNL     1      12.704 -10.797  -1.278  0.00  0.00    -0.084 Cl
ENDBRANCH  13  16
ENDBRANCH  10  12
ENDBRANCH   3  10
BRANCH   1  23
ATOM     23  O   UNL     1       3.491  -2.146  -0.043  0.00  0.00    -0.434 OA
BRANCH  23  30
ATOM     24  C   UNL     1       3.580   1.483  -3.452  0.00  0.00    +0.020 A 
ATOM     25  C   UNL     1       3.591   2.148  -2.258  0.00  0.00    +0.013 A 
ATOM     26  C   UNL     1       3.571   1.388  -1.074  0.00  0.00    +0.018 A 
ATOM     27  C   UNL     1       3.580   2.001   0.190  0.00  0.00    +0.027 A 
ATOM     28  C   UNL     1       3.559   1.232   1.314  0.00  0.00    +0.019 A 
ATOM     29  C   UNL     1       3.530  -0.158   1.230  0.00  0.00    +0.049 A 
ATOM     30  C   UNL     1       3.520  -0.789   0.019  0.00  0.00    +0.156 A 
ATOM     31  C   UNL     1       3.541  -0.026  -1.167  0.00  0.00    +0.114 A 
ATOM     32  N   UNL     1       3.531  -0.614  -2.366  0.00  0.00    -0.251 NA
ATOM     33  C   UNL     1       3.550   0.091  -3.471  0.00  0.00    +0.111 A 
ATOM     34 BR   UNL     1       3.621   3.887   0.330  0.00  0.00    -0.050 Br
ENDBRANCH  23  30
ENDBRANCH   1  23
TORSDOF 6
