REMARK  Name = ZINC08123683
REMARK  10 active torsions:
REMARK  status: ('A' for Active; 'I' for Inactive)
REMARK    1  A    between atoms: C_1  and  C_2
REMARK    2  A    between atoms: C_2  and  C_3
REMARK    3  A    between atoms: C_2  and  C_4
REMARK    4  A    between atoms: C_2  and  O_5
REMARK    5  A    between atoms: O_5  and  C_6
REMARK    6  A    between atoms: N_8  and  C_9
REMARK    7  A    between atoms: C_9  and  C_10
REMARK    8  A    between atoms: C_10  and  C_11
REMARK    9  A    between atoms: N_13  and  N_14
REMARK   10  A    between atoms: C_15  and  C_17
REMARK                            x       y       z     vdW  Elec       q    Type
REMARK                         _______ _______ _______ _____ _____    ______ ____
ROOT
ATOM      1  C   UNL     1       6.013  -0.232  -4.088  0.00  0.00    +0.231 C 
ATOM      2  O   UNL     1       6.547   0.471  -3.257  0.00  0.00    -0.274 OA
ATOM      3  N   UNL     1       6.701  -0.632  -5.176  0.00  0.00    -0.234 N 
ATOM      4  H   UNL     1       6.274  -1.194  -5.841  0.00  0.00    +0.173 HD
ENDROOT
BRANCH   3   5
ATOM      5  N   UNL     1       8.034  -0.236  -5.346  0.00  0.00    -0.229 N 
ATOM      6  C   UNL     1       8.723  -0.636  -6.433  0.00  0.00    +0.276 C 
ATOM      7  O   UNL     1       8.187  -1.341  -7.267  0.00  0.00    -0.267 OA
ATOM      8  H   UNL     1       8.462   0.326  -4.680  0.00  0.00    +0.173 HD
BRANCH   6   9
ATOM      9  C   UNL     1      10.119  -0.222  -6.610  0.00  0.00    +0.104 A 
ATOM     10  C   UNL     1      10.937  -0.550  -7.670  0.00  0.00    +0.047 A 
ATOM     11  C   UNL     1      12.177   0.053  -7.434  0.00  0.00    +0.036 A 
ATOM     12  C   UNL     1      12.096   0.724  -6.260  0.00  0.00    +0.098 A 
ATOM     13  N   UNL     1      10.848   0.569  -5.752  0.00  0.00    -0.356 N 
ATOM     14  H   UNL     1      10.524   0.950  -4.921  0.00  0.00    +0.166 HD
ATOM     15 BR   UNL     1      13.697  -0.049  -8.555  0.00  0.00    -0.049 Br
ENDBRANCH   6   9
ENDBRANCH   3   5
BRANCH   1  16
ATOM     16  C   UNL     1       4.579  -0.657  -3.906  0.00  0.00    +0.116 C 
BRANCH  16  17
ATOM     17  C   UNL     1       4.035  -0.071  -2.601  0.00  0.00    +0.117 C 
BRANCH  17  20
ATOM     18  C   UNL     1       1.952  -0.085  -1.337  0.00  0.00    +0.401 C 
ATOM     19  O   UNL     1       2.488   0.619  -0.503  0.00  0.00    -0.226 OA
ATOM     20  N   UNL     1       2.641  -0.485  -2.424  0.00  0.00    -0.281 N 
ATOM     21  H   UNL     1       2.213  -1.047  -3.089  0.00  0.00    +0.152 HD
BRANCH  18  22
ATOM     22  O   UNL     1       0.671  -0.465  -1.174  0.00  0.00    -0.445 OA
BRANCH  22  24
ATOM     23  C   UNL     1      -0.019   1.526   0.010  0.00  0.00    +0.055 C 
ATOM     24  C   UNL     1       0.002  -0.004   0.002  0.00  0.00    +0.107 C 
ATOM     25  C   UNL     1       0.742  -0.511   1.242  0.00  0.00    +0.055 C 
ATOM     26  C   UNL     1      -1.433  -0.534   0.013  0.00  0.00    +0.055 C 
ENDBRANCH  22  24
ENDBRANCH  18  22
ENDBRANCH  17  20
ENDBRANCH  16  17
ENDBRANCH   1  16
TORSDOF 7
