REMARK  Name = ZINC63217418
REMARK  6 active torsions:
REMARK  status: ('A' for Active; 'I' for Inactive)
REMARK    1  A    between atoms: C_7  and  C_10
REMARK    2  A    between atoms: C_13  and  S_15
REMARK    3  A    between atoms: S_15  and  C_16
REMARK    4  A    between atoms: C_16  and  C_17
REMARK    5  A    between atoms: C_20  and  N_31
REMARK    6  A    between atoms: N_22  and  C_28
REMARK                            x       y       z     vdW  Elec       q    Type
REMARK                         _______ _______ _______ _____ _____    ______ ____
ROOT
ATOM      1  C   UNL     1      -1.588  -7.616  -0.176  0.00  0.00    +0.158 C 
ENDROOT
BRANCH   1   2
ATOM      2  C   UNL     1      -2.068  -9.039  -0.053  0.00  0.00    +0.174 C 
ATOM      3  O   UNL     1      -1.931  -9.889  -1.092  0.00  0.00    -0.291 OA
ATOM      4  C   UNL     1      -2.631  -9.461   1.090  0.00  0.00    +0.062 C 
ATOM      5  C   UNL     1      -2.813  -8.539   2.286  0.00  0.00    +0.057 C 
ATOM      6  N   UNL     1      -2.470  -9.338   3.477  0.00  0.00    -0.291 N 
ATOM      7  C   UNL     1      -2.947 -10.611   3.571  0.00  0.00    +0.328 C 
ATOM      8  O   UNL     1      -3.123 -11.152   4.791  0.00  0.00    -0.250 OA
ATOM      9  N   UNL     1      -3.240 -11.329   2.510  0.00  0.00    -0.124 NA
ATOM     10  C   UNL     1      -3.116 -10.844   1.258  0.00  0.00    +0.271 C 
ATOM     11  O   UNL     1      -3.393 -11.531   0.290  0.00  0.00    -0.268 OA
BRANCH   5  12
ATOM     12  N   UNL     1      -4.207  -8.084   2.365  0.00  0.00    +0.393 N 
ATOM     13  H   UNL     1      -4.816  -8.883   2.466  0.00  0.00    -0.087 HD
ATOM     14  H   UNL     1      -4.318  -7.474   3.161  0.00  0.00    -0.087 HD
ATOM     15  H   UNL     1      -4.446  -7.584   1.522  0.00  0.00    -0.087 HD
ENDBRANCH   5  12
BRANCH   6  16
ATOM     16  C   UNL     1      -1.632  -8.774   4.538  0.00  0.00    +0.076 C 
ATOM     17  C   UNL     1      -1.408  -7.260   4.532  0.00  0.00    +0.024 C 
ATOM     18  C   UNL     1      -0.271  -8.203   4.136  0.00  0.00    +0.024 C 
ENDBRANCH   6  16
ENDBRANCH   1   2
BRANCH   1  19
ATOM     19  S   UNL     1       0.223  -7.577  -0.075  0.00  0.00    -0.058 S 
BRANCH  19  23
ATOM     20  C   UNL     1       1.700  -3.999  -0.369  0.00  0.00    +0.248 A 
ATOM     21  N   UNL     1       0.402  -3.762  -0.469  0.00  0.00    -0.107 NA
ATOM     22  N   UNL     1      -0.239  -4.875  -0.389  0.00  0.00    -0.101 NA
ATOM     23  C   UNL     1       0.622  -5.868  -0.234  0.00  0.00    +0.278 A 
ATOM     24  O   UNL     1       1.857  -5.337  -0.223  0.00  0.00    -0.411 OA
BRANCH  20  31
ATOM     25  C   UNL     1       1.620   0.512  -0.835  0.00  0.00    +0.001 A 
ATOM     26  C   UNL     1       2.888   1.098  -0.826  0.00  0.00    +0.002 A 
ATOM     27  C   UNL     1       4.016   0.359  -0.689  0.00  0.00    +0.026 A 
ATOM     28  C   UNL     1       3.924  -1.050  -0.549  0.00  0.00    +0.043 A 
ATOM     29  N   UNL     1       4.852  -1.975  -0.405  0.00  0.00    -0.380 N 
ATOM     30  C   UNL     1       4.213  -3.291  -0.305  0.00  0.00    +0.154 C 
ATOM     31  C   UNL     1       2.725  -3.042  -0.411  0.00  0.00    +0.044 C 
ATOM     32  C   UNL     1       2.585  -1.662  -0.559  0.00  0.00    +0.008 A 
ATOM     33  C   UNL     1       1.455  -0.829  -0.706  0.00  0.00    +0.010 A 
ATOM     34  H   UNL     1       5.808  -1.811  -0.370  0.00  0.00    +0.160 HD
ENDBRANCH  20  31
ENDBRANCH  19  23
ENDBRANCH   1  19
TORSDOF 6
