REMARK  Name = ZINC00316035
REMARK  5 active torsions:
REMARK  status: ('A' for Active; 'I' for Inactive)
REMARK    1  A    between atoms: C_1  and  N_2
REMARK    2  A    between atoms: N_2  and  C_3
REMARK    3  A    between atoms: C_4  and  C_6
REMARK    4  A    between atoms: C_10  and  N_11
REMARK    5  A    between atoms: C_12  and  C_14
REMARK                            x       y       z     vdW  Elec       q    Type
REMARK                         _______ _______ _______ _____ _____    ______ ____
ROOT
ATOM      1  C   UNL     1       2.477   1.182  -0.010  0.00  0.00    +0.069 A 
ATOM      2  C   UNL     1       3.562   2.148  -0.021  0.00  0.00    -0.023 A 
ATOM      3  C   UNL     1       3.179   3.443  -0.009  0.00  0.00    -0.004 A 
ATOM      4  S   UNL     1       1.409   3.392   0.007  0.00  0.00    -0.077 S 
ATOM      5  C   UNL     1       1.179   1.675  -0.000  0.00  0.00    +0.085 A 
ATOM      6  C   UNL     1       4.068   4.648  -0.011  0.00  0.00    +0.043 C 
ATOM      7  C   UNL     1       5.492   4.199   0.350  0.00  0.00    +0.005 C 
ATOM      8  C   UNL     1       5.853   2.976  -0.497  0.00  0.00    +0.005 C 
ATOM      9  C   UNL     1       5.037   1.766  -0.039  0.00  0.00    +0.037 C 
ENDROOT
BRANCH   1  13
ATOM     10  C   UNL     1       3.137  -2.365   1.150  0.00  0.00    +0.132 C 
ATOM     11  N   UNL     1       2.872  -0.924   1.153  0.00  0.00    -0.304 N 
ATOM     12  C   UNL     1       2.747  -0.204   2.423  0.00  0.00    +0.132 C 
ATOM     13  C   UNL     1       2.742  -0.260  -0.013  0.00  0.00    +0.249 C 
ATOM     14  O   UNL     1       2.846  -0.858  -1.068  0.00  0.00    -0.270 OA
ENDBRANCH   1  13
BRANCH   5  15
ATOM     15  N   UNL     1      -0.011   0.966   0.007  0.00  0.00    -0.275 N 
ATOM     16  C   UNL     1      -1.187   1.624   0.017  0.00  0.00    +0.255 C 
ATOM     17  O   UNL     1      -1.204   2.841   0.023  0.00  0.00    -0.269 OA
ATOM     18  H   UNL     1       0.002  -0.004   0.002  0.00  0.00    +0.156 HD
BRANCH  16  19
ATOM     19  C   UNL     1      -2.446   0.874   0.018  0.00  0.00    +0.074 A 
ATOM     20  C   UNL     1      -3.748   1.351   0.027  0.00  0.00    +0.021 A 
ATOM     21  C   UNL     1      -4.755   0.419   0.026  0.00  0.00    +0.008 A 
ATOM     22  C   UNL     1      -4.437  -0.902   0.017  0.00  0.00    +0.046 A 
ATOM     23  S   UNL     1      -2.704  -0.891   0.002  0.00  0.00    -0.092 S 
ENDBRANCH  16  19
ENDBRANCH   5  15
TORSDOF 3
