REMARK  Name = ZINC50557136
REMARK  6 active torsions:
REMARK  status: ('A' for Active; 'I' for Inactive)
REMARK    1  A    between atoms: C_4  and  C_7
REMARK    2  A    between atoms: C_8  and  C_9
REMARK    3  A    between atoms: C_9  and  N_10
REMARK    4  A    between atoms: C_11  and  C_13
REMARK    5  A    between atoms: N_15  and  N_16
REMARK    6  A    between atoms: N_16  and  C_17
REMARK                            x       y       z     vdW  Elec       q    Type
REMARK                         _______ _______ _______ _____ _____    ______ ____
ROOT
ATOM      1  C   UNL     1       6.511  -5.725  -0.093  0.00  0.00    +0.315 C 
ATOM      2  O   UNL     1       5.374  -6.148  -0.084  0.00  0.00    -0.264 OA
ATOM      3  N   UNL     1       7.550  -6.585  -0.107  0.00  0.00    -0.229 N 
ATOM      4  H   UNL     1       8.459  -6.247  -0.115  0.00  0.00    +0.173 HD
ENDROOT
BRANCH   1   6
ATOM      5  N   UNL     1       5.723  -3.393  -0.072  0.00  0.00    -0.297 N 
ATOM      6  C   UNL     1       6.761  -4.252  -0.087  0.00  0.00    +0.301 C 
ATOM      7  O   UNL     1       7.898  -3.829  -0.096  0.00  0.00    -0.265 OA
ATOM      8  H   UNL     1       4.813  -3.731  -0.065  0.00  0.00    +0.150 HD
BRANCH   5   9
ATOM      9  C   UNL     1       5.967  -1.948  -0.067  0.00  0.00    +0.194 C 
BRANCH   9  11
ATOM     10  C   UNL     1       3.655  -0.662  -0.037  0.00  0.00    -0.065 C 
ATOM     11  C   UNL     1       4.681  -1.233  -0.050  0.00  0.00    -0.078 C 
BRANCH  10  15
ATOM     12  C   UNL     1      -0.017   1.379   0.010  0.00  0.00    +0.000 A 
ATOM     13  C   UNL     1       1.168   2.093   0.002  0.00  0.00    +0.001 A 
ATOM     14  C   UNL     1       2.377   1.429  -0.013  0.00  0.00    +0.017 A 
ATOM     15  C   UNL     1       2.403   0.034  -0.021  0.00  0.00    +0.025 A 
ATOM     16  C   UNL     1       1.204  -0.681  -0.013  0.00  0.00    +0.017 A 
ATOM     17  C   UNL     1       0.002  -0.004   0.002  0.00  0.00    +0.001 A 
ENDBRANCH  10  15
ENDBRANCH   9  11
ENDBRANCH   5   9
ENDBRANCH   1   6
BRANCH   3  18
ATOM     18  N   UNL     1       7.316  -7.966  -0.113  0.00  0.00    -0.263 N 
ATOM     19  H   UNL     1       6.407  -8.304  -0.105  0.00  0.00    +0.170 HD
BRANCH  18  20
ATOM     20  C   UNL     1       8.393  -8.857  -0.128  0.00  0.00    +0.063 A 
ATOM     21  C   UNL     1       9.695  -8.375  -0.133  0.00  0.00    +0.027 A 
ATOM     22  C   UNL     1      10.757  -9.258  -0.148  0.00  0.00    +0.022 A 
ATOM     23  C   UNL     1      10.526 -10.622  -0.159  0.00  0.00    +0.042 A 
ATOM     24  C   UNL     1       9.229 -11.106  -0.155  0.00  0.00    +0.042 A 
ATOM     25  C   UNL     1       8.162 -10.228  -0.133  0.00  0.00    +0.065 A 
ATOM     26 CL   UNL     1       6.537 -10.836  -0.120  0.00  0.00    -0.082 Cl
ATOM     27 CL   UNL     1      11.864 -11.728  -0.180  0.00  0.00    -0.083 Cl
ENDBRANCH  18  20
ENDBRANCH   3  18
TORSDOF 6
