REMARK  Name = ZINC44021431
REMARK  5 active torsions:
REMARK  status: ('A' for Active; 'I' for Inactive)
REMARK    1  A    between atoms: C_1  and  C_2
REMARK    2  A    between atoms: N_4  and  C_5
REMARK    3  A    between atoms: C_9  and  N_11
REMARK    4  A    between atoms: N_11  and  C_12
REMARK    5  A    between atoms: N_16  and  C_21
REMARK                            x       y       z     vdW  Elec       q    Type
REMARK                         _______ _______ _______ _____ _____    ______ ____
ROOT
ATOM      1  C   UNL     1      -0.221  -5.954  -3.649  0.00  0.00    +0.109 A 
ATOM      2  C   UNL     1      -0.201  -6.631  -4.836  0.00  0.00    +0.112 A 
ATOM      3  C   UNL     1      -0.406  -8.020  -4.833  0.00  0.00    +0.259 A 
ATOM      4  O   UNL     1      -0.392  -8.644  -5.880  0.00  0.00    -0.267 OA
ATOM      5  N   UNL     1      -0.617  -8.659  -3.666  0.00  0.00    -0.255 N 
ATOM      6  C   UNL     1      -0.634  -7.977  -2.506  0.00  0.00    +0.331 A 
ATOM      7  O   UNL     1      -0.826  -8.573  -1.464  0.00  0.00    -0.246 OA
ATOM      8  N   UNL     1      -0.434  -6.647  -2.481  0.00  0.00    -0.295 N 
ATOM      9  H   UNL     1      -0.445  -6.173  -1.635  0.00  0.00    +0.172 HD
ENDROOT
BRANCH   5  10
ATOM     10  C   UNL     1      -0.831 -10.108  -3.659  0.00  0.00    +0.054 C 
ATOM     11  C   UNL     1      -2.173 -10.423  -2.995  0.00  0.00    +0.032 C 
ATOM     12  C   UNL     1      -2.396 -11.936  -2.989  0.00  0.00    -0.008 C 
ATOM     13  C   UNL     1      -2.405 -12.457  -4.427  0.00  0.00    +0.007 C 
ATOM     14  C   UNL     1      -1.063 -12.142  -5.092  0.00  0.00    -0.008 C 
ATOM     15  C   UNL     1      -0.840 -10.628  -5.098  0.00  0.00    +0.032 C 
ATOM     16  C   UNL     1       0.065 -12.820  -4.311  0.00  0.00    +0.007 C 
ATOM     17  C   UNL     1       0.073 -12.300  -2.872  0.00  0.00    -0.008 C 
ATOM     18  C   UNL     1      -1.269 -12.615  -2.208  0.00  0.00    +0.007 C 
ATOM     19  C   UNL     1       0.296 -10.787  -2.878  0.00  0.00    +0.032 C 
ENDBRANCH   5  10
BRANCH   1  20
ATOM     20  N   UNL     1      -0.024  -4.596  -3.622  0.00  0.00    -0.301 N 
ATOM     21  H   UNL     1       0.040  -4.099  -4.452  0.00  0.00    +0.154 HD
BRANCH  20  26
ATOM     22  C   UNL     1       0.872  -3.854  -0.130  0.00  0.00    +0.035 A 
ATOM     23  C   UNL     1       0.294  -2.600   0.025  0.00  0.00    +0.023 A 
ATOM     24  C   UNL     1      -0.384  -2.015  -1.026  0.00  0.00    +0.004 A 
ATOM     25  C   UNL     1      -0.491  -2.675  -2.236  0.00  0.00    +0.023 A 
ATOM     26  C   UNL     1       0.085  -3.929  -2.398  0.00  0.00    +0.034 A 
ATOM     27  C   UNL     1       0.771  -4.517  -1.345  0.00  0.00    +0.046 A 
BRANCH  22  31
ATOM     28  C   UNL     1       3.443  -5.761   1.851  0.00  0.00    +0.109 C 
ATOM     29  C   UNL     1       2.661  -5.185   0.699  0.00  0.00    +0.214 C 
ATOM     30  O   UNL     1       3.023  -5.388  -0.441  0.00  0.00    -0.276 OA
ATOM     31  N   UNL     1       1.559  -4.446   0.935  0.00  0.00    -0.286 N 
ATOM     32  H   UNL     1       1.242  -4.324   1.844  0.00  0.00    +0.155 HD
ENDBRANCH  22  31
ENDBRANCH  20  26
ENDBRANCH   1  20
TORSDOF 4
