REMARK  Name = ZINC39674034
REMARK  9 active torsions:
REMARK  status: ('A' for Active; 'I' for Inactive)
REMARK    1  A    between atoms: C_1  and  C_2
REMARK    2  A    between atoms: C_4  and  C_12
REMARK    3  A    between atoms: C_12  and  C_13
REMARK    4  A    between atoms: C_13  and  N_14
REMARK    5  A    between atoms: C_15  and  C_17
REMARK    6  A    between atoms: C_28  and  C_30
REMARK    7  A    between atoms: C_34  and  N_36
REMARK    8  A    between atoms: N_36  and  C_37
REMARK    9  A    between atoms: N_36  and  C_38
REMARK                            x       y       z     vdW  Elec       q    Type
REMARK                         _______ _______ _______ _____ _____    ______ ____
ROOT
ATOM      1  C   UNL     1      -5.592   3.966   3.092  0.00  0.00    +0.100 C 
ATOM      2  C   UNL     1      -7.052   3.565   2.786  0.00  0.00    +0.121 C 
ATOM      3  N   UNL     1      -7.857   4.274   3.808  0.00  0.00    -0.296 N 
ATOM      4  C   UNL     1      -7.209   5.601   3.933  0.00  0.00    +0.115 C 
ATOM      5  C   UNL     1      -5.699   5.304   3.844  0.00  0.00    -0.004 C 
ATOM      6  C   UNL     1      -4.990   6.407   3.065  0.00  0.00    -0.010 C 
ATOM      7  C   UNL     1      -5.059   7.713   3.860  0.00  0.00    -0.082 C 
ATOM      8  N   UNL     1      -4.424   7.526   5.170  0.00  0.00    +0.379 N 
ATOM      9  C   UNL     1      -5.169   6.530   5.949  0.00  0.00    -0.082 C 
ATOM     10  C   UNL     1      -5.104   5.173   5.243  0.00  0.00    -0.010 C 
ATOM     11  C   UNL     1      -8.935   3.815   4.474  0.00  0.00    +0.247 C 
ATOM     12  O   UNL     1      -9.274   2.653   4.357  0.00  0.00    -0.270 OA
ATOM     13  H   UNL     1      -3.475   7.208   5.040  0.00  0.00    -0.086 HD
ATOM     14  H   UNL     1      -4.417   8.404   5.668  0.00  0.00    -0.086 HD
ENDROOT
BRANCH  11  15
ATOM     15  C   UNL     1      -9.707   4.725   5.348  0.00  0.00    +0.039 A 
ATOM     16  C   UNL     1      -9.619   6.107   5.172  0.00  0.00    +0.013 A 
ATOM     17  C   UNL     1     -10.339   6.954   5.989  0.00  0.00    +0.003 A 
ATOM     18  C   UNL     1     -11.150   6.439   6.984  0.00  0.00    +0.023 A 
ATOM     19  C   UNL     1     -11.245   5.065   7.167  0.00  0.00    +0.030 A 
ATOM     20  C   UNL     1     -10.529   4.205   6.347  0.00  0.00    +0.036 A 
BRANCH  19  21
ATOM     21  N   UNL     1     -12.065   4.549   8.174  0.00  0.00    -0.336 N 
ATOM     22  C   UNL     1     -12.825   5.457   9.036  0.00  0.00    +0.129 C 
ATOM     23  C   UNL     1     -12.165   3.100   8.367  0.00  0.00    +0.129 C 
ENDBRANCH  19  21
ENDBRANCH  11  15
BRANCH   1  25
ATOM     24  N   UNL     1      -3.493   3.897   1.786  0.00  0.00    -0.315 N 
ATOM     25  C   UNL     1      -4.817   4.145   1.812  0.00  0.00    +0.218 C 
ATOM     26  O   UNL     1      -5.386   4.512   0.805  0.00  0.00    -0.275 OA
ATOM     27  H   UNL     1      -3.038   3.604   2.591  0.00  0.00    +0.149 HD
BRANCH  24  28
ATOM     28  C   UNL     1      -2.740   4.071   0.541  0.00  0.00    +0.109 C 
BRANCH  28  29
ATOM     29  C   UNL     1      -1.269   3.726   0.782  0.00  0.00    +0.056 C 
BRANCH  29  33
ATOM     30  C   UNL     1       0.131   6.332  -0.159  0.00  0.00    +0.063 C 
ATOM     31  C   UNL     1       0.114   5.027  -0.913  0.00  0.00    +0.017 A 
ATOM     32  H   UNL     1       1.210   5.478  -2.626  0.00  0.00    +0.166 HD
ATOM     33  C   UNL     1      -0.494   3.905  -0.498  0.00  0.00    -0.018 A 
ATOM     34  C   UNL     1      -0.262   2.887  -1.525  0.00  0.00    +0.003 A 
ATOM     35  C   UNL     1      -0.632   1.548  -1.666  0.00  0.00    +0.010 A 
ATOM     36  C   UNL     1      -0.246   0.851  -2.776  0.00  0.00    +0.001 A 
ATOM     37  C   UNL     1       0.512   1.462  -3.765  0.00  0.00    +0.002 A 
ATOM     38  C   UNL     1       0.888   2.782  -3.646  0.00  0.00    +0.026 A 
ATOM     39  C   UNL     1       0.507   3.511  -2.525  0.00  0.00    +0.047 A 
ATOM     40  N   UNL     1       0.713   4.813  -2.125  0.00  0.00    -0.358 N 
ENDBRANCH  29  33
ENDBRANCH  28  29
ENDBRANCH  24  28
ENDBRANCH   1  25
TORSDOF 6
