REMARK  Name = ZINC12584212
REMARK  9 active torsions:
REMARK  status: ('A' for Active; 'I' for Inactive)
REMARK    1  A    between atoms: C_4  and  N_7
REMARK    2  A    between atoms: N_7  and  C_8
REMARK    3  A    between atoms: C_9  and  C_26
REMARK    4  A    between atoms: C_10  and  N_25
REMARK    5  A    between atoms: C_11  and  C_13
REMARK    6  A    between atoms: C_13  and  C_15
REMARK    7  A    between atoms: C_18  and  O_21
REMARK    8  A    between atoms: O_21  and  C_22
REMARK    9  A    between atoms: N_28  and  C_29
REMARK                            x       y       z     vdW  Elec       q    Type
REMARK                         _______ _______ _______ _____ _____    ______ ____
ROOT
ATOM      1  C   UNL     1      -0.076   0.082  -1.103  0.00  0.00    +0.084 A 
ATOM      2  C   UNL     1      -0.046   0.252   0.285  0.00  0.00    +0.087 A 
ATOM      3  C   UNL     1      -0.234  -0.874   1.082  0.00  0.00    +0.057 A 
ATOM      4  C   UNL     1      -0.451  -2.083   0.425  0.00  0.00    +0.082 A 
ATOM      5  S   UNL     1      -0.371  -1.614  -1.293  0.00  0.00    -0.068 S 
ENDROOT
BRANCH   2   6
ATOM      6  C   UNL     1       0.184   1.571   0.881  0.00  0.00    +0.252 C 
ATOM      7  O   UNL     1      -0.759   2.301   1.125  0.00  0.00    -0.270 OA
ATOM      8  N   UNL     1       1.440   1.977   1.154  0.00  0.00    -0.281 N 
ATOM      9  H   UNL     1       2.185   1.371   1.023  0.00  0.00    +0.155 HD
BRANCH   8  10
ATOM     10  C   UNL     1       1.667   3.275   1.627  0.00  0.00    +0.034 A 
ATOM     11  C   UNL     1       0.831   4.313   1.240  0.00  0.00    +0.025 A 
ATOM     12  C   UNL     1       1.054   5.591   1.713  0.00  0.00    +0.022 A 
ATOM     13  C   UNL     1       2.119   5.840   2.562  0.00  0.00    +0.041 A 
ATOM     14  C   UNL     1       2.958   4.808   2.944  0.00  0.00    +0.022 A 
ATOM     15  C   UNL     1       2.735   3.527   2.479  0.00  0.00    +0.025 A 
ATOM     16 CL   UNL     1       2.402   7.449   3.148  0.00  0.00    -0.084 Cl
ENDBRANCH   8  10
ENDBRANCH   2   6
BRANCH   3  17
ATOM     17  N   UNL     1      -0.213  -0.794   2.465  0.00  0.00    -0.356 N 
ATOM     18  H   UNL     1      -0.063   0.060   2.899  0.00  0.00    +0.142 HD
ATOM     19  H   UNL     1      -0.347  -1.593   2.999  0.00  0.00    +0.142 HD
ENDBRANCH   3  17
BRANCH   1  20
ATOM     20  N   UNL     1       0.088   1.034  -2.082  0.00  0.00    -0.308 N 
ATOM     21  H   UNL     1       0.225   1.962  -1.838  0.00  0.00    +0.153 HD
BRANCH  20  25
ATOM     22  C   UNL     1       0.005  -0.072  -6.096  0.00  0.00    +0.000 A 
ATOM     23  C   UNL     1      -0.535   1.139  -5.703  0.00  0.00    +0.002 A 
ATOM     24  C   UNL     1      -0.509   1.508  -4.373  0.00  0.00    +0.023 A 
ATOM     25  C   UNL     1       0.060   0.662  -3.429  0.00  0.00    +0.032 A 
ATOM     26  C   UNL     1       0.607  -0.551  -3.829  0.00  0.00    +0.023 A 
ATOM     27  C   UNL     1       0.573  -0.916  -5.160  0.00  0.00    +0.002 A 
ENDBRANCH  20  25
ENDBRANCH   1  20
BRANCH   4  28
ATOM     28  C   UNL     1      -0.672  -3.359   0.980  0.00  0.00    +0.202 C 
ATOM     29  O   UNL     1      -0.592  -3.521   2.186  0.00  0.00    -0.286 OA
BRANCH  28  30
ATOM     30  C   UNL     1      -1.001  -4.501   0.101  0.00  0.00    +0.023 A 
ATOM     31  C   UNL     1      -1.579  -4.276  -1.151  0.00  0.00    +0.015 A 
ATOM     32  C   UNL     1      -1.880  -5.343  -1.969  0.00  0.00    +0.046 A 
ATOM     33  C   UNL     1      -1.619  -6.641  -1.547  0.00  0.00    +0.127 A 
ATOM     34  C   UNL     1      -1.049  -6.868  -0.300  0.00  0.00    +0.046 A 
ATOM     35  C   UNL     1      -0.740  -5.806   0.522  0.00  0.00    +0.015 A 
BRANCH  33  36
ATOM     36  O   UNL     1      -1.921  -7.689  -2.355  0.00  0.00    -0.434 OA
BRANCH  36  37
ATOM     37  C   UNL     1      -2.505  -7.384  -3.623  0.00  0.00    +0.541 C 
ATOM     38  F   UNL     1      -3.710  -6.699  -3.429  0.00  0.00    -0.166 F 
ATOM     39  F   UNL     1      -1.627  -6.582  -4.360  0.00  0.00    -0.166 F 
ENDBRANCH  36  37
ENDBRANCH  33  36
ENDBRANCH  28  30
ENDBRANCH   4  28
TORSDOF 9
