REMARK  Name = ZINC39518493
REMARK  9 active torsions:
REMARK  status: ('A' for Active; 'I' for Inactive)
REMARK    1  A    between atoms: C_1  and  C_2
REMARK    2  A    between atoms: C_2  and  C_4
REMARK    3  A    between atoms: C_2  and  N_7
REMARK    4  A    between atoms: C_4  and  C_5
REMARK    5  A    between atoms: C_4  and  C_6
REMARK    6  A    between atoms: C_12  and  C_15
REMARK    7  A    between atoms: C_19  and  O_21
REMARK    8  A    between atoms: O_21  and  C_22
REMARK    9  A    between atoms: C_22  and  C_23
REMARK                            x       y       z     vdW  Elec       q    Type
REMARK                         _______ _______ _______ _____ _____    ______ ____
ROOT
ATOM      1  N   UNL     1      -1.372  -0.511   0.012  0.00  0.00    -0.229 N 
ATOM      2  C   UNL     1      -2.014  -1.365  -0.991  0.00  0.00    +0.212 C 
ATOM      3  C   UNL     1      -3.025  -2.118  -0.127  0.00  0.00    +0.094 C 
ATOM      4  N   UNL     1      -3.098  -3.330  -0.551  0.00  0.00    -0.260 NA
ATOM      5  C   UNL     1      -2.132  -3.551  -1.640  0.00  0.00    +0.205 C 
ATOM      6  N   UNL     1      -1.151  -2.414  -1.550  0.00  0.00    -0.267 NA
ATOM      7  C   UNL     1      -3.355  -1.122   0.894  0.00  0.00    +0.156 C 
ATOM      8  N   UNL     1      -2.359  -0.288   0.992  0.00  0.00    -0.189 NA
ATOM      9  H   UNL     1      -0.803  -2.149  -2.460  0.00  0.00    +0.126 HD
ENDROOT
BRANCH   5  10
ATOM     10  C   UNL     1      -1.431  -4.872  -1.456  0.00  0.00    -0.005 A 
ATOM     11  C   UNL     1      -0.124  -5.026  -1.881  0.00  0.00    +0.007 A 
ATOM     12  C   UNL     1       0.522  -6.237  -1.714  0.00  0.00    +0.004 A 
ATOM     13  C   UNL     1      -0.138  -7.297  -1.122  0.00  0.00    +0.045 A 
ATOM     14  C   UNL     1      -1.448  -7.146  -0.695  0.00  0.00    +0.122 A 
ATOM     15  C   UNL     1      -2.092  -5.927  -0.858  0.00  0.00    +0.052 A 
BRANCH  14  16
ATOM     16  O   UNL     1      -2.099  -8.187  -0.113  0.00  0.00    -0.483 OA
BRANCH  16  17
ATOM     17  C   UNL     1      -1.372  -9.409   0.028  0.00  0.00    +0.324 C 
BRANCH  17  18
ATOM     18  C   UNL     1      -2.249 -10.441   0.690  0.00  0.00    +0.248 C 
ATOM     19  O   UNL     1      -3.384 -10.158   1.009  0.00  0.00    -0.272 OA
ATOM     20  N   UNL     1      -1.771 -11.679   0.927  0.00  0.00    -0.327 N 
ATOM     21  H   UNL     1      -0.863 -11.905   0.671  0.00  0.00    +0.145 HD
ATOM     22  H   UNL     1      -2.335 -12.343   1.352  0.00  0.00    +0.145 HD
ENDBRANCH  17  18
ENDBRANCH  16  17
ENDBRANCH  14  16
ENDBRANCH   5  10
BRANCH   1  24
ATOM     23  C   UNL     1      -0.019   1.526   0.010  0.00  0.00    +0.030 C 
ATOM     24  C   UNL     1       0.002  -0.004   0.002  0.00  0.00    +0.094 C 
BRANCH  24  25
ATOM     25  C   UNL     1       0.742  -0.511   1.242  0.00  0.00    +0.005 C 
ATOM     26  C   UNL     1       0.763  -2.041   1.233  0.00  0.00    +0.009 C 
ATOM     27  C   UNL     1       2.178   0.019   1.231  0.00  0.00    +0.009 C 
ENDBRANCH  24  25
ENDBRANCH   1  24
TORSDOF 6
