REMARK  Name = ZINC38050074
REMARK  6 active torsions:
REMARK  status: ('A' for Active; 'I' for Inactive)
REMARK    1  A    between atoms: C_1  and  C_2
REMARK    2  A    between atoms: C_3  and  N_21
REMARK    3  A    between atoms: C_7  and  S_8
REMARK    4  A    between atoms: S_8  and  N_11
REMARK    5  A    between atoms: N_11  and  C_12
REMARK    6  A    between atoms: C_18  and  N_20
REMARK                            x       y       z     vdW  Elec       q    Type
REMARK                         _______ _______ _______ _____ _____    ______ ____
ROOT
ATOM      1  S   UNL     1      -0.229   0.263   2.867  0.00  0.00    +0.059 S 
ATOM      2  O   UNL     1      -1.368   1.103   2.737  0.00  0.00    -0.153 OA
ATOM      3  O   UNL     1      -0.070  -0.642   3.950  0.00  0.00    -0.153 OA
ENDROOT
BRANCH   1  10
ATOM      4  C   UNL     1       1.948  -1.752   2.279  0.00  0.00    +0.048 C 
ATOM      5  C   UNL     1       0.895  -1.593   1.212  0.00  0.00    +0.006 A 
ATOM      6  C   UNL     1       0.962  -2.350   0.057  0.00  0.00    +0.131 A 
ATOM      7  C   UNL     1      -0.003  -2.204  -0.921  0.00  0.00    +0.033 A 
ATOM      8  C   UNL     1      -1.036  -1.303  -0.744  0.00  0.00    +0.004 A 
ATOM      9  C   UNL     1      -1.104  -0.547   0.411  0.00  0.00    +0.029 A 
ATOM     10  C   UNL     1      -0.140  -0.696   1.391  0.00  0.00    +0.110 A 
BRANCH   6  11
ATOM     11  N   UNL     1       2.068  -3.315  -0.133  0.00  0.00    +0.057 N 
ATOM     12  O   UNL     1       2.195  -3.889  -1.189  0.00  0.00    -0.126 OA
ATOM     13  O   UNL     1       2.845  -3.530   0.769  0.00  0.00    -0.126 OA
ENDBRANCH   6  11
ENDBRANCH   1  10
BRANCH   1  14
ATOM     14  N   UNL     1       1.094   1.259   2.885  0.00  0.00    -0.188 NA
ATOM     15  H   UNL     1       1.774   1.149   3.567  0.00  0.00    +0.148 HD
BRANCH  14  16
ATOM     16  C   UNL     1       1.236   2.306   1.869  0.00  0.00    +0.062 C 
ATOM     17  C   UNL     1       0.700   3.628   2.422  0.00  0.00    +0.019 C 
ATOM     18  C   UNL     1       0.849   4.721   1.362  0.00  0.00    +0.001 C 
ATOM     19  C   UNL     1       2.327   4.882   0.999  0.00  0.00    -0.001 C 
ATOM     20  C   UNL     1       2.863   3.560   0.447  0.00  0.00    -0.015 C 
ATOM     21  C   UNL     1       2.714   2.466   1.507  0.00  0.00    -0.056 C 
BRANCH  21  22
ATOM     22  N   UNL     1       3.229   1.197   0.977  0.00  0.00    +0.381 N 
ATOM     23  H   UNL     1       2.706   0.940   0.152  0.00  0.00    -0.090 HD
ATOM     24  H   UNL     1       4.203   1.303   0.737  0.00  0.00    -0.090 HD
ATOM     25  H   UNL     1       3.131   0.476   1.676  0.00  0.00    -0.090 HD
ENDBRANCH  21  22
ENDBRANCH  14  16
ENDBRANCH   1  14
TORSDOF 5
