REMARK  Name = ZINC03633179
REMARK  9 active torsions:
REMARK  status: ('A' for Active; 'I' for Inactive)
REMARK    1  A    between atoms: C_1  and  C_2
REMARK    2  A    between atoms: C_4  and  C_33
REMARK    3  A    between atoms: C_5  and  C_9
REMARK    4  A    between atoms: C_6  and  C_8
REMARK    5  A    between atoms: N_10  and  N_11
REMARK    6  A    between atoms: C_12  and  C_14
REMARK    7  A    between atoms: C_15  and  C_25
REMARK    8  A    between atoms: C_25  and  N_26
REMARK    9  A    between atoms: C_29  and  C_32
REMARK                            x       y       z     vdW  Elec       q    Type
REMARK                         _______ _______ _______ _____ _____    ______ ____
ROOT
ATOM      1  C   UNL     1       1.430  -8.072   2.895  0.00  0.00    +0.170 A 
ATOM      2  C   UNL     1       1.577  -8.755   4.069  0.00  0.00    +0.063 A 
ATOM      3  N   UNL     1       1.840 -10.040   3.743  0.00  0.00    -0.194 N 
ATOM      4  N   UNL     1       1.845 -10.109   2.343  0.00  0.00    -0.058 NA
ATOM      5  N   UNL     1       1.596  -8.935   1.877  0.00  0.00    -0.124 NA
ATOM      6  C   UNL     1       2.063 -11.098   4.632  0.00  0.00    +0.240 A 
ATOM      7  C   UNL     1       2.352 -12.486   4.258  0.00  0.00    +0.206 A 
ATOM      8  N   UNL     1       2.502 -13.182   5.351  0.00  0.00    -0.032 NA
ATOM      9  O   UNL     1       2.322 -12.307   6.451  0.00  0.00    -0.239 OA
ATOM     10  N   UNL     1       2.055 -11.016   5.932  0.00  0.00    -0.027 NA
ATOM     11  N   UNL     1       2.450 -12.976   2.961  0.00  0.00    -0.337 N 
ATOM     12  H   UNL     1       2.322 -12.380   2.206  0.00  0.00    +0.144 HD
ATOM     13  H   UNL     1       2.646 -13.914   2.811  0.00  0.00    +0.144 HD
ENDROOT
BRANCH   1  15
ATOM     14  N   UNL     1       1.005  -6.079   1.544  0.00  0.00    -0.202 N 
ATOM     15  C   UNL     1       1.132  -6.634   2.766  0.00  0.00    +0.285 C 
ATOM     16  O   UNL     1       1.002  -5.948   3.762  0.00  0.00    -0.267 OA
ATOM     17  H   UNL     1       1.109  -6.626   0.750  0.00  0.00    +0.178 HD
BRANCH  14  19
ATOM     18  C   UNL     1       0.600  -4.178   0.245  0.00  0.00    +0.138 C 
ATOM     19  N   UNL     1       0.722  -4.712   1.422  0.00  0.00    -0.187 NA
BRANCH  18  24
ATOM     20  C   UNL     1      -0.562   1.432  -0.258  0.00  0.00    +0.044 C 
ATOM     21  C   UNL     1      -0.257  -0.038  -0.126  0.00  0.00    -0.050 A 
ATOM     22  C   UNL     1       0.008  -0.790  -1.257  0.00  0.00    +0.007 A 
ATOM     23  C   UNL     1       0.287  -2.136  -1.143  0.00  0.00    -0.041 A 
ATOM     24  C   UNL     1       0.302  -2.739   0.116  0.00  0.00    +0.000 A 
ATOM     25  C   UNL     1       0.033  -1.974   1.253  0.00  0.00    -0.041 A 
ATOM     26  C   UNL     1      -0.239  -0.627   1.125  0.00  0.00    +0.007 A 
ATOM     27  C   UNL     1       0.046  -2.615   2.617  0.00  0.00    +0.044 C 
ATOM     28  C   UNL     1       0.575  -2.954  -2.376  0.00  0.00    +0.044 C 
ENDBRANCH  18  24
ENDBRANCH  14  19
ENDBRANCH   1  15
BRANCH   2  29
ATOM     29  C   UNL     1       1.469  -8.185   5.460  0.00  0.00    -0.020 C 
BRANCH  29  30
ATOM     30  N   UNL     1       2.790  -7.720   5.903  0.00  0.00    +0.383 N 
ATOM     31  C   UNL     1       3.227  -6.608   5.051  0.00  0.00    -0.078 C 
ATOM     32  C   UNL     1       4.637  -6.173   5.457  0.00  0.00    -0.016 C 
ATOM     33  C   UNL     1       4.625  -5.723   6.920  0.00  0.00    -0.018 C 
ATOM     34  C   UNL     1       4.098  -6.867   7.791  0.00  0.00    -0.016 C 
ATOM     35  C   UNL     1       2.708  -7.276   7.300  0.00  0.00    -0.078 C 
ATOM     36  C   UNL     1       6.047  -5.362   7.356  0.00  0.00    +0.007 C 
ATOM     37  H   UNL     1       3.454  -8.477   5.831  0.00  0.00    -0.081 HD
ENDBRANCH  29  30
ENDBRANCH   2  29
TORSDOF 5
