REMARK  Name = ZINC02555081
REMARK  10 active torsions:
REMARK  status: ('A' for Active; 'I' for Inactive)
REMARK    1  A    between atoms: C_1  and  C_2
REMARK    2  A    between atoms: N_4  and  C_5
REMARK    3  A    between atoms: C_5  and  S_6
REMARK    4  A    between atoms: S_6  and  C_7
REMARK    5  A    between atoms: C_7  and  C_8
REMARK    6  A    between atoms: C_8  and  C_10
REMARK    7  A    between atoms: C_8  and  N_12
REMARK    8  A    between atoms: C_13  and  O_15
REMARK    9  A    between atoms: O_15  and  C_16
REMARK   10  A    between atoms: C_16  and  C_17
REMARK                            x       y       z     vdW  Elec       q    Type
REMARK                         _______ _______ _______ _____ _____    ______ ____
ROOT
ATOM      1  N   UNK A   1      -3.849   6.505  -2.143  0.00  0.00    -0.267 N 
ATOM      2  C   UNK A   0      -2.501   6.498  -2.159  0.00  0.00    +0.401 C 
ATOM      3  O   UNK A   0      -1.902   6.982  -3.099  0.00  0.00    -0.226 OA
ATOM      4  H   UNK A   1      -4.327   6.118  -1.392  0.00  0.00    +0.153 HD
ENDROOT
BRANCH   1   5
ATOM      5  C   UNK A   1      -4.592   7.097  -3.258  0.00  0.00    +0.199 C 
BRANCH   5   6
ATOM      6  C   UNK A   1      -4.754   6.074  -4.352  0.00  0.00    +0.377 C 
ATOM      7  O   UNK A   1      -4.296   4.964  -4.215  0.00  0.00    -0.244 OA
ATOM      8  O   UNK A   1      -5.407   6.395  -5.480  0.00  0.00    -0.244 OA
ENDBRANCH   5   6
BRANCH   5   9
ATOM      9  C   UNK A   1      -5.971   7.546  -2.771  0.00  0.00    +0.104 C 
BRANCH   9  10
ATOM     10  S   UNK A   1      -5.779   8.882  -1.560  0.00  0.00    -0.139 S 
BRANCH  10  11
ATOM     11  C   UNK A   1      -7.481   9.295  -1.088  0.00  0.00    +0.174 C 
BRANCH  11  15
ATOM     12  C   UNK A   1      -8.482   7.345   2.050  0.00  0.00    +0.109 C 
ATOM     13  C   UNK A   1      -7.940   8.414   1.137  0.00  0.00    +0.211 C 
ATOM     14  O   UNK A   1      -7.444   9.417   1.605  0.00  0.00    -0.276 OA
ATOM     15  N   UNK A   1      -8.007   8.256  -0.200  0.00  0.00    -0.307 N 
ATOM     16  H   UNK A   1      -8.404   7.454  -0.574  0.00  0.00    +0.149 HD
ENDBRANCH  11  15
ENDBRANCH  10  11
ENDBRANCH   9  10
ENDBRANCH   5   9
ENDBRANCH   1   5
BRANCH   2  17
ATOM     17  O   UNK A   0      -1.818   5.954  -1.134  0.00  0.00    -0.449 OA
BRANCH  17  18
ATOM     18  C   UNK A   0      -0.369   5.982  -1.218  0.00  0.00    +0.246 C 
BRANCH  18  19
ATOM     19  C   UNK A   0       0.227   5.323   0.027  0.00  0.00    +0.088 C 
ATOM     20  C   UNK A   0      -0.064   3.843   0.022  0.00  0.00    -0.029 A 
ATOM     21  C   UNK A   0      -1.245   3.132   0.029  0.00  0.00    +0.005 A 
ATOM     22  C   UNK A   0      -1.221   1.748   0.017  0.00  0.00    +0.000 A 
ATOM     23  C   UNK A   0      -0.013   1.076   0.008  0.00  0.00    +0.001 A 
ATOM     24  C   UNK A   0       1.174   1.779   0.000  0.00  0.00    +0.009 A 
ATOM     25  C   UNK A   0       1.157   3.175   0.008  0.00  0.00    -0.014 A 
ATOM     26  C   UNK A   0       2.262   4.166   0.002  0.00  0.00    -0.014 A 
ATOM     27  C   UNK A   0       1.731   5.452   0.014  0.00  0.00    -0.029 A 
ATOM     28  C   UNK A   0       2.566   6.550   0.011  0.00  0.00    +0.005 A 
ATOM     29  C   UNK A   0       3.938   6.376  -0.003  0.00  0.00    +0.000 A 
ATOM     30  C   UNK A   0       4.476   5.101  -0.015  0.00  0.00    +0.001 A 
ATOM     31  C   UNK A   0       3.648   3.998  -0.012  0.00  0.00    +0.009 A 
ENDBRANCH  18  19
ENDBRANCH  17  18
ENDBRANCH   2  17
TORSDOF 9
