REMARK  Name = ZINC33271126
REMARK  6 active torsions:
REMARK  status: ('A' for Active; 'I' for Inactive)
REMARK    1  A    between atoms: C_1  and  C_2
REMARK    2  A    between atoms: C_2  and  C_3
REMARK    3  A    between atoms: C_17  and  C_20
REMARK    4  A    between atoms: C_25  and  O_26
REMARK    5  A    between atoms: O_26  and  C_27
REMARK    6  A    between atoms: C_27  and  C_28
REMARK                            x       y       z     vdW  Elec       q    Type
REMARK                         _______ _______ _______ _____ _____    ______ ____
ROOT
ATOM      1  C   UNL     1      -0.607   4.504  -0.278  0.00  0.00    -0.047 A 
ATOM      2  C   UNL     1      -0.999   3.177  -0.263  0.00  0.00    +0.005 A 
ATOM      3  C   UNL     1      -0.049   2.179  -0.190  0.00  0.00    +0.023 A 
ATOM      4  C   UNL     1       1.302   2.506  -0.141  0.00  0.00    +0.033 A 
ATOM      5  C   UNL     1       1.693   3.835  -0.157  0.00  0.00    +0.003 A 
ATOM      6  C   UNL     1       0.734   4.831  -0.228  0.00  0.00    +0.011 A 
ATOM      7  C   UNL     1       3.149   4.226  -0.093  0.00  0.00    +0.155 C 
ATOM      8  C   UNL     1       4.019   3.062  -0.560  0.00  0.00    +0.047 C 
ATOM      9  C   UNL     1       5.498   3.388  -0.362  0.00  0.00    +0.011 C 
ATOM     10  C   UNL     1       5.746   3.771   1.100  0.00  0.00    +0.028 C 
ATOM     11  C   UNL     1       4.833   4.946   1.464  0.00  0.00    +0.160 C 
ATOM     12  O   UNL     1       3.473   4.564   1.258  0.00  0.00    -0.372 OA
ATOM     13  C   UNL     1       3.645   1.806   0.233  0.00  0.00    +0.110 C 
ATOM     14  N   UNL     1       2.249   1.476  -0.087  0.00  0.00    -0.336 N 
ATOM     15  H   UNL     1       1.960   0.432  -0.278  0.00  0.00    +0.147 HD
ENDROOT
BRANCH  13  16
ATOM     16  C   UNL     1       3.782   2.075   1.709  0.00  0.00    +0.015 A 
ATOM     17  C   UNL     1       2.864   2.882   2.353  0.00  0.00    +0.009 A 
ATOM     18  C   UNL     1       2.989   3.129   3.708  0.00  0.00    +0.001 A 
ATOM     19  C   UNL     1       4.033   2.569   4.421  0.00  0.00    +0.004 A 
ATOM     20  C   UNL     1       4.954   1.762   3.782  0.00  0.00    +0.046 A 
ATOM     21  C   UNL     1       4.827   1.508   2.424  0.00  0.00    +0.125 A 
BRANCH  21  22
ATOM     22  O   UNL     1       5.728   0.710   1.794  0.00  0.00    -0.492 OA
BRANCH  22  23
ATOM     23  C   UNL     1       6.778   0.160   2.592  0.00  0.00    +0.225 C 
ATOM     24  C   UNL     1       7.686  -0.704   1.716  0.00  0.00    +0.048 C 
ENDBRANCH  22  23
ENDBRANCH  21  22
ENDBRANCH  13  16
BRANCH   1  26
ATOM     25  C   UNL     1      -1.932   5.921  -1.822  0.00  0.00    +0.009 C 
ATOM     26  C   UNL     1      -1.645   5.593  -0.355  0.00  0.00    +0.032 C 
ENDBRANCH   1  26
TORSDOF 4
