REMARK  Name = ZINC00801971
REMARK  4 active torsions:
REMARK  status: ('A' for Active; 'I' for Inactive)
REMARK    1  A    between atoms: C_9  and  C_12
REMARK    2  A    between atoms: N_13  and  N_14
REMARK    3  A    between atoms: C_15  and  C_17
REMARK    4  A    between atoms: C_21  and  N_23
REMARK                            x       y       z     vdW  Elec       q    Type
REMARK                         _______ _______ _______ _____ _____    ______ ____
ROOT
ATOM      1  C   UNL     1       2.775  -4.164   0.577  0.00  0.00    +0.145 C 
ATOM      2  N   UNL     1       3.952  -4.655   0.820  0.00  0.00    -0.187 NA
ENDROOT
BRANCH   1  11
ATOM      3  C   UNL     1      -0.017   1.374   0.010  0.00  0.00    +0.001 A 
ATOM      4  C   UNL     1       1.173   2.088   0.002  0.00  0.00    +0.004 A 
ATOM      5  C   UNL     1       2.387   1.436  -0.016  0.00  0.00    +0.047 A 
ATOM      6  C   UNL     1       2.430   0.046  -0.025  0.00  0.00    +0.138 A 
ATOM      7  C   UNL     1       1.224  -0.674  -0.013  0.00  0.00    +0.065 A 
ATOM      8  C   UNL     1       0.002  -0.004   0.002  0.00  0.00    +0.015 A 
ATOM      9  C   UNL     1       1.295  -2.149  -0.007  0.00  0.00    +0.201 A 
ATOM     10  O   UNL     1       0.317  -2.844  -0.221  0.00  0.00    -0.286 OA
ATOM     11  C   UNL     1       2.624  -2.731   0.271  0.00  0.00    +0.077 A 
ATOM     12  C   UNL     1       3.707  -1.901   0.237  0.00  0.00    +0.209 A 
ATOM     13  O   UNL     1       3.611  -0.603  -0.050  0.00  0.00    -0.462 OA
ENDBRANCH   1  11
BRANCH   2  14
ATOM     14  N   UNL     1       4.096  -6.018   1.111  0.00  0.00    -0.203 N 
ATOM     15  C   UNL     1       5.319  -6.527   1.362  0.00  0.00    +0.263 C 
ATOM     16  O   UNL     1       6.296  -5.805   1.336  0.00  0.00    -0.268 OA
ATOM     17  H   UNL     1       3.317  -6.594   1.131  0.00  0.00    +0.178 HD
BRANCH  15  18
ATOM     18  C   UNL     1       5.471  -7.965   1.669  0.00  0.00    +0.041 A 
ATOM     19  C   UNL     1       4.351  -8.799   1.694  0.00  0.00    +0.013 A 
ATOM     20  C   UNL     1       4.500 -10.140   1.981  0.00  0.00    +0.003 A 
ATOM     21  C   UNL     1       5.755 -10.659   2.243  0.00  0.00    +0.033 A 
ATOM     22  C   UNL     1       6.869  -9.838   2.220  0.00  0.00    +0.127 A 
ATOM     23  C   UNL     1       6.735  -8.496   1.930  0.00  0.00    +0.045 A 
BRANCH  22  24
ATOM     24  N   UNL     1       8.208 -10.403   2.503  0.00  0.00    +0.056 N 
ATOM     25  O   UNL     1       8.328 -11.579   2.753  0.00  0.00    -0.126 OA
ATOM     26  O   UNL     1       9.182  -9.687   2.483  0.00  0.00    -0.126 OA
ENDBRANCH  22  24
ENDBRANCH  15  18
ENDBRANCH   2  14
TORSDOF 4
