REMARK  Name = ZINC25500688
REMARK  7 active torsions:
REMARK  status: ('A' for Active; 'I' for Inactive)
REMARK    1  A    between atoms: C_1  and  C_2
REMARK    2  A    between atoms: C_2  and  C_3
REMARK    3  A    between atoms: C_2  and  C_4
REMARK    4  A    between atoms: C_4  and  C_5
REMARK    5  A    between atoms: C_5  and  C_11
REMARK    6  A    between atoms: N_6  and  N_7
REMARK    7  A    between atoms: C_20  and  O_21
REMARK                            x       y       z     vdW  Elec       q    Type
REMARK                         _______ _______ _______ _____ _____    ______ ____
ROOT
ATOM      1  C   UNL     1       3.422   6.085  -0.008  0.00  0.00    +0.070 C 
ATOM      2  N   UNL     1       4.507   5.375  -0.075  0.00  0.00    -0.183 NA
ENDROOT
BRANCH   1   3
ATOM      3  C   UNL     1       2.109   5.421   0.051  0.00  0.00    +0.040 A 
ATOM      4  C   UNL     1       0.937   6.196   0.124  0.00  0.00    +0.014 A 
ATOM      5  C   UNL     1      -0.285   5.607   0.180  0.00  0.00    +0.009 A 
ATOM      6  C   UNL     1      -0.396   4.204   0.165  0.00  0.00    -0.014 A 
ATOM      7  C   UNL     1      -1.652   3.577   0.221  0.00  0.00    +0.008 A 
ATOM      8  C   UNL     1      -1.729   2.218   0.199  0.00  0.00    +0.001 A 
ATOM      9  C   UNL     1      -0.578   1.435   0.133  0.00  0.00    +0.001 A 
ATOM     10  C   UNL     1       0.656   2.007   0.077  0.00  0.00    +0.012 A 
ATOM     11  C   UNL     1       0.774   3.407   0.092  0.00  0.00    +0.024 A 
ATOM     12  C   UNL     1       2.035   4.032   0.035  0.00  0.00    +0.133 A 
BRANCH  12  13
ATOM     13  O   UNL     1       3.167   3.286  -0.035  0.00  0.00    -0.506 OA
ATOM     14  H   UNL     1       3.102   2.188  -0.048  0.00  0.00    +0.292 HD
ENDBRANCH  12  13
ENDBRANCH   1   3
BRANCH   2  15
ATOM     15  N   UNL     1       5.759   6.001  -0.028  0.00  0.00    -0.191 N 
ATOM     16  C   UNL     1       6.882   5.276  -0.199  0.00  0.00    +0.317 C 
ATOM     17  O   UNL     1       7.969   5.819  -0.158  0.00  0.00    -0.251 OA
ATOM     18  N   UNL     1       6.800   3.948  -0.415  0.00  0.00    -0.312 N 
ATOM     19  H   UNL     1       5.826   7.085   0.148  0.00  0.00    +0.179 HD
ATOM     20  H   UNL     1       7.717   3.356  -0.555  0.00  0.00    +0.147 HD
ATOM     21  H   UNL     1       5.817   3.456  -0.452  0.00  0.00    +0.147 HD
ENDBRANCH   2  15
BRANCH   1  22
ATOM     22  C   UNL     1       3.508   7.590   0.010  0.00  0.00    +0.060 C 
BRANCH  22  24
ATOM     23  C   UNL     1       2.320   7.803  -2.178  0.00  0.00    +0.007 C 
ATOM     24  C   UNL     1       3.615   8.111  -1.424  0.00  0.00    -0.011 C 
ATOM     25  C   UNL     1       3.844   9.624  -1.401  0.00  0.00    +0.007 C 
ENDBRANCH  22  24
ENDBRANCH   1  22
TORSDOF 5
