REMARK  Name = ZINC32690533
REMARK  7 active torsions:
REMARK  status: ('A' for Active; 'I' for Inactive)
REMARK    1  A    between atoms: C_1  and  N_2
REMARK    2  A    between atoms: N_2  and  C_3
REMARK    3  A    between atoms: C_5  and  C_10
REMARK    4  A    between atoms: C_10  and  N_11
REMARK    5  A    between atoms: C_12  and  C_14
REMARK    6  A    between atoms: N_19  and  S_20
REMARK    7  A    between atoms: S_20  and  C_23
REMARK                            x       y       z     vdW  Elec       q    Type
REMARK                         _______ _______ _______ _____ _____    ______ ____
ROOT
ATOM      1  N   UNL     1      -1.143  -3.200   0.791  0.00  0.00    -0.310 N 
ATOM      2  C   UNL     1      -1.663  -3.447   2.009  0.00  0.00    +0.232 C 
ATOM      3  O   UNL     1      -0.929  -3.604   2.962  0.00  0.00    -0.274 OA
ATOM      4  H   UNL     1      -1.730  -3.075   0.029  0.00  0.00    +0.149 HD
ENDROOT
BRANCH   2   5
ATOM      5  C   UNL     1      -3.157  -3.527   2.188  0.00  0.00    +0.165 C 
ATOM      6  C   UNL     1      -3.723  -2.129   2.516  0.00  0.00    +0.031 C 
ATOM      7  C   UNL     1      -4.824  -2.436   3.565  0.00  0.00    +0.019 C 
ATOM      8  C   UNL     1      -4.190  -3.615   4.345  0.00  0.00    +0.110 C 
ATOM      9  N   UNL     1      -3.479  -4.408   3.321  0.00  0.00    -0.165 NA
BRANCH   9  10
ATOM     10  S   UNL     1      -3.105  -6.017   3.428  0.00  0.00    +0.062 S 
ATOM     11  O   UNL     1      -2.081  -6.261   2.473  0.00  0.00    -0.153 OA
ATOM     12  O   UNL     1      -2.942  -6.305   4.810  0.00  0.00    -0.153 OA
BRANCH  10  13
ATOM     13  C   UNL     1      -4.521  -6.918   2.890  0.00  0.00    +0.106 A 
ATOM     14  C   UNL     1      -5.540  -7.200   3.780  0.00  0.00    +0.028 A 
ATOM     15  C   UNL     1      -6.651  -7.907   3.358  0.00  0.00    +0.002 A 
ATOM     16  C   UNL     1      -6.742  -8.330   2.045  0.00  0.00    +0.000 A 
ATOM     17  C   UNL     1      -5.724  -8.047   1.154  0.00  0.00    +0.002 A 
ATOM     18  C   UNL     1      -4.615  -7.337   1.576  0.00  0.00    +0.028 A 
ENDBRANCH  10  13
ENDBRANCH   9  10
ENDBRANCH   2   5
BRANCH   1  19
ATOM     19  C   UNL     1       0.310  -3.122   0.617  0.00  0.00    +0.143 C 
BRANCH  19  24
ATOM     20  C   UNL     1      -1.341  -0.183  -0.422  0.00  0.00    +0.130 C 
ATOM     21  N   UNL     1       0.083  -0.519  -0.508  0.00  0.00    -0.323 N 
ATOM     22  C   UNL     1       1.062   0.233   0.280  0.00  0.00    +0.130 C 
ATOM     23  C   UNL     1       0.504  -1.551  -1.339  0.00  0.00    +0.103 A 
ATOM     24  C   UNL     1       0.628  -2.839  -0.829  0.00  0.00    +0.008 A 
ATOM     25  C   UNL     1       1.049  -3.856  -1.666  0.00  0.00    +0.010 A 
ATOM     26  C   UNL     1       1.332  -3.550  -2.991  0.00  0.00    +0.018 A 
ATOM     27  C   UNL     1       1.186  -2.250  -3.430  0.00  0.00    +0.084 A 
ATOM     28  N   UNL     1       0.778  -1.300  -2.610  0.00  0.00    -0.349 N 
ATOM     29  H   UNL     1       0.681  -0.395  -2.945  0.00  0.00    +0.167 HD
ENDBRANCH  19  24
ENDBRANCH   1  19
TORSDOF 5
