REMARK  Name = ZINC31949407
REMARK  4 active torsions:
REMARK  status: ('A' for Active; 'I' for Inactive)
REMARK    1  A    between atoms: C_4  and  N_7
REMARK    2  A    between atoms: C_9  and  C_14
REMARK    3  A    between atoms: N_16  and  C_17
REMARK    4  A    between atoms: C_25  and  C_26
REMARK                            x       y       z     vdW  Elec       q    Type
REMARK                         _______ _______ _______ _____ _____    ______ ____
ROOT
ATOM      1  C   UNL     1       3.453  -0.287   3.875  0.00  0.00    +0.092 A 
ATOM      2  C   UNL     1       4.043  -1.386   4.650  0.00  0.00    +0.042 A 
ATOM      3  C   UNL     1       4.504  -2.663   4.328  0.00  0.00    +0.013 A 
ATOM      4  C   UNL     1       5.013  -3.467   5.309  0.00  0.00    +0.001 A 
ATOM      5  C   UNL     1       5.074  -3.021   6.622  0.00  0.00    +0.004 A 
ATOM      6  C   UNL     1       4.624  -1.763   6.960  0.00  0.00    +0.047 A 
ATOM      7  C   UNL     1       4.102  -0.928   5.978  0.00  0.00    +0.138 A 
ATOM      8  O   UNL     1       3.598   0.322   6.006  0.00  0.00    -0.448 OA
ATOM      9  C   UNL     1       3.216   0.718   4.771  0.00  0.00    +0.212 A 
ENDROOT
BRANCH   9  10
ATOM     10  C   UNL     1       2.634   2.019   4.446  0.00  0.00    +0.284 C 
ATOM     11  O   UNL     1       2.381   2.300   3.288  0.00  0.00    -0.267 OA
ATOM     12  N   UNL     1       2.377   2.907   5.426  0.00  0.00    -0.291 N 
ATOM     13  C   UNL     1       2.788   2.643   6.814  0.00  0.00    +0.136 C 
ATOM     14  C   UNL     1       3.550   3.875   7.330  0.00  0.00    +0.179 C 
ATOM     15  O   UNL     1       2.752   5.042   7.116  0.00  0.00    -0.377 OA
ATOM     16  C   UNL     1       2.481   5.321   5.740  0.00  0.00    +0.179 C 
ATOM     17  C   UNL     1       1.670   4.166   5.142  0.00  0.00    +0.136 C 
ENDBRANCH   9  10
BRANCH   1  20
ATOM     18  C   UNL     1       2.917  -1.419   1.862  0.00  0.00    +0.222 C 
ATOM     19  O   UNL     1       2.802  -2.454   2.484  0.00  0.00    -0.275 OA
ATOM     20  N   UNL     1       3.195  -0.270   2.510  0.00  0.00    -0.282 N 
ATOM     21  H   UNL     1       3.216   0.681   1.957  0.00  0.00    +0.155 HD
BRANCH  18  24
ATOM     22  N   UNL     1       3.946  -3.294  -0.531  0.00  0.00    -0.271 N 
ATOM     23  C   UNL     1       2.591  -2.857  -0.175  0.00  0.00    +0.127 C 
ATOM     24  C   UNL     1       2.749  -1.418   0.364  0.00  0.00    +0.102 C 
ATOM     25  C   UNL     1       4.049  -0.960  -0.338  0.00  0.00    +0.110 C 
ATOM     26  C   UNL     1       4.784  -2.248  -0.634  0.00  0.00    +0.221 C 
ATOM     27  O   UNL     1       5.960  -2.326  -0.923  0.00  0.00    -0.275 OA
BRANCH  22  31
ATOM     28  C   UNL     1       5.049  -7.262  -1.156  0.00  0.00    +0.000 A 
ATOM     29  C   UNL     1       3.776  -6.963  -0.708  0.00  0.00    +0.002 A 
ATOM     30  C   UNL     1       3.407  -5.648  -0.499  0.00  0.00    +0.023 A 
ATOM     31  C   UNL     1       4.316  -4.627  -0.741  0.00  0.00    +0.036 A 
ATOM     32  C   UNL     1       5.592  -4.931  -1.197  0.00  0.00    +0.023 A 
ATOM     33  C   UNL     1       5.957  -6.248  -1.397  0.00  0.00    +0.002 A 
ENDBRANCH  22  31
ENDBRANCH  18  24
ENDBRANCH   1  20
TORSDOF 4
