REMARK  Name = ZINC39467160
REMARK  6 active torsions:
REMARK  status: ('A' for Active; 'I' for Inactive)
REMARK    1  A    between atoms: C_1  and  O_2
REMARK    2  A    between atoms: O_2  and  C_3
REMARK    3  A    between atoms: P_12  and  C_23
REMARK    4  A    between atoms: C_20  and  O_21
REMARK    5  A    between atoms: O_21  and  C_22
REMARK    6  A    between atoms: C_28  and  O_29
REMARK                            x       y       z     vdW  Elec       q    Type
REMARK                         _______ _______ _______ _____ _____    ______ ____
ROOT
ATOM      1  C   UNL     1       0.606  -0.607  -1.056  0.00  0.00    +0.158 C 
ATOM      2  C   UNL     1       1.154   0.127  -2.028  0.00  0.00    +0.026 C 
ATOM      3  C   UNL     1       1.806  -0.561  -3.196  0.00  0.00    +0.019 C 
ATOM      4  C   UNL     1       1.850   0.364  -4.407  0.00  0.00    -0.002 C 
ATOM      5  C   UNL     1       0.432   0.682  -4.899  0.00  0.00    -0.020 C 
ATOM      6  C   UNL     1       0.575   1.587  -6.129  0.00  0.00    +0.157 C 
ATOM      7  O   UNL     1      -0.729   1.959  -6.608  0.00  0.00    -0.316 OA
ATOM      8  P   UNL     1      -1.813   0.769  -6.845  0.00  0.00    +0.291 P 
ATOM      9  O   UNL     1      -1.564   0.099  -8.141  0.00  0.00    -0.269 OA
ATOM     10  N   UNL     1      -1.576  -0.287  -5.600  0.00  0.00    -0.288 NA
ATOM     11  N   UNL     1      -0.276  -0.557  -5.228  0.00  0.00    +0.398 N 
ATOM     12  C   UNL     1      -0.368  -1.425  -4.043  0.00  0.00    -0.046 C 
ATOM     13  C   UNL     1       1.011  -1.817  -3.562  0.00  0.00    +0.008 C 
ATOM     14  C   UNL     1       0.849  -2.668  -2.325  0.00  0.00    +0.025 C 
ATOM     15  C   UNL     1       0.668  -2.082  -1.139  0.00  0.00    +0.158 C 
ATOM     16  H   UNL     1      -2.326  -0.704  -5.147  0.00  0.00    +0.111 HD
ATOM     17  H   UNL     1       0.203  -1.034  -5.977  0.00  0.00    -0.055 HD
ENDROOT
BRANCH   8  18
ATOM     18  C   UNL     1      -3.500   1.436  -6.797  0.00  0.00    +0.091 A 
ATOM     19  C   UNL     1      -4.184   1.500  -5.599  0.00  0.00    +0.018 A 
ATOM     20  C   UNL     1      -5.470   2.007  -5.562  0.00  0.00    +0.001 A 
ATOM     21  C   UNL     1      -6.074   2.452  -6.723  0.00  0.00    +0.004 A 
ATOM     22  C   UNL     1      -5.394   2.391  -7.924  0.00  0.00    +0.046 A 
ATOM     23  C   UNL     1      -4.101   1.887  -7.963  0.00  0.00    +0.131 A 
BRANCH  23  24
ATOM     24  O   UNL     1      -3.428   1.831  -9.142  0.00  0.00    -0.506 OA
ATOM     25  H   UNL     1      -3.557   1.006  -9.630  0.00  0.00    +0.292 HD
ENDBRANCH  23  24
ENDBRANCH   8  18
BRANCH   1  27
ATOM     26  C   UNL     1      -0.017   1.425   0.010  0.00  0.00    +0.277 C 
ATOM     27  O   UNL     1       0.002  -0.004   0.002  0.00  0.00    -0.492 OA
ENDBRANCH   1  27
BRANCH  15  28
ATOM     28  O   UNL     1       0.537  -2.835  -0.015  0.00  0.00    -0.492 OA
ATOM     29  C   UNL     1       0.608  -4.254  -0.172  0.00  0.00    +0.277 C 
ENDBRANCH  15  28
TORSDOF 4
