REMARK  Name = ZINC62539063
REMARK  5 active torsions:
REMARK  status: ('A' for Active; 'I' for Inactive)
REMARK    1  A    between atoms: C_1  and  O_2
REMARK    2  A    between atoms: O_2  and  C_3
REMARK    3  A    between atoms: C_3  and  C_4
REMARK    4  A    between atoms: C_4  and  C_5
REMARK    5  A    between atoms: C_9  and  N_16
REMARK                            x       y       z     vdW  Elec       q    Type
REMARK                         _______ _______ _______ _____ _____    ______ ____
ROOT
ATOM      1  C   UNL     1      -2.522  -2.758   0.011  0.00  0.00    +0.199 A 
ATOM      2  N   UNL     1      -3.204  -3.068  -1.050  0.00  0.00    -0.213 NA
ATOM      3  C   UNL     1      -4.388  -3.617  -0.665  0.00  0.00    +0.113 A 
ATOM      4  C   UNL     1      -5.489  -4.122  -1.361  0.00  0.00    +0.055 A 
ATOM      5  C   UNL     1      -6.570  -4.625  -0.661  0.00  0.00    +0.047 A 
ATOM      6  C   UNL     1      -6.564  -4.628   0.733  0.00  0.00    +0.084 A 
ATOM      7  C   UNL     1      -5.481  -4.131   1.427  0.00  0.00    +0.105 A 
ATOM      8  C   UNL     1      -4.389  -3.624   0.737  0.00  0.00    +0.175 A 
ATOM      9  O   UNL     1      -3.208  -3.086   1.117  0.00  0.00    -0.438 OA
ATOM     10 CL   UNL     1      -5.483  -4.140   3.163  0.00  0.00    -0.078 Cl
ATOM     11 CL   UNL     1      -7.929  -5.262   1.600  0.00  0.00    -0.080 Cl
ENDROOT
BRANCH   5  12
ATOM     12  N   UNL     1      -7.675  -5.132  -1.355  0.00  0.00    -0.357 N 
ATOM     13  H   UNL     1      -7.680  -5.130  -2.325  0.00  0.00    +0.142 HD
ATOM     14  H   UNL     1      -8.434  -5.485  -0.866  0.00  0.00    +0.142 HD
ENDBRANCH   5  12
BRANCH   1  15
ATOM     15  C   UNL     1      -1.154  -2.126   0.002  0.00  0.00    +0.124 C 
BRANCH  15  16
ATOM     16  C   UNL     1      -1.295  -0.603   0.011  0.00  0.00    +0.169 C 
BRANCH  16  18
ATOM     17  C   UNL     1      -0.017   1.425   0.010  0.00  0.00    +0.194 C 
ATOM     18  O   UNL     1       0.002  -0.004   0.002  0.00  0.00    -0.382 OA
ENDBRANCH  16  18
ENDBRANCH  15  16
ENDBRANCH   1  15
TORSDOF 4
