REMARK  Name = ZINC22060374
REMARK  10 active torsions:
REMARK  status: ('A' for Active; 'I' for Inactive)
REMARK    1  A    between atoms: C_1  and  C_2
REMARK    2  A    between atoms: C_2  and  C_3
REMARK    3  A    between atoms: C_3  and  C_4
REMARK    4  A    between atoms: C_15  and  O_39
REMARK    5  A    between atoms: C_23  and  C_38
REMARK    6  A    between atoms: C_26  and  O_37
REMARK    7  A    between atoms: C_29  and  C_36
REMARK    8  A    between atoms: C_30  and  C_32
REMARK    9  A    between atoms: C_32  and  C_34
REMARK   10  A    between atoms: C_34  and  O_35
REMARK                            x       y       z     vdW  Elec       q    Type
REMARK                         _______ _______ _______ _____ _____    ______ ____
ROOT
ATOM      1  C   UNL     1       5.755   5.806  -4.489  0.00  0.00    +0.252 C 
ATOM      2  O   UNL     1       6.048   4.480  -3.992  0.00  0.00    -0.345 OA
ATOM      3  C   UNL     1       6.087   4.622  -2.558  0.00  0.00    +0.161 C 
ATOM      4  C   UNL     1       5.299   3.437  -1.937  0.00  0.00    +0.039 C 
ATOM      5  C   UNL     1       3.859   3.960  -1.893  0.00  0.00    +0.004 C 
ATOM      6  C   UNL     1       2.947   3.291  -0.880  0.00  0.00    +0.002 C 
ATOM      7  C   UNL     1       2.764   1.816  -1.241  0.00  0.00    +0.040 C 
ATOM      8  C   UNL     1       1.878   1.135  -0.193  0.00  0.00    +0.142 C 
ATOM      9  C   UNL     1       0.578   1.913  -0.097  0.00  0.00    -0.028 C 
ATOM     10  C   UNL     1      -0.570   1.261  -0.216  0.00  0.00    +0.053 C 
ATOM     11  C   UNL     1      -1.849   1.985  -0.168  0.00  0.00    +0.179 C 
ATOM     12  O   UNL     1      -2.906   1.387  -0.249  0.00  0.00    -0.288 OA
ATOM     13  C   UNL     1      -1.823   3.449  -0.015  0.00  0.00    +0.047 C 
ATOM     14  C   UNL     1      -0.665   4.079   0.108  0.00  0.00    -0.012 C 
ATOM     15  C   UNL     1       0.659   3.396   0.116  0.00  0.00    +0.015 C 
ATOM     16  C   UNL     1       1.590   4.009  -0.935  0.00  0.00    +0.035 C 
ATOM     17  C   UNL     1       1.732   5.505  -0.672  0.00  0.00    +0.120 C 
ATOM     18  C   UNL     1       2.755   6.153  -1.618  0.00  0.00    +0.042 C 
ATOM     19  C   UNL     1       4.071   5.424  -1.422  0.00  0.00    +0.012 C 
ATOM     20  C   UNL     1       5.245   5.901  -2.267  0.00  0.00    +0.164 C 
ATOM     21  O   UNL     1       4.785   6.336  -3.560  0.00  0.00    -0.334 OA
ATOM     22  C   UNL     1       4.457   5.441   0.058  0.00  0.00    +0.015 C 
ATOM     23  C   UNL     1       1.285   3.639   1.491  0.00  0.00    +0.020 C 
ENDROOT
BRANCH  20  24
ATOM     24  C   UNL     1       6.052   6.958  -1.556  0.00  0.00    +0.193 C 
ATOM     25  O   UNL     1       6.190   6.907  -0.358  0.00  0.00    -0.292 OA
BRANCH  24  26
ATOM     26  C   UNL     1       6.686   8.076  -2.342  0.00  0.00    +0.233 C 
BRANCH  26  27
ATOM     27  O   UNL     1       7.393   8.943  -1.452  0.00  0.00    -0.387 OA
ATOM     28  H   UNL     1       7.923   9.822  -1.845  0.00  0.00    +0.210 HD
ENDBRANCH  26  27
ENDBRANCH  24  26
ENDBRANCH  20  24
BRANCH  17  29
ATOM     29  O   UNL     1       2.155   5.703   0.679  0.00  0.00    -0.391 OA
ATOM     30  H   UNL     1       2.314   6.721   1.062  0.00  0.00    +0.210 HD
ENDBRANCH  17  29
BRANCH   8  31
ATOM     31  O   UNL     1       2.538   1.141   1.075  0.00  0.00    -0.387 OA
ATOM     32  H   UNL     1       2.049   0.692   1.952  0.00  0.00    +0.210 HD
ENDBRANCH   8  31
BRANCH   1  33
ATOM     33  C   UNL     1       5.159   5.726  -5.896  0.00  0.00    +0.061 C 
BRANCH  33  35
ATOM     34  C   UNL     1       5.644   5.202  -8.290  0.00  0.00    +0.004 C 
ATOM     35  C   UNL     1       6.240   5.281  -6.883  0.00  0.00    +0.002 C 
ENDBRANCH  33  35
ENDBRANCH   1  33
TORSDOF 7
