REMARK  Name = ZINC03457891
REMARK  7 active torsions:
REMARK  status: ('A' for Active; 'I' for Inactive)
REMARK    1  A    between atoms: C_1  and  C_2
REMARK    2  A    between atoms: C_7  and  N_8
REMARK    3  A    between atoms: C_9  and  C_11
REMARK    4  A    between atoms: C_11  and  N_12
REMARK    5  A    between atoms: C_13  and  C_15
REMARK    6  A    between atoms: C_15  and  N_16
REMARK    7  A    between atoms: C_22  and  C_25
REMARK                            x       y       z     vdW  Elec       q    Type
REMARK                         _______ _______ _______ _____ _____    ______ ____
ROOT
ATOM      1  N   UNL     1       1.143   1.898  -0.015  0.00  0.00    -0.305 N 
ATOM      2  C   UNL     1      -0.014   1.208  -0.018  0.00  0.00    +0.231 C 
ATOM      3  O   UNL     1       0.002  -0.005  -0.032  0.00  0.00    -0.274 OA
ATOM      4  H   UNL     1       1.130   2.868  -0.004  0.00  0.00    +0.149 HD
ENDROOT
BRANCH   1   5
ATOM      5  C   UNL     1       2.422   1.183  -0.030  0.00  0.00    +0.200 C 
BRANCH   5   7
ATOM      6  N   UNL     1       4.831   1.746  -0.035  0.00  0.00    -0.284 N 
ATOM      7  C   UNL     1       3.554   2.178  -0.023  0.00  0.00    +0.234 C 
ATOM      8  O   UNL     1       3.316   3.367  -0.008  0.00  0.00    -0.274 OA
ATOM      9  H   UNL     1       5.023   0.798   0.034  0.00  0.00    +0.155 HD
BRANCH   6  16
ATOM     10  C   UNL     1       7.377   1.012   1.001  0.00  0.00    +0.046 C 
ATOM     11  C   UNL     1       7.138   2.348   0.347  0.00  0.00    -0.028 A 
ATOM     12  C   UNL     1       8.173   3.256   0.232  0.00  0.00    +0.020 A 
ATOM     13  C   UNL     1       7.953   4.486  -0.363  0.00  0.00    +0.018 A 
ATOM     14  C   UNL     1       6.698   4.807  -0.850  0.00  0.00    +0.017 A 
ATOM     15  C   UNL     1       5.662   3.901  -0.743  0.00  0.00    +0.024 A 
ATOM     16  C   UNL     1       5.880   2.666  -0.145  0.00  0.00    +0.036 A 
ATOM     17 BR   UNL     1       9.370   5.729  -0.512  0.00  0.00    -0.050 Br
ENDBRANCH   6  16
ENDBRANCH   5   7
ENDBRANCH   1   5
BRANCH   2  18
ATOM     18  C   UNL     1      -1.330   1.943  -0.009  0.00  0.00    +0.213 C 
BRANCH  18  19
ATOM     19  N   UNL     1      -2.430   0.976  -0.021  0.00  0.00    -0.215 N 
ATOM     20  C   UNL     1      -3.000   0.462   1.089  0.00  0.00    +0.247 C 
ATOM     21  O   UNL     1      -2.709   0.702   2.241  0.00  0.00    -0.273 OA
ATOM     22  C   UNL     1      -4.075  -0.477   0.593  0.00  0.00    +0.113 C 
ATOM     23  C   UNL     1      -5.446  -0.017   1.077  0.00  0.00    +0.035 C 
ATOM     24  C   UNL     1      -6.523  -0.963   0.541  0.00  0.00    +0.006 C 
ATOM     25  C   UNL     1      -6.241  -2.385   1.032  0.00  0.00    -0.014 C 
ATOM     26  C   UNL     1      -4.874  -2.841   0.518  0.00  0.00    +0.006 C 
ATOM     27  C   UNL     1      -3.790  -1.902   1.054  0.00  0.00    +0.035 C 
ATOM     28  C   UNL     1      -7.324  -3.330   0.507  0.00  0.00    +0.007 C 
ATOM     29  N   UNL     1      -3.986  -0.380  -0.869  0.00  0.00    -0.285 N 
ATOM     30  C   UNL     1      -2.999   0.497  -1.134  0.00  0.00    +0.310 C 
ATOM     31  O   UNL     1      -2.661   0.816  -2.257  0.00  0.00    -0.252 OA
ATOM     32  H   UNL     1      -4.533  -0.852  -1.517  0.00  0.00    +0.151 HD
ENDBRANCH  18  19
ENDBRANCH   2  18
TORSDOF 5
