REMARK  Name = ZINC39664426
REMARK  8 active torsions:
REMARK  status: ('A' for Active; 'I' for Inactive)
REMARK    1  A    between atoms: C_1  and  C_2
REMARK    2  A    between atoms: C_5  and  C_9
REMARK    3  A    between atoms: C_7  and  C_8
REMARK    4  A    between atoms: C_13  and  C_22
REMARK    5  A    between atoms: N_24  and  C_25
REMARK    6  A    between atoms: C_25  and  C_26
REMARK    7  A    between atoms: C_26  and  C_28
REMARK    8  A    between atoms: C_26  and  N_34
REMARK                            x       y       z     vdW  Elec       q    Type
REMARK                         _______ _______ _______ _____ _____    ______ ____
ROOT
ATOM      1  C   UNL     1       0.106  -4.307   0.019  0.00  0.00    +0.247 C 
ATOM      2  O   UNL     1       0.190  -4.995   1.018  0.00  0.00    -0.270 OA
ATOM      3  N   UNL     1      -0.040  -4.887  -1.188  0.00  0.00    -0.296 N 
ATOM      4  C   UNL     1      -0.035  -4.231  -2.517  0.00  0.00    +0.121 C 
ATOM      5  C   UNL     1       0.744  -5.206  -3.430  0.00  0.00    +0.100 C 
ATOM      6  C   UNL     1       0.602  -6.578  -2.750  0.00  0.00    -0.004 C 
ATOM      7  C   UNL     1      -0.235  -6.326  -1.488  0.00  0.00    +0.115 C 
ATOM      8  C   UNL     1      -0.116  -7.555  -3.676  0.00  0.00    -0.010 C 
ATOM      9  C   UNL     1      -0.193  -8.927  -3.001  0.00  0.00    -0.082 C 
ATOM     10  N   UNL     1       1.163  -9.407  -2.707  0.00  0.00    +0.379 N 
ATOM     11  C   UNL     1       1.814  -8.511  -1.744  0.00  0.00    -0.082 C 
ATOM     12  C   UNL     1       1.976  -7.121  -2.365  0.00  0.00    -0.010 C 
ATOM     13  H   UNL     1       1.113 -10.337  -2.319  0.00  0.00    -0.086 HD
ATOM     14  H   UNL     1       1.702  -9.430  -3.560  0.00  0.00    -0.086 HD
ENDROOT
BRANCH   1  19
ATOM     15  C   UNL     1       0.330   1.427   0.450  0.00  0.00    +0.044 C 
ATOM     16  C   UNL     1       0.271  -0.074   0.337  0.00  0.00    -0.047 A 
ATOM     17  C   UNL     1      -0.237  -0.660  -0.809  0.00  0.00    +0.004 A 
ATOM     18  C   UNL     1      -0.293  -2.034  -0.919  0.00  0.00    +0.013 A 
ATOM     19  C   UNL     1       0.163  -2.834   0.130  0.00  0.00    +0.037 A 
ATOM     20  C   UNL     1       0.674  -2.237   1.283  0.00  0.00    +0.016 A 
ATOM     21  C   UNL     1       0.730  -0.862   1.378  0.00  0.00    -0.047 A 
ATOM     22  C   UNL     1       1.286  -0.215   2.621  0.00  0.00    +0.044 C 
ENDBRANCH   1  19
BRANCH   5  23
ATOM     23  C   UNL     1       2.194  -4.804  -3.510  0.00  0.00    +0.218 C 
ATOM     24  O   UNL     1       2.739  -4.303  -2.549  0.00  0.00    -0.275 OA
ATOM     25  N   UNL     1       2.885  -5.001  -4.650  0.00  0.00    -0.313 N 
ATOM     26  H   UNL     1       2.472  -5.466  -5.394  0.00  0.00    +0.149 HD
BRANCH  25  27
ATOM     27  C   UNL     1       4.262  -4.514  -4.765  0.00  0.00    +0.127 C 
BRANCH  27  28
ATOM     28  C   UNL     1       4.773  -4.759  -6.187  0.00  0.00    +0.104 C 
BRANCH  28  29
ATOM     29  C   UNL     1       4.824  -6.242  -6.453  0.00  0.00    -0.029 A 
ATOM     30  C   UNL     1       5.881  -6.993  -5.974  0.00  0.00    +0.005 A 
ATOM     31  C   UNL     1       5.928  -8.353  -6.219  0.00  0.00    +0.000 A 
ATOM     32  C   UNL     1       4.919  -8.961  -6.941  0.00  0.00    +0.000 A 
ATOM     33  C   UNL     1       3.861  -8.210  -7.418  0.00  0.00    +0.000 A 
ATOM     34  C   UNL     1       3.812  -6.851  -7.171  0.00  0.00    +0.005 A 
ENDBRANCH  28  29
BRANCH  28  35
ATOM     35  N   UNL     1       6.119  -4.189  -6.328  0.00  0.00    -0.290 NA
ATOM     36  C   UNL     1       6.143  -2.781  -5.905  0.00  0.00    +0.113 C 
ATOM     37  C   UNL     1       7.573  -2.246  -6.012  0.00  0.00    +0.175 C 
ATOM     38  O   UNL     1       8.041  -2.416  -7.353  0.00  0.00    -0.377 OA
ATOM     39  C   UNL     1       8.033  -3.775  -7.797  0.00  0.00    +0.175 C 
ATOM     40  C   UNL     1       6.607  -4.327  -7.708  0.00  0.00    +0.113 C 
ENDBRANCH  28  35
ENDBRANCH  27  28
ENDBRANCH  25  27
ENDBRANCH   5  23
TORSDOF 6
