REMARK  Name = ZINC06720741
REMARK  5 active torsions:
REMARK  status: ('A' for Active; 'I' for Inactive)
REMARK    1  A    between atoms: C_1  and  C_2
REMARK    2  A    between atoms: C_5  and  C_8
REMARK    3  A    between atoms: C_18  and  C_31
REMARK    4  A    between atoms: C_19  and  C_20
REMARK    5  A    between atoms: N_22  and  C_23
REMARK                            x       y       z     vdW  Elec       q    Type
REMARK                         _______ _______ _______ _____ _____    ______ ____
ROOT
ATOM      1  C   UNL     1       0.063  -4.254  -0.030  0.00  0.00    +0.090 C 
ATOM      2  C   UNL     1      -1.181  -4.751  -0.724  0.00  0.00    +0.024 C 
ATOM      3  C   UNL     1      -1.126  -5.213  -1.991  0.00  0.00    +0.015 C 
ATOM      4  C   UNL     1      -2.364  -5.717  -2.689  0.00  0.00    +0.051 C 
ATOM      5  C   UNL     1      -3.591  -4.969  -2.164  0.00  0.00    +0.014 C 
ATOM      6  C   UNL     1      -3.679  -5.181  -0.649  0.00  0.00    +0.080 C 
ATOM      7  C   UNL     1      -2.395  -4.719  -0.015  0.00  0.00    +0.162 C 
ATOM      8  O   UNL     1      -2.407  -4.311   1.129  0.00  0.00    -0.292 OA
ATOM      9  N   UNL     1       0.062  -5.235  -2.671  0.00  0.00    -0.321 N 
ATOM     10  C   UNL     1       1.251  -5.187  -1.996  0.00  0.00    +0.014 C 
ATOM     11  C   UNL     1       1.299  -4.731  -0.735  0.00  0.00    +0.043 C 
ATOM     12  C   UNL     1       2.516  -5.649  -2.674  0.00  0.00    +0.061 C 
ATOM     13  H   UNL     1       0.066  -5.293  -3.770  0.00  0.00    +0.152 HD
ENDROOT
BRANCH   1  18
ATOM     14  C   UNL     1       0.021   1.524   0.027  0.00  0.00    +0.044 C 
ATOM     15  C   UNL     1       0.032   0.017   0.012  0.00  0.00    -0.050 A 
ATOM     16  C   UNL     1       0.024  -0.662  -1.192  0.00  0.00    +0.003 A 
ATOM     17  C   UNL     1       0.040  -2.044  -1.206  0.00  0.00    +0.005 A 
ATOM     18  C   UNL     1       0.052  -2.747  -0.015  0.00  0.00    -0.035 A 
ATOM     19  C   UNL     1       0.054  -2.068   1.189  0.00  0.00    +0.005 A 
ATOM     20  C   UNL     1       0.044  -0.686   1.202  0.00  0.00    +0.003 A 
ENDBRANCH   1  18
BRANCH  11  21
ATOM     21  C   UNL     1       2.542  -4.699  -0.056  0.00  0.00    +0.247 C 
ATOM     22  O   UNL     1       3.552  -5.083  -0.617  0.00  0.00    -0.270 OA
ATOM     23  N   UNL     1       2.606  -4.243   1.210  0.00  0.00    -0.279 N 
ATOM     24  H   UNL     1       1.708  -3.828   1.692  0.00  0.00    +0.155 HD
BRANCH  23  25
ATOM     25  C   UNL     1       3.816  -4.298   1.914  0.00  0.00    +0.069 A 
ATOM     26  C   UNL     1       5.018  -4.111   1.245  0.00  0.00    +0.029 A 
ATOM     27  C   UNL     1       6.210  -4.166   1.940  0.00  0.00    +0.040 A 
ATOM     28  C   UNL     1       6.208  -4.407   3.304  0.00  0.00    +0.126 A 
ATOM     29  C   UNL     1       5.012  -4.593   3.975  0.00  0.00    +0.078 A 
ATOM     30  C   UNL     1       3.815  -4.534   3.284  0.00  0.00    +0.147 A 
ATOM     31  F   UNL     1       2.647  -4.710   3.939  0.00  0.00    -0.203 F 
ATOM     32  F   UNL     1       7.376  -4.460   3.981  0.00  0.00    -0.205 F 
ENDBRANCH  23  25
ENDBRANCH  11  21
TORSDOF 3
