REMARK  Name = ZINC40471610
REMARK  4 active torsions:
REMARK  status: ('A' for Active; 'I' for Inactive)
REMARK    1  A    between atoms: C_3  and  C_17
REMARK    2  A    between atoms: C_4  and  N_8
REMARK    3  A    between atoms: C_9  and  C_11
REMARK    4  A    between atoms: C_11  and  N_16
REMARK                            x       y       z     vdW  Elec       q    Type
REMARK                         _______ _______ _______ _____ _____    ______ ____
ROOT
ATOM      1  N   UNL     1       3.566  -0.666  -0.025  0.00  0.00    -0.286 N 
ATOM      2  C   UNL     1       3.555  -2.010  -0.119  0.00  0.00    +0.206 C 
ATOM      3  O   UNL     1       2.507  -2.598  -0.284  0.00  0.00    -0.277 OA
ATOM      4  H   UNL     1       4.410  -0.190   0.030  0.00  0.00    +0.155 HD
ENDROOT
BRANCH   1   8
ATOM      5  C   UNL     1      -0.028   1.451   0.027  0.00  0.00    +0.021 A 
ATOM      6  C   UNL     1       1.070   2.002  -0.596  0.00  0.00    +0.018 A 
ATOM      7  C   UNL     1       2.281   1.302  -0.620  0.00  0.00    +0.084 A 
ATOM      8  C   UNL     1       2.367   0.041  -0.007  0.00  0.00    +0.049 A 
ATOM      9  C   UNL     1       1.250  -0.497   0.615  0.00  0.00    +0.044 A 
ATOM     10  C   UNL     1       0.060   0.205   0.631  0.00  0.00    +0.043 A 
ATOM     11 CL   UNL     1      -1.334  -0.475   1.411  0.00  0.00    -0.083 Cl
BRANCH   7  12
ATOM     12  C   UNL     1       3.458   1.884  -1.284  0.00  0.00    +0.388 C 
ATOM     13  O   UNL     1       3.357   2.939  -1.894  0.00  0.00    -0.241 OA
ATOM     14  O   UNL     1       4.538   1.312  -1.225  0.00  0.00    -0.241 OA
ENDBRANCH   7  12
ENDBRANCH   1   8
BRANCH   2  15
ATOM     15  C   UNL     1       4.844  -2.783  -0.018  0.00  0.00    +0.007 C 
ATOM     16  C   UNL     1       5.477  -2.967  -1.420  0.00  0.00    -0.004 C 
ATOM     17  C   UNL     1       4.680  -4.162  -2.000  0.00  0.00    -0.001 C 
ATOM     18  C   UNL     1       4.470  -5.099  -0.793  0.00  0.00    -0.001 C 
ATOM     19  C   UNL     1       4.574  -4.223   0.467  0.00  0.00    -0.004 C 
BRANCH  15  20
ATOM     20  N   UNL     1       5.781  -2.103   0.886  0.00  0.00    +0.388 N 
ATOM     21  H   UNL     1       5.374  -2.041   1.807  0.00  0.00    -0.089 HD
ATOM     22  H   UNL     1       6.642  -2.626   0.934  0.00  0.00    -0.089 HD
ATOM     23  H   UNL     1       5.970  -1.175   0.538  0.00  0.00    -0.089 HD
ENDBRANCH  15  20
ENDBRANCH   2  15
TORSDOF 4
