REMARK  Name = ZINC39457636
REMARK  8 active torsions:
REMARK  status: ('A' for Active; 'I' for Inactive)
REMARK    1  A    between atoms: C_1  and  C_2
REMARK    2  A    between atoms: C_2  and  O_3
REMARK    3  A    between atoms: O_3  and  N_4
REMARK    4  A    between atoms: C_5  and  C_34
REMARK    5  A    between atoms: C_6  and  O_33
REMARK    6  A    between atoms: C_11  and  S_19
REMARK    7  A    between atoms: S_19  and  O_22
REMARK    8  A    between atoms: O_22  and  C_23
REMARK                            x       y       z     vdW  Elec       q    Type
REMARK                         _______ _______ _______ _____ _____    ______ ____
ROOT
ATOM      1  N   UNL     1       1.793  -2.148   1.684  0.00  0.00    -0.181 N 
ATOM      2  C   UNL     1       0.678  -2.762   2.181  0.00  0.00    +0.097 A 
ATOM      3  C   UNL     1       0.665  -4.050   1.751  0.00  0.00    +0.144 A 
ATOM      4  C   UNL     1       1.802  -4.245   0.960  0.00  0.00    +0.025 A 
ATOM      5  C   UNL     1       2.474  -3.048   0.918  0.00  0.00    +0.113 A 
ATOM      6  C   UNL     1       3.704  -2.860   0.128  0.00  0.00    +0.104 A 
ATOM      7  C   UNL     1       3.696  -3.408  -1.236  0.00  0.00    +0.074 A 
ATOM      8  C   UNL     1       4.838  -3.297  -2.011  0.00  0.00    +0.150 A 
ATOM      9  C   UNL     1       5.950  -2.639  -1.451  0.00  0.00    +0.029 A 
ATOM     10  C   UNL     1       7.141  -2.501  -2.187  0.00  0.00    +0.012 A 
ATOM     11  C   UNL     1       8.202  -1.850  -1.637  0.00  0.00    +0.001 A 
ATOM     12  C   UNL     1       8.126  -1.319  -0.351  0.00  0.00    +0.002 A 
ATOM     13  C   UNL     1       6.992  -1.439   0.392  0.00  0.00    +0.028 A 
ATOM     14  C   UNL     1       5.874  -2.109  -0.138  0.00  0.00    +0.074 A 
ATOM     15  N   UNL     1       4.763  -2.243   0.599  0.00  0.00    -0.244 NA
ATOM     16  C   UNL     1       2.468  -4.031  -1.728  0.00  0.00    +0.168 C 
ATOM     17  O   UNL     1       1.780  -3.438  -2.533  0.00  0.00    -0.292 OA
ATOM     18  C   UNL     1       2.039  -5.399  -1.251  0.00  0.00    +0.084 C 
ATOM     19  C   UNL     1       2.255  -5.502   0.273  0.00  0.00    +0.049 C 
ATOM     20  C   UNL     1      -0.363  -2.118   3.060  0.00  0.00    +0.071 C 
ENDROOT
BRANCH   8  21
ATOM     21  S   UNL     1       4.897  -3.957  -3.644  0.00  0.00    +0.152 S 
ATOM     22  O   UNL     1       6.193  -4.518  -3.808  0.00  0.00    -0.131 OA
ATOM     23  O   UNL     1       3.710  -4.718  -3.818  0.00  0.00    -0.131 OA
BRANCH  21  24
ATOM     24  O   UNL     1       4.806  -2.783  -4.608  0.00  0.00    -0.342 OA
BRANCH  24  25
ATOM     25  C   UNL     1       5.951  -2.057  -4.705  0.00  0.00    +0.157 A 
ATOM     26  C   UNL     1       6.089  -0.878  -3.986  0.00  0.00    +0.048 A 
ATOM     27  C   UNL     1       7.254  -0.142  -4.086  0.00  0.00    +0.004 A 
ATOM     28  C   UNL     1       8.282  -0.580  -4.902  0.00  0.00    +0.000 A 
ATOM     29  C   UNL     1       8.146  -1.754  -5.619  0.00  0.00    +0.004 A 
ATOM     30  C   UNL     1       6.986  -2.496  -5.518  0.00  0.00    +0.048 A 
ENDBRANCH  24  25
ENDBRANCH  21  24
ENDBRANCH   8  21
BRANCH   3  31
ATOM     31  O   UNL     1      -0.284  -4.984   2.038  0.00  0.00    -0.505 OA
ATOM     32  H   UNL     1      -1.014  -5.011   1.404  0.00  0.00    +0.292 HD
ENDBRANCH   3  31
BRANCH   1  33
ATOM     33  O   UNL     1       2.174  -0.805   1.918  0.00  0.00    -0.411 OA
BRANCH  33  35
ATOM     34  C   UNL     1       2.122   1.535   1.317  0.00  0.00    +0.051 C 
ATOM     35  C   UNL     1       1.649   0.123   0.967  0.00  0.00    +0.257 C 
ENDBRANCH  33  35
ENDBRANCH   1  33
TORSDOF 6
