REMARK  Name = ZINC28362630
REMARK  10 active torsions:
REMARK  status: ('A' for Active; 'I' for Inactive)
REMARK    1  A    between atoms: C_1  and  C_2
REMARK    2  A    between atoms: C_2  and  C_4
REMARK    3  A    between atoms: C_2  and  N_14
REMARK    4  A    between atoms: C_15  and  C_17
REMARK    5  A    between atoms: C_17  and  C_19
REMARK    6  A    between atoms: C_17  and  N_20
REMARK    7  A    between atoms: N_20  and  C_21
REMARK    8  A    between atoms: C_24  and  O_27
REMARK    9  A    between atoms: O_27  and  C_28
REMARK   10  A    between atoms: C_28  and  C_29
REMARK                            x       y       z     vdW  Elec       q    Type
REMARK                         _______ _______ _______ _____ _____    ______ ____
ROOT
ATOM      1  C   UNL     1      -2.995  -2.573   1.428  0.00  0.00    +0.154 C 
ATOM      2  C   UNL     1      -1.995  -2.540   2.586  0.00  0.00    +0.038 C 
ENDROOT
BRANCH   1   4
ATOM      3  N   UNL     1      -2.242  -0.414   0.483  0.00  0.00    -0.307 N 
ATOM      4  C   UNL     1      -3.257  -1.167   0.951  0.00  0.00    +0.233 C 
ATOM      5  O   UNL     1      -4.381  -0.714   0.989  0.00  0.00    -0.274 OA
ATOM      6  H   UNL     1      -1.223  -0.826   0.449  0.00  0.00    +0.149 HD
BRANCH   3   8
ATOM      7  C   UNL     1      -2.908   0.922  -1.454  0.00  0.00    +0.033 C 
ATOM      8  C   UNL     1      -2.497   0.952   0.019  0.00  0.00    +0.101 C 
BRANCH   8   9
ATOM      9  C   UNL     1      -1.245   1.776   0.175  0.00  0.00    -0.020 A 
ATOM     10  C   UNL     1      -0.023   1.176   0.153  0.00  0.00    +0.006 A 
ATOM     11  C   UNL     1       1.145   1.923   0.290  0.00  0.00    +0.001 A 
ATOM     12  C   UNL     1       1.099   3.273   0.454  0.00  0.00    +0.008 A 
ATOM     13  C   UNL     1      -0.144   3.927   0.487  0.00  0.00    -0.018 A 
ATOM     14  C   UNL     1      -1.333   3.168   0.348  0.00  0.00    -0.013 A 
ATOM     15  C   UNL     1      -2.576   3.822   0.381  0.00  0.00    +0.009 A 
ATOM     16  C   UNL     1      -2.623   5.172   0.544  0.00  0.00    +0.001 A 
ATOM     17  C   UNL     1      -1.454   5.919   0.681  0.00  0.00    +0.001 A 
ATOM     18  C   UNL     1      -0.232   5.320   0.654  0.00  0.00    +0.008 A 
ENDBRANCH   8   9
ENDBRANCH   3   8
ENDBRANCH   1   4
BRANCH   1  19
ATOM     19  N   UNL     1      -4.250  -3.175   1.885  0.00  0.00    -0.333 N 
ATOM     20  H   UNL     1      -5.074  -2.534   2.232  0.00  0.00    +0.147 HD
BRANCH  19  21
ATOM     21  C   UNL     1      -4.402  -4.566   1.877  0.00  0.00    +0.028 A 
ATOM     22  C   UNL     1      -3.365  -5.376   1.433  0.00  0.00    +0.026 A 
ATOM     23  C   UNL     1      -3.513  -6.749   1.431  0.00  0.00    +0.047 A 
ATOM     24  C   UNL     1      -4.701  -7.319   1.864  0.00  0.00    +0.121 A 
ATOM     25  C   UNL     1      -5.740  -6.511   2.303  0.00  0.00    +0.047 A 
ATOM     26  C   UNL     1      -5.591  -5.138   2.310  0.00  0.00    +0.026 A 
BRANCH  24  27
ATOM     27  O   UNL     1      -4.848  -8.671   1.857  0.00  0.00    -0.483 OA
BRANCH  27  28
ATOM     28  C   UNL     1      -3.739  -9.442   1.392  0.00  0.00    +0.324 C 
BRANCH  28  29
ATOM     29  C   UNL     1      -4.083 -10.908   1.456  0.00  0.00    +0.248 C 
ATOM     30  O   UNL     1      -5.172 -11.258   1.860  0.00  0.00    -0.272 OA
ATOM     31  N   UNL     1      -3.181 -11.830   1.065  0.00  0.00    -0.327 N 
ATOM     32  H   UNL     1      -3.433 -12.899   1.112  0.00  0.00    +0.145 HD
ATOM     33  H   UNL     1      -2.194 -11.512   0.699  0.00  0.00    +0.145 HD
ENDBRANCH  28  29
ENDBRANCH  27  28
ENDBRANCH  24  27
ENDBRANCH  19  21
ENDBRANCH   1  19
TORSDOF 8
