REMARK  Name = ZINC66426801
REMARK  11 active torsions:
REMARK  status: ('A' for Active; 'I' for Inactive)
REMARK    1  A    between atoms: C_1  and  C_2
REMARK    2  A    between atoms: C_5  and  C_8
REMARK    3  A    between atoms: C_8  and  N_9
REMARK    4  A    between atoms: N_12  and  C_13
REMARK    5  A    between atoms: C_13  and  C_14
REMARK    6  A    between atoms: N_16  and  C_17
REMARK    7  A    between atoms: C_20  and  C_29
REMARK    8  A    between atoms: C_21  and  C_23
REMARK    9  A    between atoms: N_25  and  C_26
REMARK   10  A    between atoms: C_26  and  C_27
REMARK   11  A    between atoms: C_26  and  C_28
REMARK                            x       y       z     vdW  Elec       q    Type
REMARK                         _______ _______ _______ _____ _____    ______ ____
ROOT
ATOM      1  C   UNL     1       4.854  -8.004   0.043  0.00  0.00    +0.234 C 
ATOM      2  O   UNL     1       5.640  -7.085  -0.051  0.00  0.00    -0.274 OA
ATOM      3  N   UNL     1       5.302  -9.274   0.068  0.00  0.00    -0.284 N 
ATOM      4  H   UNL     1       4.681 -10.005   0.215  0.00  0.00    +0.155 HD
ENDROOT
BRANCH   3   5
ATOM      5  C   UNL     1       6.663  -9.540  -0.120  0.00  0.00    +0.034 A 
ATOM      6  C   UNL     1       7.618  -8.663   0.381  0.00  0.00    +0.023 A 
ATOM      7  C   UNL     1       8.964  -8.921   0.198  0.00  0.00    +0.006 A 
ATOM      8  C   UNL     1       9.368 -10.051  -0.483  0.00  0.00    -0.038 A 
ATOM      9  C   UNL     1       8.418 -10.938  -0.989  0.00  0.00    +0.041 A 
ATOM     10  C   UNL     1       7.060 -10.681  -0.800  0.00  0.00    +0.036 A 
ATOM     11  C   UNL     1      10.837 -10.327  -0.680  0.00  0.00    +0.044 C 
BRANCH   9  12
ATOM     12  C   UNL     1       8.848 -12.150  -1.719  0.00  0.00    +0.245 C 
ATOM     13  O   UNL     1      10.028 -12.336  -1.945  0.00  0.00    -0.270 OA
ATOM     14  N   UNL     1       7.933 -13.048  -2.133  0.00  0.00    -0.309 N 
ATOM     15  H   UNL     1       6.991 -12.900  -1.953  0.00  0.00    +0.149 HD
BRANCH  14  16
ATOM     16  C   UNL     1       8.360 -14.249  -2.856  0.00  0.00    +0.067 C 
ATOM     17  C   UNL     1       7.317 -15.353  -2.671  0.00  0.00    +0.027 C 
ATOM     18  C   UNL     1       8.500 -13.925  -4.345  0.00  0.00    +0.027 C 
ENDBRANCH  14  16
ENDBRANCH   9  12
ENDBRANCH   3   5
BRANCH   1  19
ATOM     19  C   UNL     1       3.376  -7.724   0.134  0.00  0.00    +0.202 C 
BRANCH  19  23
ATOM     20  N   UNL     1       1.685  -4.459   0.109  0.00  0.00    -0.295 N 
ATOM     21  C   UNL     1       1.894  -5.790   0.152  0.00  0.00    +0.300 C 
ATOM     22  O   UNL     1       0.951  -6.550   0.251  0.00  0.00    -0.253 OA
ATOM     23  N   UNL     1       3.149  -6.277   0.087  0.00  0.00    -0.291 N 
ATOM     24  H   UNL     1       2.438  -3.852   0.031  0.00  0.00    +0.151 HD
ATOM     25  H   UNL     1       3.901  -5.671   0.008  0.00  0.00    +0.151 HD
BRANCH  20  26
ATOM     26  C   UNL     1       0.321  -3.929   0.181  0.00  0.00    +0.141 C 
BRANCH  26  31
ATOM     27  C   UNL     1       0.478   1.842  -0.081  0.00  0.00    +0.044 C 
ATOM     28  C   UNL     1       0.437   0.337  -0.012  0.00  0.00    -0.050 A 
ATOM     29  C   UNL     1       0.337  -0.405  -1.175  0.00  0.00    +0.003 A 
ATOM     30  C   UNL     1       0.299  -1.786  -1.112  0.00  0.00    +0.005 A 
ATOM     31  C   UNL     1       0.363  -2.424   0.112  0.00  0.00    -0.030 A 
ATOM     32  C   UNL     1       0.464  -1.682   1.274  0.00  0.00    +0.005 A 
ATOM     33  C   UNL     1       0.506  -0.302   1.212  0.00  0.00    +0.003 A 
ENDBRANCH  26  31
ENDBRANCH  20  26
ENDBRANCH  19  23
ENDBRANCH   1  19
TORSDOF 7
