REMARK  Name = ZINC54342852
REMARK  5 active torsions:
REMARK  status: ('A' for Active; 'I' for Inactive)
REMARK    1  A    between atoms: C_1  and  C_2
REMARK    2  A    between atoms: C_2  and  C_4
REMARK    3  A    between atoms: C_2  and  C_6
REMARK    4  A    between atoms: C_4  and  N_5
REMARK    5  A    between atoms: C_10  and  C_19
REMARK                            x       y       z     vdW  Elec       q    Type
REMARK                         _______ _______ _______ _____ _____    ______ ____
ROOT
ATOM      1  C   UNL     1       0.692  -0.550   1.115  0.00  0.00    +0.221 C 
ATOM      2  O   UNL     1       0.125  -0.252   0.085  0.00  0.00    -0.275 OA
ATOM      3  N   UNL     1       0.187  -0.154   2.300  0.00  0.00    -0.264 N 
ATOM      4  C   UNL     1       0.918  -0.392   3.557  0.00  0.00    +0.170 C 
ATOM      5  C   UNL     1       0.794   0.877   4.412  0.00  0.00    +0.303 C 
ATOM      6  O   UNL     1      -0.592   1.148   4.637  0.00  0.00    -0.474 OA
ATOM      7  C   UNL     1      -1.420   1.145   3.559  0.00  0.00    +0.143 A 
ATOM      8  C   UNL     1      -1.052   0.504   2.381  0.00  0.00    +0.078 A 
ATOM      9  C   UNL     1      -1.907   0.511   1.290  0.00  0.00    +0.027 A 
ATOM     10  C   UNL     1      -3.124   1.162   1.373  0.00  0.00    +0.002 A 
ATOM     11  C   UNL     1      -3.486   1.806   2.541  0.00  0.00    +0.004 A 
ATOM     12  C   UNL     1      -2.644   1.792   3.633  0.00  0.00    +0.047 A 
ENDROOT
BRANCH   5  13
ATOM     13  C   UNL     1       1.490   0.667   5.732  0.00  0.00    +0.397 C 
ATOM     14  O   UNL     1       2.698   0.501   5.765  0.00  0.00    -0.242 OA
ATOM     15  O   UNL     1       0.846   0.662   6.768  0.00  0.00    -0.242 OA
ENDBRANCH   5  13
BRANCH   1  17
ATOM     16  C   UNL     1       1.628  -2.839   1.295  0.00  0.00    +0.015 C 
ATOM     17  C   UNL     1       1.960  -1.362   1.069  0.00  0.00    +0.055 C 
BRANCH  17  18
ATOM     18  C   UNL     1       2.625  -1.193  -0.298  0.00  0.00    -0.074 C 
BRANCH  18  19
ATOM     19  N   UNL     1       3.920  -1.887  -0.303  0.00  0.00    +0.379 N 
ATOM     20  H   UNL     1       4.514  -1.494   0.411  0.00  0.00    -0.090 HD
ATOM     21  H   UNL     1       3.776  -2.869  -0.118  0.00  0.00    -0.090 HD
ATOM     22  H   UNL     1       4.358  -1.775  -1.205  0.00  0.00    -0.090 HD
ENDBRANCH  18  19
ENDBRANCH  17  18
ENDBRANCH   1  17
TORSDOF 4
