REMARK  Name = ZINC63492299
REMARK  14 active torsions:
REMARK  status: ('A' for Active; 'I' for Inactive)
REMARK    1  A    between atoms: C_1  and  C_2
REMARK    2  A    between atoms: C_2  and  C_3
REMARK    3  A    between atoms: C_2  and  C_4
REMARK    4  A    between atoms: C_4  and  N_5
REMARK    5  A    between atoms: C_6  and  N_29
REMARK    6  A    between atoms: C_7  and  C_14
REMARK    7  A    between atoms: C_14  and  C_16
REMARK    8  A    between atoms: C_16  and  N_17
REMARK    9  A    between atoms: N_17  and  C_18
REMARK   10  A    between atoms: N_17  and  C_19
REMARK   11  A    between atoms: C_19  and  C_20
REMARK   12  A    between atoms: C_19  and  C_21
REMARK   13  A    between atoms: C_24  and  O_27
REMARK   14  A    between atoms: O_27  and  C_28
REMARK                            x       y       z     vdW  Elec       q    Type
REMARK                         _______ _______ _______ _____ _____    ______ ____
ROOT
ATOM      1  N   UNL     1      -2.063  -0.312  -1.321  0.00  0.00    -0.281 N 
ATOM      2  C   UNL     1      -2.697   0.891  -1.189  0.00  0.00    +0.116 A 
ATOM      3  C   UNL     1      -3.383   1.423  -2.295  0.00  0.00    +0.118 A 
ATOM      4  C   UNL     1      -3.380   0.647  -3.542  0.00  0.00    +0.266 A 
ATOM      5  O   UNL     1      -3.957   1.059  -4.531  0.00  0.00    -0.267 OA
ATOM      6  N   UNL     1      -2.724  -0.531  -3.569  0.00  0.00    -0.274 N 
ATOM      7  H   UNL     1      -2.713  -1.054  -4.386  0.00  0.00    +0.173 HD
ATOM      8  C   UNL     1      -2.080  -0.986  -2.482  0.00  0.00    +0.331 A 
ATOM      9  O   UNL     1      -1.497  -2.050  -2.549  0.00  0.00    -0.246 OA
ENDROOT
BRANCH   2  10
ATOM     10  N   UNL     1      -2.664   1.563  -0.007  0.00  0.00    -0.344 N 
ATOM     11  H   UNL     1      -2.263   1.152   0.774  0.00  0.00    +0.144 HD
ATOM     12  H   UNL     1      -3.043   2.454   0.055  0.00  0.00    +0.144 HD
ENDBRANCH   2  10
BRANCH   3  13
ATOM     13  C   UNL     1      -4.053   2.661  -2.209  0.00  0.00    +0.155 C 
ATOM     14  O   UNL     1      -3.954   3.337  -1.205  0.00  0.00    -0.294 OA
BRANCH  13  15
ATOM     15  C   UNL     1      -4.893   3.145  -3.363  0.00  0.00    +0.003 C 
BRANCH  15  16
ATOM     16  N   UNL     1      -5.480   4.449  -3.028  0.00  0.00    +0.387 N 
ATOM     17  C   UNL     1      -6.415   4.292  -1.906  0.00  0.00    -0.095 C 
ATOM     18  H   UNL     1      -4.747   5.091  -2.767  0.00  0.00    -0.081 HD
BRANCH  16  19
ATOM     19  C   UNL     1      -6.200   4.977  -4.195  0.00  0.00    -0.041 C 
ATOM     20  C   UNL     1      -6.812   6.335  -3.847  0.00  0.00    -0.008 C 
BRANCH  19  21
ATOM     21  C   UNL     1      -5.240   5.138  -5.346  0.00  0.00    -0.061 A 
ATOM     22  C   UNL     1      -3.962   5.611  -5.117  0.00  0.00    +0.005 A 
ATOM     23  C   UNL     1      -3.080   5.761  -6.170  0.00  0.00    +0.046 A 
ATOM     24  C   UNL     1      -3.479   5.436  -7.459  0.00  0.00    +0.120 A 
ATOM     25  C   UNL     1      -4.763   4.961  -7.686  0.00  0.00    +0.046 A 
ATOM     26  C   UNL     1      -5.639   4.808  -6.628  0.00  0.00    +0.005 A 
BRANCH  24  27
ATOM     27  O   UNL     1      -2.614   5.582  -8.497  0.00  0.00    -0.495 OA
ATOM     28  C   UNL     1      -3.094   5.228  -9.796  0.00  0.00    +0.277 C 
ENDBRANCH  24  27
ENDBRANCH  19  21
ENDBRANCH  16  19
ENDBRANCH  15  16
ENDBRANCH  13  15
ENDBRANCH   3  13
BRANCH   1  29
ATOM     29  C   UNL     1      -1.345  -0.874  -0.175  0.00  0.00    +0.131 C 
BRANCH  29  31
ATOM     30  C   UNL     1       0.135   1.130   0.016  0.00  0.00    +0.009 C 
ATOM     31  C   UNL     1       0.105  -0.385  -0.192  0.00  0.00    +0.003 C 
ATOM     32  C   UNL     1       0.887  -1.069   0.931  0.00  0.00    +0.009 C 
ENDBRANCH  29  31
ENDBRANCH   1  29
TORSDOF 9
