REMARK  Name = ZINC66189447
REMARK  5 active torsions:
REMARK  status: ('A' for Active; 'I' for Inactive)
REMARK    1  A    between atoms: C_3  and  C_16
REMARK    2  A    between atoms: C_5  and  N_7
REMARK    3  A    between atoms: C_8  and  C_10
REMARK    4  A    between atoms: C_16  and  N_17
REMARK    5  A    between atoms: C_23  and  N_26
REMARK                            x       y       z     vdW  Elec       q    Type
REMARK                         _______ _______ _______ _____ _____    ______ ____
ROOT
ATOM      1  C   UNL     1       3.657   2.200  -0.029  0.00  0.00    +0.141 C 
ENDROOT
BRANCH   1   2
ATOM      2  N   UNL     1       4.082   2.452   1.350  0.00  0.00    -0.295 N 
ATOM      3  C   UNL     1       5.216   3.139   1.591  0.00  0.00    +0.302 C 
ATOM      4  O   UNL     1       5.887   3.549   0.664  0.00  0.00    -0.253 OA
ATOM      5  N   UNL     1       5.607   3.371   2.860  0.00  0.00    -0.287 N 
ATOM      6  C   UNL     1       4.897   2.929   4.069  0.00  0.00    +0.108 C 
ATOM      7  C   UNL     1       5.726   3.397   5.284  0.00  0.00    +0.005 C 
ATOM      8  C   UNL     1       7.145   3.584   4.685  0.00  0.00    -0.049 C 
ATOM      9  C   UNL     1       6.820   4.105   3.265  0.00  0.00    +0.094 C 
ATOM     10  H   UNL     1       3.546   2.125   2.090  0.00  0.00    +0.151 HD
BRANCH   8  11
ATOM     11  N   UNL     1       7.913   4.575   5.450  0.00  0.00    +0.383 N 
ATOM     12  C   UNL     1       8.131   4.095   6.838  0.00  0.00    -0.078 C 
ATOM     13  C   UNL     1       9.363   4.909   7.306  0.00  0.00    -0.020 C 
ATOM     14  C   UNL     1      10.236   4.978   6.032  0.00  0.00    -0.020 C 
ATOM     15  C   UNL     1       9.261   4.739   4.864  0.00  0.00    -0.078 C 
ATOM     16  H   UNL     1       7.428   5.460   5.459  0.00  0.00    -0.081 HD
ENDBRANCH   8  11
ENDBRANCH   1   2
BRANCH   1  19
ATOM     17  C   UNL     1      -0.028   1.373  -0.012  0.00  0.00    +0.002 A 
ATOM     18  C   UNL     1       1.157   2.086  -0.017  0.00  0.00    +0.005 A 
ATOM     19  C   UNL     1       2.368   1.419  -0.023  0.00  0.00    -0.029 A 
ATOM     20  C   UNL     1       2.398   0.038  -0.025  0.00  0.00    +0.028 A 
ATOM     21  C   UNL     1       1.210  -0.681  -0.020  0.00  0.00    +0.034 A 
ATOM     22  C   UNL     1      -0.005  -0.008  -0.013  0.00  0.00    +0.023 A 
BRANCH  21  23
ATOM     23  N   UNL     1       1.237  -2.080  -0.021  0.00  0.00    -0.283 N 
ATOM     24  C   UNL     1       0.299  -2.773   0.653  0.00  0.00    +0.246 C 
ATOM     25  O   UNL     1      -0.617  -2.187   1.192  0.00  0.00    -0.273 OA
ATOM     26  H   UNL     1       1.932  -2.551  -0.508  0.00  0.00    +0.155 HD
BRANCH  24  27
ATOM     27  C   UNL     1       0.387  -4.275   0.738  0.00  0.00    +0.204 C 
ATOM     28  C   UNL     1       1.629  -4.694   1.565  0.00  0.00    +0.043 C 
ATOM     29  C   UNL     1       1.190  -6.099   2.063  0.00  0.00    +0.031 C 
ATOM     30  C   UNL     1      -0.330  -5.917   2.257  0.00  0.00    +0.161 C 
ATOM     31  O   UNL     1      -0.740  -4.800   1.457  0.00  0.00    -0.367 OA
ENDBRANCH  24  27
ENDBRANCH  21  23
ENDBRANCH   1  19
TORSDOF 5
