REMARK  Name = ZINC13060999
REMARK  13 active torsions:
REMARK  status: ('A' for Active; 'I' for Inactive)
REMARK    1  A    between atoms: C_1  and  N_62
REMARK    2  A    between atoms: C_2  and  C_3
REMARK    3  A    between atoms: C_2  and  N_62
REMARK    4  A    between atoms: C_9  and  C_10
REMARK    5  A    between atoms: C_9  and  N_62
REMARK    6  A    between atoms: N_12  and  C_13
REMARK    7  A    between atoms: N_12  and  C_17
REMARK    8  A    between atoms: C_13  and  C_14
REMARK    9  A    between atoms: C_14  and  O_15
REMARK   10  A    between atoms: O_15  and  C_16
REMARK   11  A    between atoms: C_18  and  N_33
REMARK   12  A    between atoms: N_19  and  C_26
REMARK   13  A    between atoms: C_26  and  C_27
REMARK                            x       y       z     vdW  Elec       q    Type
REMARK                         _______ _______ _______ _____ _____    ______ ____
ROOT
ATOM      1  C   UNL     1       1.008  -4.072   4.442  0.00  0.00    +0.140 A 
ATOM      2  C   UNL     1       2.020  -3.530   5.207  0.00  0.00    +0.128 A 
ATOM      3  N   UNL     1       2.243  -4.021   6.472  0.00  0.00    -0.276 N 
ATOM      4  C   UNL     1       1.490  -5.026   6.954  0.00  0.00    +0.331 A 
ATOM      5  O   UNL     1       1.706  -5.450   8.073  0.00  0.00    -0.246 OA
ATOM      6  N   UNL     1       0.502  -5.571   6.221  0.00  0.00    -0.273 N 
ATOM      7  H   UNL     1      -0.043  -6.317   6.604  0.00  0.00    +0.173 HD
ATOM      8  C   UNL     1       0.239  -5.123   4.978  0.00  0.00    +0.277 A 
ATOM      9  O   UNL     1      -0.658  -5.623   4.322  0.00  0.00    -0.266 OA
ENDROOT
BRANCH   1  12
ATOM     10  C   UNL     1       0.357  -2.308   2.966  0.00  0.00    +0.203 C 
ATOM     11  O   UNL     1       0.143  -1.601   3.928  0.00  0.00    -0.277 OA
ATOM     12  N   UNL     1       0.751  -3.587   3.142  0.00  0.00    -0.264 N 
BRANCH  10  13
ATOM     13  C   UNL     1       0.184  -1.759   1.573  0.00  0.00    +0.019 C 
BRANCH  13  15
ATOM     14  C   UNL     1      -1.590  -0.250   2.238  0.00  0.00    -0.095 C 
ATOM     15  N   UNL     1      -0.229  -0.343   1.667  0.00  0.00    +0.386 N 
ATOM     16  H   UNL     1       0.425   0.155   2.283  0.00  0.00    -0.081 HD
BRANCH  15  17
ATOM     17  C   UNL     1      -0.199   0.282   0.328  0.00  0.00    -0.043 C 
BRANCH  17  18
ATOM     18  C   UNL     1      -0.407   1.767   0.480  0.00  0.00    -0.064 A 
ATOM     19  C   UNL     1      -1.683   2.296   0.427  0.00  0.00    +0.002 A 
ATOM     20  C   UNL     1      -1.874   3.657   0.571  0.00  0.00    +0.000 A 
ATOM     21  C   UNL     1      -0.788   4.492   0.758  0.00  0.00    +0.000 A 
ATOM     22  C   UNL     1       0.488   3.964   0.806  0.00  0.00    +0.000 A 
ATOM     23  C   UNL     1       0.679   2.602   0.667  0.00  0.00    +0.002 A 
ENDBRANCH  17  18
ENDBRANCH  15  17
ENDBRANCH  13  15
ENDBRANCH  10  13
BRANCH  12  24
ATOM     24  C   UNL     1       0.912  -4.470   1.985  0.00  0.00    +0.142 C 
BRANCH  24  25
ATOM     25  C   UNL     1       2.341  -4.356   1.451  0.00  0.00    +0.178 C 
BRANCH  25  26
ATOM     26  O   UNL     1       3.257  -4.847   2.431  0.00  0.00    -0.381 OA
ATOM     27  C   UNL     1       4.627  -4.784   2.030  0.00  0.00    +0.194 C 
ENDBRANCH  25  26
ENDBRANCH  24  25
ENDBRANCH  12  24
ENDBRANCH   1  12
BRANCH   2  28
ATOM     28  N   UNL     1       2.794  -2.507   4.712  0.00  0.00    -0.343 N 
ATOM     29  H   UNL     1       2.702  -2.234   3.785  0.00  0.00    +0.144 HD
ATOM     30  H   UNL     1       3.431  -2.059   5.289  0.00  0.00    +0.144 HD
ENDBRANCH   2  28
BRANCH   3  31
ATOM     31  C   UNL     1       3.310  -3.450   7.297  0.00  0.00    +0.163 C 
BRANCH  31  32
ATOM     32  C   UNL     1       4.594  -4.199   7.045  0.00  0.00    -0.028 A 
ATOM     33  C   UNL     1       4.913  -5.302   7.814  0.00  0.00    +0.005 A 
ATOM     34  C   UNL     1       6.088  -5.991   7.580  0.00  0.00    +0.000 A 
ATOM     35  C   UNL     1       6.950  -5.570   6.584  0.00  0.00    +0.000 A 
ATOM     36  C   UNL     1       6.633  -4.464   5.819  0.00  0.00    +0.000 A 
ATOM     37  C   UNL     1       5.455  -3.778   6.049  0.00  0.00    +0.005 A 
ENDBRANCH  31  32
ENDBRANCH   3  31
TORSDOF 11
