REMARK  Name = ZINC39933392
REMARK  10 active torsions:
REMARK  status: ('A' for Active; 'I' for Inactive)
REMARK    1  A    between atoms: C_1  and  C_2
REMARK    2  A    between atoms: C_2  and  C_4
REMARK    3  A    between atoms: C_2  and  N_14
REMARK    4  A    between atoms: C_7  and  S_10
REMARK    5  A    between atoms: S_10  and  N_13
REMARK    6  A    between atoms: C_15  and  C_17
REMARK    7  A    between atoms: C_17  and  S_18
REMARK    8  A    between atoms: S_18  and  C_19
REMARK    9  A    between atoms: C_23  and  C_28
REMARK   10  A    between atoms: N_24  and  C_25
REMARK                            x       y       z     vdW  Elec       q    Type
REMARK                         _______ _______ _______ _____ _____    ______ ____
ROOT
ATOM      1  S   UNL     1      -3.937  -1.530  -2.721  0.00  0.00    -0.109 S 
ENDROOT
BRANCH   1   2
ATOM      2  C   UNL     1      -5.716  -1.865  -2.610  0.00  0.00    +0.237 C 
ATOM      3  N   UNL     1      -6.348  -0.972  -1.625  0.00  0.00    -0.237 N 
ATOM      4  N   UNL     1      -6.888  -1.795  -0.630  0.00  0.00    -0.169 NA
ATOM      5  C   UNL     1      -6.665  -3.057  -0.886  0.00  0.00    +0.147 C 
ATOM      6  N   UNL     1      -5.953  -3.218  -2.081  0.00  0.00    -0.282 N 
ATOM      7  H   UNL     1      -6.383  -0.003  -1.658  0.00  0.00    +0.171 HD
BRANCH   5   8
ATOM      8  C   UNL     1      -7.086  -4.117  -0.068  0.00  0.00    +0.022 C 
ATOM      9  C   UNL     1      -7.880  -4.035   1.077  0.00  0.00    +0.006 A 
ATOM     10  C   UNL     1      -8.480  -2.946   1.744  0.00  0.00    +0.010 A 
ATOM     11  C   UNL     1      -9.218  -3.166   2.863  0.00  0.00    +0.001 A 
ATOM     12  C   UNL     1      -9.402  -4.452   3.377  0.00  0.00    +0.002 A 
ATOM     13  C   UNL     1      -8.855  -5.543   2.787  0.00  0.00    +0.026 A 
ATOM     14  C   UNL     1      -8.071  -5.392   1.614  0.00  0.00    +0.043 A 
ATOM     15  N   UNL     1      -7.442  -6.277   0.865  0.00  0.00    -0.380 N 
ATOM     16  C   UNL     1      -6.780  -5.588  -0.246  0.00  0.00    +0.152 C 
ATOM     17  H   UNL     1      -7.425  -7.234   1.022  0.00  0.00    +0.160 HD
ENDBRANCH   5   8
BRANCH   6  18
ATOM     18  C   UNL     1      -5.526  -4.482  -2.686  0.00  0.00    +0.078 C 
ATOM     19  C   UNL     1      -4.679  -4.406  -3.958  0.00  0.00    +0.024 C 
ATOM     20  C   UNL     1      -6.138  -4.861  -4.037  0.00  0.00    +0.024 C 
ENDBRANCH   6  18
ENDBRANCH   1   2
BRANCH   1  21
ATOM     21  C   UNL     1      -3.342  -1.748  -1.021  0.00  0.00    +0.168 C 
BRANCH  21  23
ATOM     22  N   UNL     1      -1.194  -1.600   0.197  0.00  0.00    -0.308 N 
ATOM     23  C   UNL     1      -1.857  -1.495  -0.972  0.00  0.00    +0.223 C 
ATOM     24  O   UNL     1      -1.259  -1.197  -1.984  0.00  0.00    -0.275 OA
ATOM     25  H   UNL     1      -1.672  -1.839   1.006  0.00  0.00    +0.149 HD
BRANCH  22  27
ATOM     26  C   UNL     1       0.507   0.145   0.402  0.00  0.00    +0.033 C 
ATOM     27  C   UNL     1       0.250  -1.355   0.244  0.00  0.00    +0.100 C 
BRANCH  27  28
ATOM     28  C   UNL     1       0.847  -2.092   1.415  0.00  0.00    -0.027 A 
ATOM     29  C   UNL     1       0.168  -2.143   2.618  0.00  0.00    +0.007 A 
ATOM     30  C   UNL     1       0.716  -2.820   3.692  0.00  0.00    +0.029 A 
ATOM     31  C   UNL     1       1.941  -3.446   3.563  0.00  0.00    +0.105 A 
ATOM     32  C   UNL     1       2.619  -3.396   2.359  0.00  0.00    +0.029 A 
ATOM     33  C   UNL     1       2.070  -2.723   1.284  0.00  0.00    +0.007 A 
BRANCH  31  34
ATOM     34  S   UNL     1       2.639  -4.308   4.932  0.00  0.00    +0.056 S 
ATOM     35  O   UNL     1       4.043  -4.344   4.715  0.00  0.00    -0.153 OA
ATOM     36  O   UNL     1       2.064  -3.744   6.103  0.00  0.00    -0.153 OA
BRANCH  34  37
ATOM     37  N   UNL     1       2.107  -5.873   4.848  0.00  0.00    -0.204 NA
ATOM     38  H   UNL     1       1.518  -6.148   4.128  0.00  0.00    +0.144 HD
ATOM     39  H   UNL     1       2.383  -6.516   5.521  0.00  0.00    +0.144 HD
ENDBRANCH  34  37
ENDBRANCH  31  34
ENDBRANCH  27  28
ENDBRANCH  22  27
ENDBRANCH  21  23
ENDBRANCH   1  21
TORSDOF 9
