REMARK  Name = ZINC59020084
REMARK  8 active torsions:
REMARK  status: ('A' for Active; 'I' for Inactive)
REMARK    1  A    between atoms: C_1  and  C_2
REMARK    2  A    between atoms: C_5  and  N_9
REMARK    3  A    between atoms: C_10  and  C_12
REMARK    4  A    between atoms: C_12  and  S_13
REMARK    5  A    between atoms: S_13  and  C_14
REMARK    6  A    between atoms: N_19  and  N_20
REMARK    7  A    between atoms: C_21  and  C_22
REMARK    8  A    between atoms: C_25  and  C_27
REMARK                            x       y       z     vdW  Elec       q    Type
REMARK                         _______ _______ _______ _____ _____    ______ ____
ROOT
ATOM      1  C   UNL     1       0.590  -8.714   2.628  0.00  0.00    +0.211 A 
ATOM      2  N   UNL     1       0.711  -9.596   3.626  0.00  0.00    -0.186 NA
ATOM      3  C   UNL     1       0.797 -10.814   3.132  0.00  0.00    +0.232 A 
ATOM      4  N   UNL     1       0.730 -10.724   1.787  0.00  0.00    -0.245 N 
ATOM      5  N   UNL     1       0.592  -9.359   1.486  0.00  0.00    -0.144 NA
ATOM      6  N   UNL     1       0.931 -11.979   3.863  0.00  0.00    -0.205 N 
ATOM      7  H   UNL     1       0.987 -12.834   3.408  0.00  0.00    +0.177 HD
ATOM      8  H   UNL     1       0.767 -11.457   1.153  0.00  0.00    +0.192 HD
ENDROOT
BRANCH   6   9
ATOM      9  N   UNL     1       0.987 -11.926   5.262  0.00  0.00    -0.184 NA
ATOM     10  C   UNL     1       1.114 -13.023   5.950  0.00  0.00    +0.176 C 
BRANCH  10  11
ATOM     11  C   UNL     1       1.173 -12.967   7.414  0.00  0.00    +0.148 A 
ATOM     12  C   UNL     1       1.309 -14.036   8.252  0.00  0.00    +0.051 A 
ATOM     13  C   UNL     1       1.319 -13.523   9.563  0.00  0.00    +0.045 A 
ATOM     14  C   UNL     1       1.190 -12.185   9.466  0.00  0.00    +0.103 A 
ATOM     15  O   UNL     1       1.107 -11.852   8.168  0.00  0.00    -0.459 OA
ATOM     16  C   UNL     1       1.152 -11.221  10.624  0.00  0.00    +0.086 C 
ENDBRANCH  10  11
ENDBRANCH   6   9
BRANCH   1  17
ATOM     17  S   UNL     1       0.443  -6.968   2.817  0.00  0.00    -0.075 S 
BRANCH  17  18
ATOM     18  C   UNL     1       0.306  -6.353   1.116  0.00  0.00    +0.173 C 
BRANCH  18  20
ATOM     19  N   UNL     1       0.057  -4.171  -0.023  0.00  0.00    -0.285 N 
ATOM     20  C   UNL     1       0.174  -4.852   1.134  0.00  0.00    +0.227 C 
ATOM     21  O   UNL     1       0.172  -4.256   2.191  0.00  0.00    -0.275 OA
ATOM     22  H   UNL     1      -0.018  -4.652  -0.863  0.00  0.00    +0.155 HD
BRANCH  19  27
ATOM     23  C   UNL     1       0.013   1.503   0.016  0.00  0.00    +0.047 C 
ATOM     24  C   UNL     1       0.024  -0.004   0.005  0.00  0.00    -0.015 A 
ATOM     25  C   UNL     1       0.778  -0.695   0.935  0.00  0.00    +0.008 A 
ATOM     26  C   UNL     1       0.791  -2.076   0.928  0.00  0.00    +0.024 A 
ATOM     27  C   UNL     1       0.045  -2.772  -0.014  0.00  0.00    +0.036 A 
ATOM     28  C   UNL     1      -0.713  -2.078  -0.947  0.00  0.00    +0.062 A 
ATOM     29  C   UNL     1      -0.726  -0.694  -0.932  0.00  0.00    +0.128 A 
ATOM     30  F   UNL     1      -1.467  -0.016  -1.836  0.00  0.00    -0.205 F 
ENDBRANCH  19  27
ENDBRANCH  18  20
ENDBRANCH  17  18
ENDBRANCH   1  17
TORSDOF 6
