REMARK  Name = ZINC33171879
REMARK  7 active torsions:
REMARK  status: ('A' for Active; 'I' for Inactive)
REMARK    1  A    between atoms: C_1  and  C_2
REMARK    2  A    between atoms: C_8  and  N_10
REMARK    3  A    between atoms: C_11  and  C_13
REMARK    4  A    between atoms: C_14  and  N_29
REMARK    5  A    between atoms: C_15  and  C_18
REMARK    6  A    between atoms: N_20  and  C_21
REMARK    7  A    between atoms: C_21  and  C_22
REMARK                            x       y       z     vdW  Elec       q    Type
REMARK                         _______ _______ _______ _____ _____    ______ ____
ROOT
ATOM      1  C   UNL     1       4.575   5.522  -0.013  0.00  0.00    +0.115 A 
ATOM      2  C   UNL     1       3.212   5.222  -0.006  0.00  0.00    +0.076 A 
ATOM      3  C   UNL     1       2.967   3.849  -0.006  0.00  0.00    +0.156 A 
ATOM      4  N   UNL     1       3.983   3.014  -0.020  0.00  0.00    -0.203 NA
ATOM      5  S   UNL     1       5.292   3.892  -0.029  0.00  0.00    +0.019 S 
ENDROOT
BRANCH   1   7
ATOM      6  N   UNL     1       6.584   6.900  -0.025  0.00  0.00    -0.308 N 
ATOM      7  C   UNL     1       5.239   6.827  -0.012  0.00  0.00    +0.254 C 
ATOM      8  O   UNL     1       4.574   7.847  -0.001  0.00  0.00    -0.270 OA
ATOM      9  H   UNL     1       7.185   5.978  -0.036  0.00  0.00    +0.149 HD
BRANCH   6  16
ATOM     10  C   UNL     1       8.546   7.547   2.005  0.00  0.00    +0.009 C 
ATOM     11  C   UNL     1       8.650   8.066   0.570  0.00  0.00    +0.006 C 
ATOM     12  C   UNL     1       9.465   7.080  -0.271  0.00  0.00    +0.005 C 
ATOM     13  C   UNL     1       9.569   7.599  -1.706  0.00  0.00    +0.000 C 
ATOM     14  C   UNL     1       8.167   7.739  -2.301  0.00  0.00    +0.002 C 
ATOM     15  C   UNL     1       7.352   8.725  -1.461  0.00  0.00    +0.022 C 
ATOM     16  C   UNL     1       7.248   8.206  -0.025  0.00  0.00    +0.076 C 
ENDBRANCH   6  16
ENDBRANCH   1   7
BRANCH   3  17
ATOM     17  C   UNL     1       1.584   3.338   0.005  0.00  0.00    +0.265 C 
ATOM     18  O   UNL     1       0.649   4.116   0.018  0.00  0.00    -0.268 OA
ATOM     19  N   UNL     1       1.356   2.010  -0.000  0.00  0.00    -0.306 N 
ATOM     20  H   UNL     1       2.202   1.307  -0.012  0.00  0.00    +0.149 HD
BRANCH  19  21
ATOM     21  C   UNL     1      -0.018   1.503   0.010  0.00  0.00    +0.141 C 
BRANCH  21  22
ATOM     22  C   UNL     1       0.002  -0.004   0.002  0.00  0.00    -0.012 A 
ATOM     23  C   UNL     1      -0.287  -0.706   1.157  0.00  0.00    +0.006 A 
ATOM     24  C   UNL     1      -0.268  -2.088   1.150  0.00  0.00    +0.000 A 
ATOM     25  C   UNL     1       0.040  -2.769  -0.013  0.00  0.00    +0.001 A 
ATOM     26  C   UNL     1       0.329  -2.069  -1.169  0.00  0.00    +0.020 A 
ATOM     27  C   UNL     1       0.305  -0.685  -1.163  0.00  0.00    +0.046 A 
ATOM     28 CL   UNL     1       0.661   0.195  -2.616  0.00  0.00    -0.083 Cl
ENDBRANCH  21  22
ENDBRANCH  19  21
ENDBRANCH   3  17
BRANCH   2  29
ATOM     29  N   UNL     1       2.211   6.184   0.004  0.00  0.00    -0.355 N 
ATOM     30  H   UNL     1       1.154   5.878   0.009  0.00  0.00    +0.142 HD
ATOM     31  H   UNL     1       2.474   7.252   0.007  0.00  0.00    +0.142 HD
ENDBRANCH   2  29
TORSDOF 6
