REMARK  Name = ZINC49391570
REMARK  6 active torsions:
REMARK  status: ('A' for Active; 'I' for Inactive)
REMARK    1  A    between atoms: C_1  and  C_2
REMARK    2  A    between atoms: C_2  and  C_3
REMARK    3  A    between atoms: C_2  and  C_4
REMARK    4  A    between atoms: C_4  and  C_20
REMARK    5  A    between atoms: N_7  and  C_11
REMARK    6  A    between atoms: C_11  and  C_12
REMARK                            x       y       z     vdW  Elec       q    Type
REMARK                         _______ _______ _______ _____ _____    ______ ____
ROOT
ATOM      1  C   UNL     1      -1.433  -0.534   0.013  0.00  0.00    +0.112 C 
ATOM      2  C   UNL     1      -1.442  -2.049   0.020  0.00  0.00    +0.247 C 
ATOM      3  O   UNL     1      -0.981  -2.780   0.871  0.00  0.00    -0.273 OA
ATOM      4  N   UNL     1      -2.071  -2.416  -1.114  0.00  0.00    -0.220 N 
ATOM      5  C   UNL     1      -2.456  -1.353  -1.830  0.00  0.00    +0.310 C 
ATOM      6  O   UNL     1      -3.042  -1.430  -2.892  0.00  0.00    -0.252 OA
ATOM      7  N   UNL     1      -2.122  -0.189  -1.243  0.00  0.00    -0.285 N 
ATOM      8  C   UNL     1      -2.200   0.018   1.216  0.00  0.00    +0.042 C 
ATOM      9  H   UNL     1      -2.301   0.702  -1.580  0.00  0.00    +0.151 HD
ENDROOT
BRANCH   1  11
ATOM     10  C   UNL     1      -0.019   1.526   0.010  0.00  0.00    +0.010 C 
ATOM     11  C   UNL     1       0.002  -0.004   0.002  0.00  0.00    +0.015 C 
ATOM     12  C   UNL     1       0.742  -0.511   1.242  0.00  0.00    +0.010 C 
ENDBRANCH   1  11
BRANCH   4  13
ATOM     13  C   UNL     1      -2.303  -3.805  -1.515  0.00  0.00    +0.156 C 
BRANCH  13  14
ATOM     14  C   UNL     1      -3.627  -4.272  -0.966  0.00  0.00    +0.007 A 
ATOM     15  C   UNL     1      -3.667  -5.040   0.182  0.00  0.00    +0.023 A 
ATOM     16  C   UNL     1      -4.882  -5.468   0.686  0.00  0.00    +0.018 A 
ATOM     17  C   UNL     1      -6.057  -5.128   0.041  0.00  0.00    +0.018 A 
ATOM     18  C   UNL     1      -6.019  -4.361  -1.108  0.00  0.00    +0.040 A 
ATOM     19  C   UNL     1      -4.803  -3.927  -1.609  0.00  0.00    +0.128 A 
ATOM     20  F   UNL     1      -4.765  -3.172  -2.729  0.00  0.00    -0.205 F 
ATOM     21 BR   UNL     1      -4.936  -6.519   2.257  0.00  0.00    -0.050 Br
ENDBRANCH  13  14
ENDBRANCH   4  13
TORSDOF 3
