REMARK  Name = ZINC33917311
REMARK  12 active torsions:
REMARK  status: ('A' for Active; 'I' for Inactive)
REMARK    1  A    between atoms: C_1  and  C_2
REMARK    2  A    between atoms: C_2  and  O_3
REMARK    3  A    between atoms: O_3  and  C_4
REMARK    4  A    between atoms: C_7  and  N_10
REMARK    5  A    between atoms: N_10  and  C_11
REMARK    6  A    between atoms: C_11  and  N_24
REMARK    7  A    between atoms: C_12  and  C_13
REMARK    8  A    between atoms: C_12  and  N_21
REMARK    9  A    between atoms: C_14  and  N_15
REMARK   10  A    between atoms: N_15  and  C_16
REMARK   11  A    between atoms: C_16  and  C_17
REMARK   12  A    between atoms: C_17  and  N_18
REMARK                            x       y       z     vdW  Elec       q    Type
REMARK                         _______ _______ _______ _____ _____    ______ ____
ROOT
ATOM      1  C   UNL     1      -3.150  -6.396   0.084  0.00  0.00    +0.159 C 
ATOM      2  C   UNL     1      -3.159  -7.865   0.110  0.00  0.00    +0.187 C 
ENDROOT
BRANCH   1   3
ATOM      3  N   UNL     1      -4.321  -5.704   0.222  0.00  0.00    -0.196 N 
ATOM      4  C   UNL     1      -4.580  -4.421  -0.222  0.00  0.00    +0.096 A 
ATOM      5  C   UNL     1      -3.833  -3.465  -0.897  0.00  0.00    +0.030 A 
ATOM      6  C   UNL     1      -4.400  -2.245  -1.201  0.00  0.00    +0.002 A 
ATOM      7  C   UNL     1      -5.710  -1.969  -0.837  0.00  0.00    +0.002 A 
ATOM      8  C   UNL     1      -6.460  -2.897  -0.172  0.00  0.00    +0.032 A 
ATOM      9  C   UNL     1      -5.907  -4.142   0.147  0.00  0.00    +0.113 A 
ATOM     10  N   UNL     1      -6.393  -5.236   0.784  0.00  0.00    -0.129 NA
ATOM     11  N   UNL     1      -5.497  -6.158   0.837  0.00  0.00    -0.058 NA
ENDBRANCH   1   3
BRANCH   2  12
ATOM     12  C   UNL     1      -4.336  -8.536   0.134  0.00  0.00    +0.107 C 
ATOM     13  C   UNL     1      -5.231  -8.485  -1.025  0.00  0.00    +0.116 C 
ATOM     14 CL   UNL     1      -6.800  -9.223  -0.943  0.00  0.00    -0.065 Cl
ATOM     15 CL   UNL     1      -4.783  -9.455   1.537  0.00  0.00    -0.078 Cl
BRANCH  13  16
ATOM     16  N   UNL     1      -4.841  -7.873  -2.142  0.00  0.00    -0.335 N 
ATOM     17  H   UNL     1      -3.937  -7.527  -2.216  0.00  0.00    +0.147 HD
BRANCH  16  18
ATOM     18  C   UNL     1      -5.776  -7.722  -3.260  0.00  0.00    +0.083 C 
BRANCH  18  19
ATOM     19  C   UNL     1      -5.082  -6.990  -4.410  0.00  0.00    -0.068 C 
BRANCH  19  20
ATOM     20  N   UNL     1      -6.020  -6.838  -5.530  0.00  0.00    +0.379 N 
ATOM     21  H   UNL     1      -5.562  -6.355  -6.289  0.00  0.00    -0.090 HD
ATOM     22  H   UNL     1      -6.319  -7.749  -5.844  0.00  0.00    -0.090 HD
ATOM     23  H   UNL     1      -6.822  -6.306  -5.228  0.00  0.00    -0.090 HD
ENDBRANCH  19  20
ENDBRANCH  18  19
ENDBRANCH  16  18
ENDBRANCH  13  16
ENDBRANCH   2  12
BRANCH   2  24
ATOM     24  N   UNL     1      -1.881  -8.612   0.111  0.00  0.00    +0.061 N 
ATOM     25  O   UNL     1      -0.738  -7.963   0.196  0.00  0.00    -0.126 OA
ATOM     26  O   UNL     1      -1.887  -9.927   0.026  0.00  0.00    -0.126 OA
ENDBRANCH   2  24
BRANCH   1  27
ATOM     27  N   UNL     1      -1.995  -5.735  -0.075  0.00  0.00    -0.297 N 
ATOM     28  H   UNL     1      -1.466  -5.869  -0.877  0.00  0.00    +0.154 HD
BRANCH  27  32
ATOM     29  C   UNL     1      -0.679  -3.106   2.871  0.00  0.00    +0.121 A 
ATOM     30  C   UNL     1       0.114  -3.356   1.759  0.00  0.00    +0.047 A 
ATOM     31  C   UNL     1      -0.320  -4.226   0.782  0.00  0.00    +0.027 A 
ATOM     32  C   UNL     1      -1.555  -4.856   0.911  0.00  0.00    +0.033 A 
ATOM     33  C   UNL     1      -2.349  -4.605   2.026  0.00  0.00    +0.027 A 
ATOM     34  C   UNL     1      -1.909  -3.737   3.004  0.00  0.00    +0.047 A 
BRANCH  29  35
ATOM     35  O   UNL     1      -0.250  -2.247   3.833  0.00  0.00    -0.492 OA
BRANCH  35  37
ATOM     36  C   UNL     1       1.335  -0.707   4.809  0.00  0.00    +0.048 C 
ATOM     37  C   UNL     1       1.024  -1.633   3.632  0.00  0.00    +0.225 C 
ENDBRANCH  35  37
ENDBRANCH  29  35
ENDBRANCH  27  32
ENDBRANCH   1  27
TORSDOF 11
