REMARK  Name = ZINC37556119
REMARK  6 active torsions:
REMARK  status: ('A' for Active; 'I' for Inactive)
REMARK    1  A    between atoms: C_1  and  C_2
REMARK    2  A    between atoms: C_8  and  N_10
REMARK    3  A    between atoms: N_10  and  S_11
REMARK    4  A    between atoms: S_11  and  C_14
REMARK    5  A    between atoms: C_15  and  N_22
REMARK    6  A    between atoms: N_22  and  N_23
REMARK                            x       y       z     vdW  Elec       q    Type
REMARK                         _______ _______ _______ _____ _____    ______ ____
ROOT
ATOM      1  C   UNL     1       1.922   1.756   3.379  0.00  0.00    +0.222 A 
ATOM      2  C   UNL     1       3.168   1.724   2.862  0.00  0.00    +0.179 A 
ATOM      3  N   UNL     1       3.584   2.990   2.685  0.00  0.00    -0.203 NA
ATOM      4  C   UNL     1       2.643   3.804   3.072  0.00  0.00    +0.181 A 
ATOM      5  N   UNL     1       1.558   3.099   3.519  0.00  0.00    -0.276 N 
ATOM      6  C   UNL     1       0.475   3.829   3.958  0.00  0.00    +0.102 A 
ATOM      7  C   UNL     1       0.498   5.161   3.939  0.00  0.00    +0.067 A 
ATOM      8  S   UNL     1       2.125   5.492   3.281  0.00  0.00    -0.058 S 
ENDROOT
BRANCH   1   9
ATOM      9  S   UNL     1       0.932   0.360   3.795  0.00  0.00    +0.078 S 
ATOM     10  O   UNL     1      -0.003   0.801   4.770  0.00  0.00    -0.151 OA
ATOM     11  O   UNL     1       1.827  -0.718   4.031  0.00  0.00    -0.151 OA
BRANCH   9  12
ATOM     12  N   UNL     1       0.056  -0.038   2.447  0.00  0.00    -0.185 NA
ATOM     13  H   UNL     1      -0.910   0.041   2.455  0.00  0.00    +0.148 HD
BRANCH  12  20
ATOM     14  C   UNL     1      -0.019   1.526   0.010  0.00  0.00    +0.009 C 
ATOM     15  C   UNL     1       0.002  -0.004   0.002  0.00  0.00    +0.005 C 
ATOM     16  C   UNL     1      -1.433  -0.534   0.013  0.00  0.00    +0.005 C 
ATOM     17  C   UNL     1      -1.413  -2.063   0.004  0.00  0.00    +0.000 C 
ATOM     18  C   UNL     1      -0.673  -2.570   1.244  0.00  0.00    +0.002 C 
ATOM     19  C   UNL     1       0.763  -2.041   1.233  0.00  0.00    +0.020 C 
ATOM     20  C   UNL     1       0.742  -0.511   1.242  0.00  0.00    +0.079 C 
ENDBRANCH  12  20
ENDBRANCH   9  12
ENDBRANCH   1   9
BRANCH   2  21
ATOM     21  N   UNL     1       3.904   0.567   2.562  0.00  0.00    -0.265 N 
ATOM     22  H   UNL     1       3.519  -0.308   2.725  0.00  0.00    +0.168 HD
BRANCH  21  23
ATOM     23  N   UNL     1       5.161   0.674   2.039  0.00  0.00    -0.255 NA
ATOM     24  H   UNL     1       5.755   1.230   2.637  0.00  0.00    +0.140 HD
ATOM     25  H   UNL     1       5.564  -0.236   1.876  0.00  0.00    +0.140 HD
ENDBRANCH  21  23
ENDBRANCH   2  21
TORSDOF 5
