REMARK  Name = ZINC02190079
REMARK  4 active torsions:
REMARK  status: ('A' for Active; 'I' for Inactive)
REMARK    1  A    between atoms: C_1  and  N_2
REMARK    2  A    between atoms: N_9  and  C_10
REMARK    3  A    between atoms: C_10  and  C_11
REMARK    4  A    between atoms: C_11  and  O_12
REMARK                            x       y       z     vdW  Elec       q    Type
REMARK                         _______ _______ _______ _____ _____    ______ ____
ROOT
ATOM      1  C   UNL     1      -0.017   1.461   0.015  0.00  0.00    +0.155 C 
ATOM      2  N   UNL     1       0.002  -0.004   0.004  0.00  0.00    -0.284 N 
ATOM      3  C   UNL     1      -1.155  -0.694   0.108  0.00  0.00    +0.259 A 
ATOM      4  O   UNL     1      -2.219  -0.110   0.235  0.00  0.00    -0.267 OA
ATOM      5  C   UNL     1      -1.106  -2.093   0.066  0.00  0.00    +0.050 A 
ATOM      6  C   UNL     1       0.122  -2.716  -0.083  0.00  0.00    +0.084 A 
ATOM      7  N   UNL     1       1.239  -1.981  -0.149  0.00  0.00    -0.215 NA
ATOM      8  C   UNL     1       1.185  -0.665  -0.116  0.00  0.00    +0.199 A 
ATOM      9  N   UNL     1       2.349   0.053  -0.198  0.00  0.00    -0.313 N 
ATOM     10  C   UNL     1       0.173  -4.191  -0.197  0.00  0.00    +0.004 A 
ATOM     11  C   UNL     1       1.376  -4.875  -0.041  0.00  0.00    +0.010 A 
ATOM     12  C   UNL     1       1.395  -6.253  -0.131  0.00  0.00    +0.001 A 
ATOM     13  C   UNL     1       0.224  -6.949  -0.373  0.00  0.00    +0.000 A 
ATOM     14  C   UNL     1      -0.971  -6.272  -0.536  0.00  0.00    +0.004 A 
ATOM     15  C   UNL     1      -1.002  -4.894  -0.459  0.00  0.00    -0.037 A 
ATOM     16  C   UNL     1      -2.290  -4.151  -0.689  0.00  0.00    +0.047 C 
ATOM     17  C   UNL     1      -2.364  -2.909   0.197  0.00  0.00    +0.007 C 
ATOM     18  C   UNL     1      -2.541  -3.337   1.657  0.00  0.00    +0.012 C 
ATOM     19  C   UNL     1      -3.823  -4.160   1.795  0.00  0.00    +0.001 C 
ATOM     20  C   UNL     1      -5.022  -3.313   1.367  0.00  0.00    +0.000 C 
ATOM     21  C   UNL     1      -4.846  -2.879  -0.090  0.00  0.00    +0.001 C 
ATOM     22  C   UNL     1      -3.564  -2.056  -0.225  0.00  0.00    +0.012 C 
ATOM     23  H   UNL     1       2.330   1.018  -0.099  0.00  0.00    +0.149 HD
ENDROOT
BRANCH   9  24
ATOM     24  C   UNL     1       3.620  -0.635  -0.434  0.00  0.00    +0.132 C 
BRANCH  24  25
ATOM     25  C   UNL     1       4.754   0.391  -0.482  0.00  0.00    +0.174 C 
BRANCH  25  26
ATOM     26  O   UNL     1       4.891   1.008   0.800  0.00  0.00    -0.393 OA
ATOM     27  H   UNL     1       5.594   1.672   0.843  0.00  0.00    +0.209 HD
ENDBRANCH  25  26
ENDBRANCH  24  25
ENDBRANCH   9  24
TORSDOF 3
