REMARK  Name = ZINC01441057
REMARK  3 active torsions:
REMARK  status: ('A' for Active; 'I' for Inactive)
REMARK    1  A    between atoms: C_4  and  C_7
REMARK    2  A    between atoms: N_9  and  N_14
REMARK    3  A    between atoms: N_14  and  C_15
REMARK                            x       y       z     vdW  Elec       q    Type
REMARK                         _______ _______ _______ _____ _____    ______ ____
ROOT
ATOM      1  C   UNL     1       3.672   2.182  -0.022  0.00  0.00    +0.184 C 
ATOM      2  N   UNL     1       3.486   3.536   0.532  0.00  0.00    -0.204 N 
ATOM      3  C   UNL     1       3.987   4.578  -0.119  0.00  0.00    +0.243 C 
ATOM      4  O   UNL     1       3.859   5.706   0.307  0.00  0.00    -0.273 OA
ATOM      5  C   UNL     1       4.729   4.305  -1.418  0.00  0.00    +0.168 C 
ATOM      6  S   UNL     1       4.204   2.567  -1.746  0.00  0.00    -0.123 S 
ENDROOT
BRANCH   1  10
ATOM      7  C   UNL     1       0.002  -0.004   0.002  0.00  0.00    +0.000 A 
ATOM      8  C   UNL     1      -0.017   1.378   0.010  0.00  0.00    +0.000 A 
ATOM      9  C   UNL     1       1.171   2.086   0.002  0.00  0.00    +0.006 A 
ATOM     10  C   UNL     1       2.377   1.411  -0.015  0.00  0.00    -0.015 A 
ATOM     11  C   UNL     1       2.396   0.029  -0.021  0.00  0.00    +0.006 A 
ATOM     12  C   UNL     1       1.208  -0.679  -0.013  0.00  0.00    +0.000 A 
ENDBRANCH   1  10
BRANCH   2  13
ATOM     13  N   UNL     1       2.786   3.721   1.732  0.00  0.00    -0.261 N 
ATOM     14  H   UNL     1       1.819   3.644   1.746  0.00  0.00    +0.170 HD
BRANCH  13  15
ATOM     15  C   UNL     1       3.481   4.014   2.907  0.00  0.00    +0.045 A 
ATOM     16  C   UNL     1       4.866   4.118   2.890  0.00  0.00    +0.024 A 
ATOM     17  C   UNL     1       5.550   4.414   4.053  0.00  0.00    +0.002 A 
ATOM     18  C   UNL     1       4.858   4.596   5.236  0.00  0.00    +0.000 A 
ATOM     19  C   UNL     1       3.480   4.487   5.258  0.00  0.00    +0.002 A 
ATOM     20  C   UNL     1       2.789   4.197   4.098  0.00  0.00    +0.024 A 
ENDBRANCH  13  15
ENDBRANCH   2  13
TORSDOF 3
