REMARK  Name = ZINC37278049
REMARK  4 active torsions:
REMARK  status: ('A' for Active; 'I' for Inactive)
REMARK    1  A    between atoms: C_1  and  C_2
REMARK    2  A    between atoms: C_2  and  C_4
REMARK    3  A    between atoms: C_2  and  N_10
REMARK    4  A    between atoms: N_10  and  C_11
REMARK                            x       y       z     vdW  Elec       q    Type
REMARK                         _______ _______ _______ _____ _____    ______ ____
ROOT
ATOM      1  C   UNL     1       2.106  -0.604   1.173  0.00  0.00    +0.045 A 
ATOM      2  C   UNL     1       2.818  -0.253   0.035  0.00  0.00    +0.073 A 
ATOM      3  C   UNL     1       4.200  -0.366   0.020  0.00  0.00    +0.164 A 
ATOM      4  C   UNL     1       4.870  -0.830   1.146  0.00  0.00    +0.163 A 
ATOM      5  C   UNL     1       4.155  -1.182   2.281  0.00  0.00    +0.066 A 
ATOM      6  C   UNL     1       2.778  -1.064   2.298  0.00  0.00    +0.042 A 
ATOM      7 BR   UNL     1       1.808  -1.538   3.851  0.00  0.00    -0.048 Br
ATOM      8  O   UNL     1       6.228  -0.940   1.152  0.00  0.00    -0.485 OA
ATOM      9  C   UNL     1       6.880  -0.933  -0.122  0.00  0.00    +0.270 C 
ATOM     10  C   UNL     1       6.290   0.211  -0.958  0.00  0.00    +0.270 C 
ATOM     11  O   UNL     1       4.885  -0.021  -1.105  0.00  0.00    -0.485 OA
ENDROOT
BRANCH   1  12
ATOM     12  N   UNL     1       0.711  -0.489   1.189  0.00  0.00    -0.340 N 
ATOM     13  H   UNL     1       0.213  -0.731   1.986  0.00  0.00    +0.146 HD
BRANCH  12  15
ATOM     14  C   UNL     1      -0.019   1.526   0.010  0.00  0.00    +0.028 C 
ATOM     15  C   UNL     1       0.002  -0.004   0.002  0.00  0.00    +0.070 C 
BRANCH  15  16
ATOM     16  C   UNL     1      -1.433  -0.534   0.013  0.00  0.00    +0.009 C 
ATOM     17  C   UNL     1      -1.413  -2.063   0.004  0.00  0.00    +0.005 C 
ATOM     18  C   UNL     1      -2.848  -2.593   0.015  0.00  0.00    +0.000 C 
ATOM     19  C   UNL     1      -3.588  -2.086  -1.224  0.00  0.00    +0.000 C 
ATOM     20  C   UNL     1      -3.609  -0.556  -1.216  0.00  0.00    +0.000 C 
ATOM     21  C   UNL     1      -2.173  -0.027  -1.227  0.00  0.00    +0.005 C 
ENDBRANCH  15  16
ENDBRANCH  12  15
ENDBRANCH   1  12
TORSDOF 3
