REMARK  Name = ZINC13510851
REMARK  6 active torsions:
REMARK  status: ('A' for Active; 'I' for Inactive)
REMARK    1  A    between atoms: C_1  and  C_2
REMARK    2  A    between atoms: C_2  and  C_3
REMARK    3  A    between atoms: C_3  and  C_4
REMARK    4  A    between atoms: C_4  and  N_5
REMARK    5  A    between atoms: C_12  and  C_14
REMARK    6  A    between atoms: N_20  and  C_23
REMARK                            x       y       z     vdW  Elec       q    Type
REMARK                         _______ _______ _______ _____ _____    ______ ____
ROOT
ATOM      1  C   UNL     1       6.805  -3.790  -3.477  0.00  0.00    +0.026 C 
ATOM      2  C   UNL     1       7.683  -4.093  -2.452  0.00  0.00    +0.102 C 
ATOM      3  C   UNL     1       7.225  -4.214  -1.052  0.00  0.00    +0.276 C 
ATOM      4  N   UNL     1       8.133  -4.510  -0.107  0.00  0.00    -0.123 NA
ATOM      5  C   UNL     1       9.398  -4.692  -0.393  0.00  0.00    +0.340 C 
ATOM      6  O   UNL     1      10.241  -4.987   0.615  0.00  0.00    -0.250 OA
ATOM      7  N   UNL     1       9.909  -4.601  -1.651  0.00  0.00    -0.188 N 
ATOM      8  C   UNL     1       9.118  -4.316  -2.707  0.00  0.00    +0.264 C 
ATOM      9  O   UNL     1       9.576  -4.240  -3.832  0.00  0.00    -0.269 OA
ATOM     10  O   UNL     1       6.053  -4.048  -0.761  0.00  0.00    -0.268 OA
ENDROOT
BRANCH   1  18
ATOM     11  N   UNL     1       1.496  -2.283  -2.446  0.00  0.00    -0.329 N 
ATOM     12  C   UNL     1       0.719  -3.066  -3.408  0.00  0.00    +0.110 C 
ATOM     13  C   UNL     1       1.756  -3.890  -4.190  0.00  0.00    +0.056 C 
ATOM     14  C   UNL     1       3.084  -3.493  -3.585  0.00  0.00    -0.024 A 
ATOM     15  C   UNL     1       2.850  -2.554  -2.585  0.00  0.00    +0.033 A 
ATOM     16  C   UNL     1       3.935  -2.024  -1.873  0.00  0.00    +0.024 A 
ATOM     17  C   UNL     1       5.208  -2.418  -2.157  0.00  0.00    +0.010 A 
ATOM     18  C   UNL     1       5.442  -3.363  -3.169  0.00  0.00    -0.024 A 
ATOM     19  C   UNL     1       4.354  -3.900  -3.876  0.00  0.00    +0.013 A 
BRANCH  11  20
ATOM     20  C   UNL     1       0.927  -1.342  -1.477  0.00  0.00    +0.105 C 
BRANCH  20  21
ATOM     21  C   UNL     1       0.843   0.050  -2.107  0.00  0.00    +0.019 C 
BRANCH  21  23
ATOM     22  C   UNL     1       0.163   2.424  -1.725  0.00  0.00    +0.004 C 
ATOM     23  C   UNL     1       0.248   1.032  -1.096  0.00  0.00    -0.002 C 
ENDBRANCH  21  23
ENDBRANCH  20  21
ENDBRANCH  11  20
ENDBRANCH   1  18
BRANCH   7  24
ATOM     24  C   UNL     1      11.279  -4.814  -1.854  0.00  0.00    +0.046 A 
ATOM     25  C   UNL     1      12.099  -3.757  -2.227  0.00  0.00    +0.025 A 
ATOM     26  C   UNL     1      13.449  -3.970  -2.427  0.00  0.00    +0.016 A 
ATOM     27  C   UNL     1      13.984  -5.234  -2.255  0.00  0.00    +0.013 A 
ATOM     28  C   UNL     1      13.169  -6.288  -1.884  0.00  0.00    +0.016 A 
ATOM     29  C   UNL     1      11.820  -6.080  -1.677  0.00  0.00    +0.025 A 
ATOM     30  I   UNL     1      16.033  -5.551  -2.559  0.00  0.00    -0.044 I 
ENDBRANCH   7  24
TORSDOF 5
