REMARK  Name = ZINC08962032
REMARK  6 active torsions:
REMARK  status: ('A' for Active; 'I' for Inactive)
REMARK    1  A    between atoms: C_1  and  C_2
REMARK    2  A    between atoms: C_5  and  C_8
REMARK    3  A    between atoms: C_8  and  S_9
REMARK    4  A    between atoms: S_9  and  N_12
REMARK    5  A    between atoms: N_12  and  C_13
REMARK    6  A    between atoms: C_23  and  C_26
REMARK                            x       y       z     vdW  Elec       q    Type
REMARK                         _______ _______ _______ _____ _____    ______ ____
ROOT
ATOM      1  C   UNL     1      -0.066   0.094   0.039  0.00  0.00    +0.049 A 
ATOM      2  C   UNL     1       1.200  -0.483  -0.005  0.00  0.00    +0.028 A 
ATOM      3  C   UNL     1       2.331   0.308   0.023  0.00  0.00    +0.048 A 
ATOM      4  C   UNL     1       2.211   1.686   0.095  0.00  0.00    +0.133 A 
ATOM      5  C   UNL     1       0.938   2.274   0.143  0.00  0.00    +0.080 A 
ATOM      6  C   UNL     1      -0.201   1.471   0.113  0.00  0.00    +0.041 A 
ATOM      7  C   UNL     1       0.831   3.743   0.229  0.00  0.00    +0.248 C 
ATOM      8  O   UNL     1       0.096   4.264   1.046  0.00  0.00    -0.270 OA
ATOM      9  N   UNL     1       1.567   4.501  -0.619  0.00  0.00    -0.308 N 
ATOM     10  C   UNL     1       2.361   3.853  -1.664  0.00  0.00    +0.148 C 
ATOM     11  C   UNL     1       3.608   3.208  -1.073  0.00  0.00    +0.187 C 
ATOM     12  O   UNL     1       3.311   2.482   0.113  0.00  0.00    -0.487 OA
ATOM     13  C   UNL     1       4.627   4.301  -0.746  0.00  0.00    +0.053 C 
ATOM     14  H   UNL     1       1.567   5.468  -0.535  0.00  0.00    +0.149 HD
ENDROOT
BRANCH   1  15
ATOM     15  N   UNL     1      -1.205  -0.718   0.009  0.00  0.00    -0.220 N 
ATOM     16  H   UNL     1      -1.733  -0.783  -0.802  0.00  0.00    +0.173 HD
BRANCH  15  17
ATOM     17  S   UNL     1      -1.650  -1.570   1.357  0.00  0.00    +0.047 S 
ATOM     18  O   UNL     1      -2.822  -2.274   0.970  0.00  0.00    -0.155 OA
ATOM     19  O   UNL     1      -0.478  -2.273   1.746  0.00  0.00    -0.155 OA
BRANCH  17  20
ATOM     20  C   UNL     1      -2.060  -0.306   2.592  0.00  0.00    +0.223 C 
BRANCH  20  25
ATOM     21  C   UNL     1      -3.241  -2.858   7.641  0.00  0.00    +0.044 C 
ATOM     22  C   UNL     1      -2.933  -2.192   6.324  0.00  0.00    -0.050 A 
ATOM     23  C   UNL     1      -1.637  -1.814   6.028  0.00  0.00    +0.003 A 
ATOM     24  C   UNL     1      -1.354  -1.204   4.820  0.00  0.00    +0.005 A 
ATOM     25  C   UNL     1      -2.368  -0.972   3.909  0.00  0.00    -0.025 A 
ATOM     26  C   UNL     1      -3.665  -1.346   4.208  0.00  0.00    +0.005 A 
ATOM     27  C   UNL     1      -3.946  -1.960   5.413  0.00  0.00    +0.003 A 
ENDBRANCH  20  25
ENDBRANCH  17  20
ENDBRANCH  15  17
ENDBRANCH   1  15
TORSDOF 4
