REMARK  Name = ZINC06379404
REMARK  3 active torsions:
REMARK  status: ('A' for Active; 'I' for Inactive)
REMARK    1  A    between atoms: C_1  and  N_2
REMARK    2  A    between atoms: C_3  and  C_10
REMARK    3  A    between atoms: C_10  and  O_20
REMARK                            x       y       z     vdW  Elec       q    Type
REMARK                         _______ _______ _______ _____ _____    ______ ____
ROOT
ATOM      1  C   UNL     1      -2.152  -0.850   1.281  0.00  0.00    +0.196 C 
ATOM      2  C   UNL     1      -3.273  -1.859   1.190  0.00  0.00    +0.016 A 
ATOM      3  C   UNL     1      -3.292  -3.234   1.123  0.00  0.00    +0.009 A 
ATOM      4  C   UNL     1      -4.501  -3.904   1.045  0.00  0.00    +0.000 A 
ATOM      5  C   UNL     1      -5.685  -3.189   1.034  0.00  0.00    +0.002 A 
ATOM      6  C   UNL     1      -5.668  -1.812   1.102  0.00  0.00    +0.024 A 
ATOM      7  C   UNL     1      -4.455  -1.130   1.180  0.00  0.00    +0.040 A 
ATOM      8  N   UNL     1      -4.181   0.236   1.257  0.00  0.00    -0.282 N 
ATOM      9  C   UNL     1      -2.862   0.487   1.319  0.00  0.00    +0.256 C 
ATOM     10  O   UNL     1      -2.339   1.579   1.392  0.00  0.00    -0.272 OA
ATOM     11  H   UNL     1      -4.863   0.926   1.264  0.00  0.00    +0.155 HD
ENDROOT
BRANCH   1  14
ATOM     12  C   UNL     1       0.283  -2.890   0.937  0.00  0.00    +0.132 C 
ATOM     13  N   UNL     1      -0.621  -2.274  -0.037  0.00  0.00    -0.293 N 
ATOM     14  C   UNL     1      -1.247  -0.942   0.051  0.00  0.00    +0.209 C 
ATOM     15  C   UNL     1      -2.062  -0.857  -1.225  0.00  0.00    +0.263 C 
ATOM     16  O   UNL     1      -2.755   0.073  -1.590  0.00  0.00    -0.271 OA
ATOM     17  N   UNL     1      -1.863  -2.006  -1.864  0.00  0.00    -0.150 NA
ATOM     18  C   UNL     1      -1.051  -2.811  -1.211  0.00  0.00    +0.173 C 
ATOM     19  N   UNL     1      -0.686  -4.045  -1.659  0.00  0.00    -0.333 N 
ATOM     20  H   UNL     1      -0.086  -4.595  -1.131  0.00  0.00    +0.145 HD
ATOM     21  H   UNL     1      -1.026  -4.374  -2.506  0.00  0.00    +0.145 HD
ENDBRANCH   1  14
BRANCH   1  22
ATOM     22  O   UNL     1      -1.393  -1.047   2.475  0.00  0.00    -0.373 OA
ATOM     23  H   UNL     1      -1.917  -1.000   3.287  0.00  0.00    +0.211 HD
ENDBRANCH   1  22
TORSDOF 2
