REMARK  Name = ZINC40320163
REMARK  6 active torsions:
REMARK  status: ('A' for Active; 'I' for Inactive)
REMARK    1  A    between atoms: C_1  and  O_2
REMARK    2  A    between atoms: O_2  and  C_3
REMARK    3  A    between atoms: C_3  and  C_5
REMARK    4  A    between atoms: C_12  and  C_14
REMARK    5  A    between atoms: C_16  and  N_21
REMARK    6  A    between atoms: C_18  and  N_20
REMARK                            x       y       z     vdW  Elec       q    Type
REMARK                         _______ _______ _______ _____ _____    ______ ____
ROOT
ATOM      1  C   UNL     1       0.332  -2.052   1.405  0.00  0.00    +0.185 C 
ATOM      2  C   UNL     1      -1.141  -2.093   1.821  0.00  0.00    +0.034 C 
ATOM      3  C   UNL     1      -1.462  -3.467   2.412  0.00  0.00    +0.004 C 
ATOM      4  C   UNL     1      -0.603  -3.702   3.656  0.00  0.00    +0.019 C 
ATOM      5  C   UNL     1       0.877  -3.680   3.261  0.00  0.00    +0.109 C 
ATOM      6  N   UNL     1       1.163  -2.421   2.559  0.00  0.00    -0.284 N 
ATOM      7  C   UNL     1       2.165  -1.618   2.969  0.00  0.00    +0.247 C 
ATOM      8  O   UNL     1       2.325  -0.532   2.447  0.00  0.00    -0.270 OA
ENDROOT
BRANCH   7   9
ATOM      9  C   UNL     1       3.070  -2.059   4.052  0.00  0.00    +0.040 A 
ATOM     10  C   UNL     1       3.317  -3.418   4.247  0.00  0.00    +0.036 A 
ATOM     11  C   UNL     1       4.167  -3.828   5.263  0.00  0.00    +0.027 A 
ATOM     12  C   UNL     1       4.771  -2.887   6.087  0.00  0.00    +0.045 A 
ATOM     13  C   UNL     1       4.527  -1.534   5.896  0.00  0.00    +0.027 A 
ATOM     14  C   UNL     1       3.683  -1.116   4.878  0.00  0.00    +0.036 A 
BRANCH  13  15
ATOM     15  N   UNL     1       5.137  -0.591   6.728  0.00  0.00    -0.358 N 
ATOM     16  H   UNL     1       5.730  -0.881   7.438  0.00  0.00    +0.142 HD
ATOM     17  H   UNL     1       4.966   0.355   6.595  0.00  0.00    +0.142 HD
ENDBRANCH  13  15
BRANCH  11  18
ATOM     18  N   UNL     1       4.415  -5.189   5.460  0.00  0.00    -0.358 N 
ATOM     19  H   UNL     1       3.993  -5.846   4.885  0.00  0.00    +0.142 HD
ATOM     20  H   UNL     1       5.009  -5.476   6.170  0.00  0.00    +0.142 HD
ENDBRANCH  11  18
ENDBRANCH   7   9
BRANCH   1  21
ATOM     21  C   UNL     1       0.690  -0.661   0.949  0.00  0.00    +0.328 C 
ATOM     22  O   UNL     1       0.440   0.289   1.652  0.00  0.00    -0.249 OA
BRANCH  21  24
ATOM     23  C   UNL     1       1.599   0.868  -0.608  0.00  0.00    +0.280 C 
ATOM     24  O   UNL     1       1.288  -0.477  -0.239  0.00  0.00    -0.467 OA
ENDBRANCH  21  24
ENDBRANCH   1  21
TORSDOF 5
