REMARK  Name = ZINC52907469
REMARK  5 active torsions:
REMARK  status: ('A' for Active; 'I' for Inactive)
REMARK    1  A    between atoms: C_3  and  N_10
REMARK    2  A    between atoms: C_4  and  C_8
REMARK    3  A    between atoms: C_14  and  C_17
REMARK    4  A    between atoms: C_17  and  C_18
REMARK    5  A    between atoms: C_18  and  O_19
REMARK                            x       y       z     vdW  Elec       q    Type
REMARK                         _______ _______ _______ _____ _____    ______ ____
ROOT
ATOM      1  N   UNL     1       3.572   2.150  -0.022  0.00  0.00    -0.329 N 
ATOM      2  C   UNL     1       4.196   2.549  -1.290  0.00  0.00    +0.105 C 
ATOM      3  C   UNL     1       5.649   2.063  -1.299  0.00  0.00    +0.019 C 
ATOM      4  C   UNL     1       6.366   2.589  -0.053  0.00  0.00    +0.006 C 
ATOM      5  C   UNL     1       5.681   2.041   1.201  0.00  0.00    +0.008 C 
ATOM      6  C   UNL     1       4.225   2.531   1.238  0.00  0.00    +0.108 C 
ENDROOT
BRANCH   1   9
ATOM      7  C   UNL     1      -0.017   1.381   0.010  0.00  0.00    +0.003 A 
ATOM      8  C   UNL     1       1.164   2.096   0.002  0.00  0.00    +0.024 A 
ATOM      9  C   UNL     1       2.382   1.430  -0.013  0.00  0.00    +0.049 A 
ATOM     10  C   UNL     1       2.406   0.026  -0.021  0.00  0.00    +0.091 A 
ATOM     11  C   UNL     1       1.202  -0.685  -0.013  0.00  0.00    +0.060 A 
ATOM     12  C   UNL     1       0.002  -0.004   0.002  0.00  0.00    +0.021 A 
ATOM     13 CL   UNL     1       1.218  -2.421  -0.023  0.00  0.00    -0.082 Cl
BRANCH  10  14
ATOM     14  C   UNL     1       3.656  -0.673  -0.038  0.00  0.00    +0.102 C 
ATOM     15  N   UNL     1       4.647  -1.227  -0.051  0.00  0.00    -0.191 NA
ENDBRANCH  10  14
ENDBRANCH   1   9
BRANCH   5  16
ATOM     16  C   UNL     1       6.418   2.539   2.445  0.00  0.00    +0.033 C 
BRANCH  16  17
ATOM     17  C   UNL     1       7.832   1.955   2.469  0.00  0.00    +0.156 C 
BRANCH  17  18
ATOM     18  O   UNL     1       8.521   2.421   3.631  0.00  0.00    -0.395 OA
ATOM     19  H   UNL     1       9.425   2.090   3.711  0.00  0.00    +0.209 HD
ENDBRANCH  17  18
ENDBRANCH  16  17
ENDBRANCH   5  16
TORSDOF 5
