REMARK  Name = ZINC22289610
REMARK  8 active torsions:
REMARK  status: ('A' for Active; 'I' for Inactive)
REMARK    1  A    between atoms: C_1  and  C_2
REMARK    2  A    between atoms: C_2  and  C_3
REMARK    3  A    between atoms: C_2  and  C_4
REMARK    4  A    between atoms: C_4  and  C_6
REMARK    5  A    between atoms: C_4  and  N_21
REMARK    6  A    between atoms: C_11  and  C_14
REMARK    7  A    between atoms: C_14  and  N_15
REMARK    8  A    between atoms: C_22  and  C_24
REMARK                            x       y       z     vdW  Elec       q    Type
REMARK                         _______ _______ _______ _____ _____    ______ ____
ROOT
ATOM      1  C   UNL     1      -2.212  -0.147   1.109  0.00  0.00    +0.239 C 
ATOM      2  O   UNL     1      -2.579  -0.933   1.956  0.00  0.00    -0.273 OA
ATOM      3  N   UNL     1      -2.535   1.157   1.216  0.00  0.00    -0.263 N 
ATOM      4  C   UNL     1      -3.376   1.584   2.237  0.00  0.00    +0.165 A 
ATOM      5  N   UNL     1      -3.800   2.803   2.491  0.00  0.00    -0.231 NA
ATOM      6  C   UNL     1      -4.604   3.047   3.510  0.00  0.00    +0.034 A 
ATOM      7  C   UNL     1      -4.967   1.989   4.276  0.00  0.00    +0.070 A 
ATOM      8  S   UNL     1      -4.104   0.665   3.445  0.00  0.00    -0.060 S 
ATOM      9  H   UNL     1      -2.182   1.798   0.579  0.00  0.00    +0.157 HD
ENDROOT
BRANCH   1  10
ATOM     10  C   UNL     1      -1.395  -0.627  -0.062  0.00  0.00    +0.162 C 
BRANCH  10  11
ATOM     11  N   UNL     1      -1.628  -2.059  -0.266  0.00  0.00    -0.300 N 
ATOM     12  C   UNL     1      -1.441  -2.606  -1.483  0.00  0.00    +0.246 C 
ATOM     13  O   UNL     1      -1.079  -1.911  -2.413  0.00  0.00    -0.270 OA
ATOM     14  H   UNL     1      -1.916  -2.614   0.476  0.00  0.00    +0.150 HD
BRANCH  12  15
ATOM     15  C   UNL     1      -1.676  -4.050  -1.688  0.00  0.00    +0.055 A 
ATOM     16  C   UNL     1      -2.097  -4.851  -0.625  0.00  0.00    +0.014 A 
ATOM     17  C   UNL     1      -2.315  -6.198  -0.823  0.00  0.00    +0.001 A 
ATOM     18  C   UNL     1      -2.117  -6.758  -2.073  0.00  0.00    +0.001 A 
ATOM     19  C   UNL     1      -1.700  -5.973  -3.132  0.00  0.00    +0.021 A 
ATOM     20  C   UNL     1      -1.484  -4.621  -2.949  0.00  0.00    +0.053 A 
ATOM     21 CL   UNL     1      -0.967  -3.634  -4.281  0.00  0.00    -0.083 Cl
ENDBRANCH  12  15
ENDBRANCH  10  11
BRANCH  10  23
ATOM     22  C   UNL     1       0.534  -1.261   1.394  0.00  0.00    +0.009 C 
ATOM     23  C   UNL     1       0.090  -0.387   0.219  0.00  0.00    +0.012 C 
ATOM     24  C   UNL     1       0.909  -0.746  -1.022  0.00  0.00    +0.009 C 
ENDBRANCH  10  23
ENDBRANCH   1  10
BRANCH   6  25
ATOM     25  C   UNL     1      -5.094   4.440   3.809  0.00  0.00    -0.022 C 
BRANCH  25  26
ATOM     26  N   UNL     1      -4.096   5.146   4.624  0.00  0.00    +0.383 N 
ATOM     27  C   UNL     1      -3.971   4.482   5.926  0.00  0.00    -0.078 C 
ATOM     28  C   UNL     1      -2.876   5.164   6.748  0.00  0.00    -0.019 C 
ATOM     29  C   UNL     1      -3.244   6.636   6.958  0.00  0.00    -0.004 C 
ATOM     30  C   UNL     1      -3.444   7.301   5.593  0.00  0.00    -0.019 C 
ATOM     31  C   UNL     1      -4.519   6.539   4.814  0.00  0.00    -0.078 C 
ATOM     32  H   UNL     1      -3.205   5.128   4.152  0.00  0.00    -0.081 HD
ENDBRANCH  25  26
ENDBRANCH   6  25
TORSDOF 6
