REMARK  Name = ZINC39315606
REMARK  5 active torsions:
REMARK  status: ('A' for Active; 'I' for Inactive)
REMARK    1  A    between atoms: C_1  and  O_2
REMARK    2  A    between atoms: O_2  and  C_3
REMARK    3  A    between atoms: C_5  and  C_12
REMARK    4  A    between atoms: C_27  and  N_31
REMARK    5  A    between atoms: C_28  and  C_29
REMARK                            x       y       z     vdW  Elec       q    Type
REMARK                         _______ _______ _______ _____ _____    ______ ____
ROOT
ATOM      1  C   UNL     1       2.462   0.341   4.203  0.00  0.00    +0.084 C 
ATOM      2  C   UNL     1       1.384   1.199   4.873  0.00  0.00    +0.154 C 
ATOM      3  C   UNL     1       1.109   2.333   3.899  0.00  0.00    +0.129 C 
ATOM      4  C   UNL     1      -0.181   2.477   3.413  0.00  0.00    +0.035 A 
ATOM      5  C   UNL     1      -0.517   3.517   2.521  0.00  0.00    +0.013 A 
ATOM      6  C   UNL     1      -1.796   3.629   2.070  0.00  0.00    +0.001 A 
ATOM      7  C   UNL     1      -2.786   2.737   2.471  0.00  0.00    +0.002 A 
ATOM      8  C   UNL     1      -2.522   1.710   3.328  0.00  0.00    +0.024 A 
ATOM      9  C   UNL     1      -1.224   1.532   3.832  0.00  0.00    +0.044 A 
ATOM     10  N   UNL     1      -0.963   0.519   4.668  0.00  0.00    -0.284 N 
ATOM     11  C   UNL     1       0.230   0.283   5.215  0.00  0.00    +0.229 C 
ATOM     12  O   UNL     1       0.401  -0.655   5.971  0.00  0.00    -0.275 OA
ATOM     13  O   UNL     1       2.121   3.129   3.545  0.00  0.00    -0.444 OA
ATOM     14  C   UNL     1       3.313   2.528   3.316  0.00  0.00    +0.198 C 
ATOM     15  C   UNL     1       3.524   1.229   3.615  0.00  0.00    +0.095 C 
ATOM     16  H   UNL     1      -1.690  -0.081   4.898  0.00  0.00    +0.155 HD
ENDROOT
BRANCH   1  19
ATOM     17  C   UNL     1       0.626  -0.619   1.042  0.00  0.00    +0.166 A 
ATOM     18  C   UNL     1       1.202   0.138   2.051  0.00  0.00    +0.054 A 
ATOM     19  C   UNL     1       1.837  -0.485   3.109  0.00  0.00    -0.031 A 
ATOM     20  C   UNL     1       1.900  -1.865   3.166  0.00  0.00    +0.054 A 
ATOM     21  C   UNL     1       1.327  -2.630   2.161  0.00  0.00    +0.170 A 
ATOM     22  C   UNL     1       0.682  -2.006   1.098  0.00  0.00    +0.208 A 
ATOM     23  O   UNL     1       0.201  -2.966   0.254  0.00  0.00    -0.449 OA
ATOM     24  C   UNL     1       0.906  -4.172   0.603  0.00  0.00    +0.467 C 
ATOM     25  O   UNL     1       1.252  -3.982   1.985  0.00  0.00    -0.452 OA
BRANCH  17  27
ATOM     26  C   UNL     1      -0.017   1.425   0.010  0.00  0.00    +0.277 C 
ATOM     27  O   UNL     1       0.002  -0.004   0.002  0.00  0.00    -0.491 OA
ENDBRANCH  17  27
ENDBRANCH   1  19
BRANCH  14  28
ATOM     28  N   UNL     1       4.334   3.261   2.764  0.00  0.00    -0.328 N 
ATOM     29  H   UNL     1       4.197   4.195   2.544  0.00  0.00    +0.145 HD
ATOM     30  H   UNL     1       5.194   2.844   2.595  0.00  0.00    +0.145 HD
ENDBRANCH  14  28
BRANCH  15  31
ATOM     31  C   UNL     1       4.818   0.671   3.359  0.00  0.00    +0.100 C 
ATOM     32  N   UNL     1       5.845   0.229   3.157  0.00  0.00    -0.191 NA
ENDBRANCH  15  31
TORSDOF 4
