REMARK  Name = ZINC66129310
REMARK  7 active torsions:
REMARK  status: ('A' for Active; 'I' for Inactive)
REMARK    1  A    between atoms: C_1  and  C_2
REMARK    2  A    between atoms: C_2  and  C_3
REMARK    3  A    between atoms: C_3  and  C_4
REMARK    4  A    between atoms: C_4  and  N_5
REMARK    5  A    between atoms: C_15  and  C_16
REMARK    6  A    between atoms: C_15  and  C_17
REMARK    7  A    between atoms: C_20  and  N_23
REMARK                            x       y       z     vdW  Elec       q    Type
REMARK                         _______ _______ _______ _____ _____    ______ ____
ROOT
ATOM      1  N   UNL     1      -2.787  -2.571   0.015  0.00  0.00    -0.273 N 
ATOM      2  C   UNL     1      -3.399  -2.801   1.194  0.00  0.00    +0.250 C 
ATOM      3  O   UNL     1      -2.772  -2.734   2.234  0.00  0.00    -0.270 OA
ATOM      4  C   UNL     1      -4.834  -3.134   1.211  0.00  0.00    +0.058 A 
ATOM      5  C   UNL     1      -5.470  -3.564   2.373  0.00  0.00    +0.015 A 
ATOM      6  C   UNL     1      -6.814  -3.873   2.339  0.00  0.00    +0.001 A 
ATOM      7  C   UNL     1      -7.532  -3.760   1.159  0.00  0.00    +0.002 A 
ATOM      8  C   UNL     1      -6.915  -3.333  -0.000  0.00  0.00    +0.024 A 
ATOM      9  C   UNL     1      -5.568  -3.013   0.018  0.00  0.00    +0.041 A 
ATOM     10  N   UNL     1      -4.909  -2.555  -1.117  0.00  0.00    -0.319 N 
ATOM     11  C   UNL     1      -3.473  -2.812  -1.254  0.00  0.00    +0.125 C 
ATOM     12  C   UNL     1      -2.893  -1.890  -2.328  0.00  0.00    +0.059 C 
ATOM     13  H   UNL     1      -5.390  -2.071  -1.806  0.00  0.00    +0.148 HD
ENDROOT
BRANCH  11  14
ATOM     14  C   UNL     1      -3.266  -4.247  -1.668  0.00  0.00    -0.006 A 
ATOM     15  C   UNL     1      -2.113  -4.913  -1.298  0.00  0.00    +0.009 A 
ATOM     16  C   UNL     1      -1.922  -6.228  -1.678  0.00  0.00    +0.033 A 
ATOM     17  C   UNL     1      -2.885  -6.878  -2.428  0.00  0.00    +0.126 A 
ATOM     18  C   UNL     1      -4.038  -6.212  -2.797  0.00  0.00    +0.033 A 
ATOM     19  C   UNL     1      -4.231  -4.897  -2.414  0.00  0.00    +0.009 A 
BRANCH  17  20
ATOM     20  N   UNL     1      -2.681  -8.286  -2.835  0.00  0.00    +0.056 N 
ATOM     21  O   UNL     1      -1.672  -8.868  -2.512  0.00  0.00    -0.126 OA
ATOM     22  O   UNL     1      -3.523  -8.854  -3.491  0.00  0.00    -0.126 OA
ENDBRANCH  17  20
ENDBRANCH  11  14
BRANCH   1  23
ATOM     23  C   UNL     1      -1.413  -2.063   0.004  0.00  0.00    +0.110 C 
BRANCH  23  24
ATOM     24  C   UNL     1      -1.433  -0.534   0.013  0.00  0.00    +0.019 C 
BRANCH  24  26
ATOM     25  C   UNL     1      -0.019   1.526   0.010  0.00  0.00    +0.004 C 
ATOM     26  C   UNL     1       0.002  -0.004   0.002  0.00  0.00    -0.002 C 
ENDBRANCH  24  26
ENDBRANCH  23  24
ENDBRANCH   1  23
TORSDOF 5
