REMARK  Name = ZINC09880601
REMARK  4 active torsions:
REMARK  status: ('A' for Active; 'I' for Inactive)
REMARK    1  A    between atoms: C_10  and  C_11
REMARK    2  A    between atoms: C_11  and  N_12
REMARK    3  A    between atoms: C_19  and  C_22
REMARK    4  A    between atoms: C_19  and  O_30
REMARK                            x       y       z     vdW  Elec       q    Type
REMARK                         _______ _______ _______ _____ _____    ______ ____
ROOT
ATOM      1  N   UNL     1       5.328   0.507   1.329  0.00  0.00    -0.264 N 
ATOM      2  C   UNL     1       4.896   1.662   1.982  0.00  0.00    +0.043 A 
ATOM      3  C   UNL     1       4.078   2.703   1.547  0.00  0.00    +0.024 A 
ATOM      4  C   UNL     1       3.789   3.756   2.390  0.00  0.00    +0.002 A 
ATOM      5  C   UNL     1       4.308   3.788   3.672  0.00  0.00    +0.000 A 
ATOM      6  C   UNL     1       5.122   2.758   4.111  0.00  0.00    +0.009 A 
ATOM      7  C   UNL     1       5.412   1.706   3.271  0.00  0.00    +0.016 A 
ATOM      8  C   UNL     1       6.245   0.457   3.439  0.00  0.00    +0.189 C 
ATOM      9  C   UNL     1       6.114  -0.254   2.109  0.00  0.00    +0.258 C 
ATOM     10  O   UNL     1       6.625  -1.311   1.804  0.00  0.00    -0.272 OA
ENDROOT
BRANCH   8  11
ATOM     11  C   UNL     1       5.686  -0.414   4.565  0.00  0.00    +0.187 C 
ATOM     12  C   UNL     1       6.446  -1.730   4.683  0.00  0.00    +0.255 C 
ATOM     13  O   UNL     1       7.628  -1.802   4.958  0.00  0.00    -0.272 OA
ATOM     14  N   UNL     1       5.691  -2.775   4.456  0.00  0.00    -0.159 NA
ATOM     15  C   UNL     1       4.407  -2.710   4.156  0.00  0.00    +0.145 C 
ATOM     16  S   UNL     1       4.019  -1.071   4.143  0.00  0.00    -0.077 S 
ATOM     17  N   UNL     1       3.566  -3.756   3.909  0.00  0.00    -0.340 N 
ATOM     18  H   UNL     1       3.901  -4.665   3.945  0.00  0.00    +0.144 HD
ATOM     19  H   UNL     1       2.635  -3.589   3.697  0.00  0.00    +0.144 HD
ENDBRANCH   8  11
BRANCH   8  20
ATOM     20  O   UNL     1       7.609   0.796   3.697  0.00  0.00    -0.373 OA
ATOM     21  H   UNL     1       8.023   1.323   3.000  0.00  0.00    +0.211 HD
ENDBRANCH   8  20
BRANCH   1  22
ATOM     22  C   UNL     1       4.960   0.161  -0.046  0.00  0.00    +0.149 C 
BRANCH  22  32
ATOM     23  C   UNL     1       5.885  -0.287  -5.061  0.00  0.00    +0.001 A 
ATOM     24  C   UNL     1       4.886  -0.743  -4.203  0.00  0.00    +0.001 A 
ATOM     25  C   UNL     1       4.915  -0.451  -2.874  0.00  0.00    +0.009 A 
ATOM     26  C   UNL     1       5.967   0.322  -2.355  0.00  0.00    -0.013 A 
ATOM     27  C   UNL     1       6.984   0.786  -3.227  0.00  0.00    -0.018 A 
ATOM     28  C   UNL     1       6.920   0.464  -4.594  0.00  0.00    +0.008 A 
ATOM     29  C   UNL     1       8.037   1.558  -2.708  0.00  0.00    +0.008 A 
ATOM     30  C   UNL     1       8.066   1.850  -1.379  0.00  0.00    +0.001 A 
ATOM     31  C   UNL     1       7.067   1.394  -0.522  0.00  0.00    +0.006 A 
ATOM     32  C   UNL     1       6.032   0.644  -0.989  0.00  0.00    -0.022 A 
ENDBRANCH  22  32
ENDBRANCH   1  22
TORSDOF 4
