REMARK  Name = ZINC15289310
REMARK  13 active torsions:
REMARK  status: ('A' for Active; 'I' for Inactive)
REMARK    1  A    between atoms: C_1  and  C_2
REMARK    2  A    between atoms: C_2  and  C_3
REMARK    3  A    between atoms: C_2  and  C_4
REMARK    4  A    between atoms: C_4  and  N_5
REMARK    5  A    between atoms: C_6  and  N_33
REMARK    6  A    between atoms: C_7  and  N_14
REMARK    7  A    between atoms: N_14  and  C_15
REMARK    8  A    between atoms: C_15  and  C_16
REMARK    9  A    between atoms: C_16  and  O_17
REMARK   10  A    between atoms: O_17  and  C_18
REMARK   11  A    between atoms: C_19  and  C_21
REMARK   12  A    between atoms: C_21  and  N_22
REMARK   13  A    between atoms: N_22  and  C_23
REMARK                            x       y       z     vdW  Elec       q    Type
REMARK                         _______ _______ _______ _____ _____    ______ ____
ROOT
ATOM      1  N   UNL     1      -1.651  -4.488  -2.785  0.00  0.00    -0.261 N 
ATOM      2  C   UNL     1      -1.472  -3.673  -3.845  0.00  0.00    +0.237 C 
ATOM      3  O   UNL     1      -1.435  -2.470  -3.686  0.00  0.00    -0.274 OA
ENDROOT
BRANCH   1   6
ATOM      4  N   UNL     1      -0.801  -3.685   0.698  0.00  0.00    -0.280 N 
ATOM      5  C   UNL     1      -0.717  -4.225  -0.564  0.00  0.00    +0.127 A 
ATOM      6  C   UNL     1      -1.710  -3.950  -1.482  0.00  0.00    +0.140 A 
ATOM      7  C   UNL     1      -2.781  -3.123  -1.097  0.00  0.00    +0.277 A 
ATOM      8  O   UNL     1      -3.672  -2.864  -1.888  0.00  0.00    -0.266 OA
ATOM      9  N   UNL     1      -2.816  -2.619   0.153  0.00  0.00    -0.273 N 
ATOM     10  H   UNL     1      -3.554  -2.050   0.420  0.00  0.00    +0.173 HD
ATOM     11  C   UNL     1      -1.842  -2.903   1.036  0.00  0.00    +0.331 A 
ATOM     12  O   UNL     1      -1.901  -2.439   2.158  0.00  0.00    -0.246 OA
BRANCH   5  13
ATOM     13  N   UNL     1       0.344  -5.029  -0.907  0.00  0.00    -0.343 N 
ATOM     14  H   UNL     1       1.070  -5.168  -0.279  0.00  0.00    +0.144 HD
ATOM     15  H   UNL     1       0.367  -5.456  -1.778  0.00  0.00    +0.144 HD
ENDBRANCH   5  13
BRANCH   4  16
ATOM     16  C   UNL     1       0.246  -3.969   1.683  0.00  0.00    +0.131 C 
BRANCH  16  18
ATOM     17  C   UNL     1       1.030  -5.597   3.408  0.00  0.00    +0.009 C 
ATOM     18  C   UNL     1      -0.120  -5.230   2.467  0.00  0.00    +0.003 C 
ATOM     19  C   UNL     1      -1.386  -4.972   3.286  0.00  0.00    +0.009 C 
ENDBRANCH  16  18
ENDBRANCH   4  16
ENDBRANCH   1   6
BRANCH   1  20
ATOM     20  C   UNL     1      -1.786  -5.933  -2.987  0.00  0.00    +0.142 C 
BRANCH  20  21
ATOM     21  C   UNL     1      -3.268  -6.296  -3.102  0.00  0.00    +0.178 C 
BRANCH  21  22
ATOM     22  O   UNL     1      -3.816  -5.697  -4.278  0.00  0.00    -0.381 OA
ATOM     23  C   UNL     1      -5.202  -5.976  -4.480  0.00  0.00    +0.194 C 
ENDBRANCH  21  22
ENDBRANCH  20  21
ENDBRANCH   1  20
BRANCH   2  24
ATOM     24  C   UNL     1      -1.317  -4.255  -5.226  0.00  0.00    +0.198 C 
BRANCH  24  25
ATOM     25  N   UNL     1      -1.136  -3.171  -6.195  0.00  0.00    -0.335 N 
ATOM     26  H   UNL     1      -1.132  -2.248  -5.896  0.00  0.00    +0.147 HD
BRANCH  25  27
ATOM     27  C   UNL     1      -0.971  -3.466  -7.547  0.00  0.00    +0.035 A 
ATOM     28  C   UNL     1      -0.982  -4.775  -7.980  0.00  0.00    +0.023 A 
ATOM     29  C   UNL     1      -0.819  -5.079  -9.328  0.00  0.00    +0.002 A 
ATOM     30  C   UNL     1      -0.643  -4.097 -10.255  0.00  0.00    +0.008 A 
ATOM     31  C   UNL     1      -0.626  -2.750  -9.855  0.00  0.00    -0.016 A 
ATOM     32  C   UNL     1      -0.797  -2.427  -8.486  0.00  0.00    +0.003 A 
ATOM     33  C   UNL     1      -0.784  -1.080  -8.089  0.00  0.00    +0.010 A 
ATOM     34  C   UNL     1      -0.613  -0.104  -9.023  0.00  0.00    +0.001 A 
ATOM     35  C   UNL     1      -0.451  -0.421 -10.370  0.00  0.00    +0.001 A 
ATOM     36  C   UNL     1      -0.446  -1.716 -10.789  0.00  0.00    +0.008 A 
ENDBRANCH  25  27
ENDBRANCH  24  25
ENDBRANCH   2  24
TORSDOF 10
