REMARK  Name = ZINC20413726
REMARK  6 active torsions:
REMARK  status: ('A' for Active; 'I' for Inactive)
REMARK    1  A    between atoms: C_1  and  C_2
REMARK    2  A    between atoms: C_2  and  C_17
REMARK    3  A    between atoms: C_5  and  C_8
REMARK    4  A    between atoms: C_11  and  N_14
REMARK    5  A    between atoms: C_19  and  O_24
REMARK    6  A    between atoms: C_22  and  O_23
REMARK                            x       y       z     vdW  Elec       q    Type
REMARK                         _______ _______ _______ _____ _____    ______ ____
ROOT
ATOM      1  C   UNL     1      -3.284   1.262  -1.271  0.00  0.00    +0.065 C 
ATOM      2  C   UNL     1      -2.513   0.979   0.020  0.00  0.00    +0.148 C 
ATOM      3  N   UNL     1      -2.231  -0.470   0.123  0.00  0.00    -0.283 NA
ATOM      4  C   UNL     1      -3.326  -0.983   0.993  0.00  0.00    +0.120 C 
ATOM      5  C   UNL     1      -3.524   0.203   1.970  0.00  0.00    +0.165 C 
ATOM      6  O   UNL     1      -3.304   1.367   1.150  0.00  0.00    -0.346 OA
ATOM      7  H   UNL     1      -2.250  -0.920  -0.880  0.00  0.00    +0.125 HD
ENDROOT
BRANCH   5   8
ATOM      8  C   UNL     1      -4.925   0.204   2.523  0.00  0.00    -0.017 A 
ATOM      9  C   UNL     1      -5.978   0.640   1.741  0.00  0.00    +0.008 A 
ATOM     10  C   UNL     1      -7.264   0.637   2.247  0.00  0.00    +0.033 A 
ATOM     11  C   UNL     1      -7.497   0.206   3.540  0.00  0.00    +0.126 A 
ATOM     12  C   UNL     1      -6.443  -0.226   4.324  0.00  0.00    +0.033 A 
ATOM     13  C   UNL     1      -5.158  -0.227   3.816  0.00  0.00    +0.008 A 
BRANCH  11  14
ATOM     14  N   UNL     1      -8.873   0.207   4.084  0.00  0.00    +0.056 N 
ATOM     15  O   UNL     1      -9.078  -0.173   5.223  0.00  0.00    -0.126 OA
ATOM     16  O   UNL     1      -9.801   0.588   3.393  0.00  0.00    -0.126 OA
ENDBRANCH  11  14
ENDBRANCH   5   8
BRANCH   2  17
ATOM     17  C   UNL     1      -1.218   1.750   0.017  0.00  0.00    +0.043 A 
ATOM     18  C   UNL     1      -0.013   1.076   0.008  0.00  0.00    +0.056 A 
ATOM     19  C   UNL     1       1.179   1.786   0.000  0.00  0.00    +0.117 A 
ATOM     20  C   UNL     1       1.160   3.172   0.007  0.00  0.00    +0.049 A 
ATOM     21  C   UNL     1      -0.045   3.847   0.022  0.00  0.00    +0.049 A 
ATOM     22  C   UNL     1      -1.237   3.137   0.029  0.00  0.00    +0.124 A 
BRANCH  22  23
ATOM     23  O   UNL     1      -2.424   3.801   0.043  0.00  0.00    -0.506 OA
ATOM     24  H   UNL     1      -2.438   4.901   0.052  0.00  0.00    +0.292 HD
ENDBRANCH  22  23
BRANCH  19  25
ATOM     25  O   UNL     1       2.365   1.122  -0.014  0.00  0.00    -0.507 OA
ATOM     26  H   UNL     1       3.311   1.685  -0.020  0.00  0.00    +0.292 HD
ENDBRANCH  19  25
ENDBRANCH   2  17
TORSDOF 5
