REMARK  Name = ZINC41069870
REMARK  6 active torsions:
REMARK  status: ('A' for Active; 'I' for Inactive)
REMARK    1  A    between atoms: C_5  and  C_7
REMARK    2  A    between atoms: C_7  and  N_8
REMARK    3  A    between atoms: N_8  and  S_9
REMARK    4  A    between atoms: S_9  and  C_12
REMARK    5  A    between atoms: C_17  and  N_18
REMARK    6  A    between atoms: N_18  and  N_19
REMARK                            x       y       z     vdW  Elec       q    Type
REMARK                         _______ _______ _______ _____ _____    ______ ____
ROOT
ATOM      1  S   UNL     1       1.077  -4.275   1.777  0.00  0.00    +0.062 S 
ATOM      2  O   UNL     1       1.290  -4.527   3.159  0.00  0.00    -0.153 OA
ATOM      3  O   UNL     1      -0.194  -4.431   1.161  0.00  0.00    -0.153 OA
ENDROOT
BRANCH   1   4
ATOM      4  C   UNL     1       2.194  -5.317   0.898  0.00  0.00    +0.147 A 
ATOM      5  C   UNL     1       1.742  -6.109  -0.142  0.00  0.00    +0.048 A 
ATOM      6  C   UNL     1       2.657  -6.915  -0.807  0.00  0.00    +0.038 A 
ATOM      7  C   UNL     1       3.981  -6.903  -0.413  0.00  0.00    +0.128 A 
ATOM      8  N   UNL     1       4.383  -6.138   0.584  0.00  0.00    -0.236 NA
ATOM      9  C   UNL     1       3.542  -5.351   1.238  0.00  0.00    +0.159 A 
ATOM     10 BR   UNL     1       2.096  -8.018  -2.237  0.00  0.00    -0.049 Br
BRANCH   9  11
ATOM     11  N   UNL     1       4.010  -4.556   2.278  0.00  0.00    -0.266 N 
ATOM     12  H   UNL     1       3.419  -3.916   2.703  0.00  0.00    +0.167 HD
BRANCH  11  13
ATOM     13  N   UNL     1       5.304  -4.676   2.700  0.00  0.00    -0.255 NA
ATOM     14  H   UNL     1       5.948  -4.537   1.936  0.00  0.00    +0.140 HD
ATOM     15  H   UNL     1       5.498  -4.038   3.457  0.00  0.00    +0.140 HD
ENDBRANCH  11  13
ENDBRANCH   9  11
ENDBRANCH   1   4
BRANCH   1  16
ATOM     16  N   UNL     1       1.548  -2.712   1.503  0.00  0.00    -0.185 NA
ATOM     17  H   UNL     1       1.869  -2.166   2.237  0.00  0.00    +0.148 HD
BRANCH  16  18
ATOM     18  C   UNL     1       1.480  -2.152   0.150  0.00  0.00    +0.142 C 
BRANCH  18  23
ATOM     19  C   UNL     1       0.558   1.508   0.203  0.00  0.00    +0.000 A 
ATOM     20  C   UNL     1       1.798   2.103   0.350  0.00  0.00    +0.001 A 
ATOM     21  C   UNL     1       2.935   1.322   0.431  0.00  0.00    +0.020 A 
ATOM     22  C   UNL     1       2.833  -0.056   0.367  0.00  0.00    +0.045 A 
ATOM     23  C   UNL     1       1.592  -0.651   0.221  0.00  0.00    -0.014 A 
ATOM     24  C   UNL     1       0.456   0.131   0.139  0.00  0.00    +0.006 A 
ATOM     25 CL   UNL     1       4.260  -1.039   0.469  0.00  0.00    -0.083 Cl
ENDBRANCH  18  23
ENDBRANCH  16  18
ENDBRANCH   1  16
TORSDOF 6
