REMARK  Name = ZINC43735384
REMARK  6 active torsions:
REMARK  status: ('A' for Active; 'I' for Inactive)
REMARK    1  A    between atoms: C_1  and  C_2
REMARK    2  A    between atoms: C_5  and  O_34
REMARK    3  A    between atoms: C_17  and  O_33
REMARK    4  A    between atoms: C_19  and  C_32
REMARK    5  A    between atoms: C_20  and  O_31
REMARK    6  A    between atoms: C_23  and  C_25
REMARK                            x       y       z     vdW  Elec       q    Type
REMARK                         _______ _______ _______ _____ _____    ______ ____
ROOT
ATOM      1  C   UNL     1       0.123   1.185   0.096  0.00  0.00    +0.012 C 
ATOM      2  C   UNL     1       0.053  -0.343   0.111  0.00  0.00    -0.026 C 
ATOM      3  C   UNL     1       0.765  -0.898  -1.124  0.00  0.00    +0.010 C 
ATOM      4  C   UNL     1       2.230  -0.456  -1.110  0.00  0.00    +0.032 C 
ATOM      5  C   UNL     1       2.910  -0.987   0.153  0.00  0.00    +0.115 C 
ATOM      6  C   UNL     1       2.198  -0.431   1.388  0.00  0.00    +0.035 C 
ATOM      7  C   UNL     1       0.734  -0.873   1.374  0.00  0.00    -0.002 C 
ATOM      8  C   UNL     1       0.021  -0.315   2.608  0.00  0.00    +0.004 C 
ATOM      9  C   UNL     1      -1.443  -0.758   2.595  0.00  0.00    +0.007 C 
ATOM     10  C   UNL     1      -2.125  -0.233   1.330  0.00  0.00    +0.025 C 
ATOM     11  C   UNL     1      -1.412  -0.786   0.097  0.00  0.00    +0.003 C 
ATOM     12  C   UNL     1      -2.099  -0.226  -1.153  0.00  0.00    +0.036 C 
ATOM     13  C   UNL     1      -3.538  -0.732  -1.186  0.00  0.00    +0.124 C 
ATOM     14  C   UNL     1      -4.320  -0.226   0.029  0.00  0.00    +0.029 C 
ATOM     15  C   UNL     1      -3.586  -0.611   1.323  0.00  0.00    +0.077 C 
ATOM     16  C   UNL     1      -3.805  -2.131   1.445  0.00  0.00    +0.036 C 
ATOM     17  C   UNL     1      -5.263  -2.324   0.968  0.00  0.00    +0.011 C 
ATOM     18  C   UNL     1      -5.619  -1.072   0.106  0.00  0.00    +0.030 C 
ATOM     19  C   UNL     1      -4.621   1.270  -0.078  0.00  0.00    +0.017 C 
ENDROOT
BRANCH  18  20
ATOM     20  C   UNL     1      -6.015  -1.540  -1.270  0.00  0.00    -0.022 C 
ATOM     21  C   UNL     1      -5.987  -2.792  -1.721  0.00  0.00    +0.094 C 
ATOM     22  C   UNL     1      -6.453  -2.810  -3.111  0.00  0.00    +0.332 C 
ATOM     23  O   UNL     1      -6.545  -3.804  -3.804  0.00  0.00    -0.246 OA
ATOM     24  O   UNL     1      -6.764  -1.561  -3.503  0.00  0.00    -0.457 OA
ATOM     25  C   UNL     1      -6.525  -0.679  -2.401  0.00  0.00    +0.264 C 
ENDBRANCH  18  20
BRANCH  15  26
ATOM     26  O   UNL     1      -4.243   0.031   2.417  0.00  0.00    -0.388 OA
ATOM     27  H   UNL     1      -3.881  -0.200   3.284  0.00  0.00    +0.210 HD
ENDBRANCH  15  26
BRANCH  13  28
ATOM     28  O   UNL     1      -3.534  -2.161  -1.179  0.00  0.00    -0.391 OA
ATOM     29  H   UNL     1      -3.142  -2.557  -1.970  0.00  0.00    +0.210 HD
ENDBRANCH  13  28
BRANCH   5  30
ATOM     30  O   UNL     1       2.843  -2.414   0.167  0.00  0.00    -0.392 OA
ATOM     31  H   UNL     1       3.275  -2.836  -0.589  0.00  0.00    +0.210 HD
ENDBRANCH   5  30
TORSDOF 4
