REMARK  Name = ZINC40735757
REMARK  12 active torsions:
REMARK  status: ('A' for Active; 'I' for Inactive)
REMARK    1  A    between atoms: C_1  and  C_2
REMARK    2  A    between atoms: C_2  and  C_3
REMARK    3  A    between atoms: C_2  and  C_4
REMARK    4  A    between atoms: C_4  and  N_5
REMARK    5  A    between atoms: N_5  and  C_6
REMARK    6  A    between atoms: C_6  and  C_7
REMARK    7  A    between atoms: C_7  and  C_8
REMARK    8  A    between atoms: C_7  and  C_9
REMARK    9  A    between atoms: C_11  and  N_27
REMARK   10  A    between atoms: C_12  and  N_16
REMARK   11  A    between atoms: N_16  and  N_17
REMARK   12  A    between atoms: C_18  and  C_20
REMARK                            x       y       z     vdW  Elec       q    Type
REMARK                         _______ _______ _______ _____ _____    ______ ____
ROOT
ATOM      1  N   UNL     1       2.243  -0.033  -1.083  0.00  0.00    -0.313 N 
ATOM      2  C   UNL     1       2.958   0.976  -1.717  0.00  0.00    +0.147 A 
ATOM      3  C   UNL     1       4.348   0.904  -1.819  0.00  0.00    +0.107 A 
ATOM      4  C   UNL     1       5.016   1.944  -2.466  0.00  0.00    +0.161 A 
ATOM      5  N   UNL     1       4.308   2.959  -2.957  0.00  0.00    -0.217 NA
ATOM      6  C   UNL     1       2.996   2.989  -2.838  0.00  0.00    +0.225 A 
ATOM      7  N   UNL     1       2.326   2.025  -2.240  0.00  0.00    -0.219 NA
ENDROOT
BRANCH   3   8
ATOM      8  N   UNL     1       5.055  -0.186  -1.286  0.00  0.00    -0.353 N 
ATOM      9  H   UNL     1       4.574  -0.939  -0.909  0.00  0.00    +0.143 HD
ATOM     10  H   UNL     1       6.025  -0.186  -1.295  0.00  0.00    +0.143 HD
ENDBRANCH   3   8
BRANCH   4  11
ATOM     11  N   UNL     1       6.400   1.922  -2.595  0.00  0.00    -0.247 N 
ATOM     12  H   UNL     1       6.909   1.179  -2.235  0.00  0.00    +0.172 HD
BRANCH  11  13
ATOM     13  N   UNL     1       7.060   2.973  -3.247  0.00  0.00    -0.231 N 
ATOM     14  C   UNL     1       8.402   2.951  -3.372  0.00  0.00    +0.261 C 
ATOM     15  O   UNL     1       9.039   2.020  -2.920  0.00  0.00    -0.269 OA
ATOM     16  H   UNL     1       6.551   3.715  -3.607  0.00  0.00    +0.173 HD
BRANCH  14  17
ATOM     17  C   UNL     1       9.098   4.059  -4.059  0.00  0.00    +0.052 A 
ATOM     18  C   UNL     1       8.369   5.133  -4.574  0.00  0.00    +0.014 A 
ATOM     19  C   UNL     1       9.024   6.163  -5.215  0.00  0.00    +0.001 A 
ATOM     20  C   UNL     1      10.402   6.135  -5.347  0.00  0.00    +0.001 A 
ATOM     21  C   UNL     1      11.131   5.076  -4.840  0.00  0.00    +0.016 A 
ATOM     22  C   UNL     1      10.488   4.040  -4.191  0.00  0.00    +0.030 A 
ATOM     23 BR   UNL     1      11.487   2.595  -3.490  0.00  0.00    -0.050 Br
ENDBRANCH  14  17
ENDBRANCH  11  13
ENDBRANCH   4  11
BRANCH   1  24
ATOM     24  C   UNL     1       1.692   0.189   0.256  0.00  0.00    +0.109 C 
BRANCH  24  26
ATOM     25  C   UNL     1       3.881   0.927   1.208  0.00  0.00    +0.009 C 
ATOM     26  C   UNL     1       2.763  -0.113   1.306  0.00  0.00    +0.000 C 
ATOM     27  C   UNL     1       2.139  -0.061   2.701  0.00  0.00    +0.009 C 
ENDBRANCH  24  26
ENDBRANCH   1  24
BRANCH   1  28
ATOM     28  C   UNL     1       2.042  -1.320  -1.754  0.00  0.00    +0.109 C 
BRANCH  28  29
ATOM     29  C   UNL     1       0.664  -1.339  -2.417  0.00  0.00    +0.000 C 
ATOM     30  C   UNL     1       0.622  -0.296  -3.537  0.00  0.00    +0.009 C 
ATOM     31  C   UNL     1       0.399  -2.727  -3.004  0.00  0.00    +0.009 C 
ENDBRANCH  28  29
ENDBRANCH   1  28
TORSDOF 8
