REMARK  Name = ZINC05352210
REMARK  8 active torsions:
REMARK  status: ('A' for Active; 'I' for Inactive)
REMARK    1  A    between atoms: C_1  and  N_51
REMARK    2  A    between atoms: C_2  and  N_51
REMARK    3  A    between atoms: C_3  and  C_4
REMARK    4  A    between atoms: C_3  and  N_51
REMARK    5  A    between atoms: C_4  and  C_5
REMARK    6  A    between atoms: C_5  and  N_6
REMARK    7  A    between atoms: C_12  and  C_22
REMARK    8  A    between atoms: C_17  and  O_21
REMARK                            x       y       z     vdW  Elec       q    Type
REMARK                         _______ _______ _______ _____ _____    ______ ____
ROOT
ATOM      1  N   UNL     1       2.045   4.520  -2.902  0.00  0.00    -0.318 N 
ATOM      2  C   UNL     1       3.242   4.900  -2.390  0.00  0.00    +0.204 A 
ATOM      3  N   UNL     1       3.516   4.763  -1.125  0.00  0.00    -0.202 NA
ATOM      4  C   UNL     1       2.632   4.240  -0.254  0.00  0.00    +0.229 A 
ATOM      5  C   UNL     1       1.408   3.835  -0.692  0.00  0.00    +0.066 A 
ATOM      6  C   UNL     1       1.092   3.976  -2.064  0.00  0.00    +0.115 A 
ATOM      7  C   UNL     1       0.396   3.244   0.248  0.00  0.00    +0.091 C 
ATOM      8  C   UNL     1       0.753   3.563   1.675  0.00  0.00    +0.007 A 
ATOM      9  C   UNL     1      -0.205   3.428   2.664  0.00  0.00    +0.012 A 
ATOM     10  C   UNL     1       0.106   3.716   3.978  0.00  0.00    +0.046 A 
ATOM     11  C   UNL     1       1.384   4.144   4.310  0.00  0.00    +0.120 A 
ATOM     12  C   UNL     1       2.345   4.281   3.322  0.00  0.00    +0.092 A 
ATOM     13  C   UNL     1       2.031   3.990   2.000  0.00  0.00    +0.138 A 
ATOM     14  O   UNL     1       2.982   4.125   1.046  0.00  0.00    -0.437 OA
ATOM     15  H   UNL     1      -0.379   3.660  -3.455  0.00  0.00    +0.157 HD
ATOM     16  N   UNL     1      -0.117   3.573  -2.473  0.00  0.00    -0.384 N 
ATOM     17  H   UNL     1      -0.782   3.176  -1.799  0.00  0.00    +0.157 HD
ENDROOT
BRANCH   7  18
ATOM     18  C   UNL     1       0.359   1.749   0.066  0.00  0.00    -0.035 A 
ATOM     19  C   UNL     1      -0.808   1.130  -0.341  0.00  0.00    +0.004 A 
ATOM     20  C   UNL     1      -0.842  -0.241  -0.508  0.00  0.00    +0.000 A 
ATOM     21  C   UNL     1       0.293  -0.995  -0.270  0.00  0.00    +0.000 A 
ATOM     22  C   UNL     1       1.461  -0.376   0.136  0.00  0.00    +0.000 A 
ATOM     23  C   UNL     1       1.494   0.996   0.304  0.00  0.00    +0.004 A 
ENDBRANCH   7  18
BRANCH  11  24
ATOM     24  O   UNL     1       1.692   4.428   5.602  0.00  0.00    -0.507 OA
ATOM     25  H   UNL     1       2.030   3.672   6.102  0.00  0.00    +0.292 HD
ENDBRANCH  11  24
BRANCH   1  26
ATOM     26  C   UNL     1       1.766   4.684  -4.331  0.00  0.00    +0.123 C 
BRANCH  26  27
ATOM     27  C   UNL     1       1.028   6.005  -4.558  0.00  0.00    +0.003 C 
BRANCH  27  28
ATOM     28  C   UNL     1       0.737   6.177  -6.050  0.00  0.00    -0.078 C 
BRANCH  28  31
ATOM     29  C   UNL     1       0.890   8.591  -5.946  0.00  0.00    -0.097 C 
ATOM     30  C   UNL     1      -0.476   7.537  -7.645  0.00  0.00    -0.097 C 
ATOM     31  N   UNL     1       0.006   7.446  -6.250  0.00  0.00    +0.376 N 
ATOM     32  H   UNL     1      -0.801   7.470  -5.616  0.00  0.00    -0.083 HD
ENDBRANCH  28  31
ENDBRANCH  27  28
ENDBRANCH  26  27
ENDBRANCH   1  26
TORSDOF 6
