REMARK  Name = ZINC62009069
REMARK  8 active torsions:
REMARK  status: ('A' for Active; 'I' for Inactive)
REMARK    1  A    between atoms: C_1  and  C_2
REMARK    2  A    between atoms: N_4  and  C_9
REMARK    3  A    between atoms: C_6  and  C_8
REMARK    4  A    between atoms: C_9  and  C_10
REMARK    5  A    between atoms: C_10  and  C_11
REMARK    6  A    between atoms: C_11  and  N_12
REMARK    7  A    between atoms: C_13  and  C_15
REMARK    8  A    between atoms: N_17  and  C_18
REMARK                            x       y       z     vdW  Elec       q    Type
REMARK                         _______ _______ _______ _____ _____    ______ ____
ROOT
ATOM      1  C   UNL     1       8.420   0.920  -4.870  0.00  0.00    +0.303 C 
ATOM      2  O   UNL     1       8.747   1.677  -3.978  0.00  0.00    -0.265 OA
ATOM      3  N   UNL     1       9.256   0.694  -5.902  0.00  0.00    -0.278 N 
ATOM      4  H   UNL     1       9.024   0.040  -6.580  0.00  0.00    +0.155 HD
ENDROOT
BRANCH   3   5
ATOM      5  C   UNL     1      10.458   1.403  -5.997  0.00  0.00    +0.034 A 
ATOM      6  C   UNL     1      10.950   1.774  -7.242  0.00  0.00    +0.025 A 
ATOM      7  C   UNL     1      12.136   2.474  -7.335  0.00  0.00    +0.025 A 
ATOM      8  C   UNL     1      12.838   2.807  -6.184  0.00  0.00    +0.037 A 
ATOM      9  C   UNL     1      12.346   2.436  -4.939  0.00  0.00    -0.024 A 
ATOM     10  C   UNL     1      11.158   1.741  -4.845  0.00  0.00    +0.028 A 
ATOM     11  C   UNL     1      13.110   2.800  -3.693  0.00  0.00    +0.046 C 
ATOM     12  C   UNL     1      14.611   2.764  -3.984  0.00  0.00    +0.101 C 
ATOM     13  C   UNL     1      14.906   3.527  -5.246  0.00  0.00    +0.218 C 
ATOM     14  O   UNL     1      15.938   4.160  -5.337  0.00  0.00    -0.275 OA
ATOM     15  N   UNL     1      14.040   3.517  -6.276  0.00  0.00    -0.285 N 
ATOM     16  H   UNL     1      14.251   4.005  -7.088  0.00  0.00    +0.155 HD
ENDBRANCH   3   5
BRANCH   1  18
ATOM     17  N   UNL     1       6.255   0.467  -3.789  0.00  0.00    -0.308 N 
ATOM     18  C   UNL     1       7.091   0.241  -4.822  0.00  0.00    +0.299 C 
ATOM     19  O   UNL     1       6.764  -0.515  -5.713  0.00  0.00    -0.265 OA
ATOM     20  H   UNL     1       6.516   1.071  -3.077  0.00  0.00    +0.149 HD
BRANCH  17  21
ATOM     21  C   UNL     1       4.952  -0.200  -3.743  0.00  0.00    +0.106 C 
BRANCH  21  22
ATOM     22  C   UNL     1       4.205   0.227  -2.477  0.00  0.00    +0.034 C 
BRANCH  22  23
ATOM     23  C   UNL     1       2.844  -0.470  -2.429  0.00  0.00    +0.086 C 
BRANCH  23  27
ATOM     24  C   UNL     1      -0.022   1.511   0.007  0.00  0.00    +0.039 C 
ATOM     25  C   UNL     1       0.007  -0.019   0.008  0.00  0.00    +0.130 C 
ATOM     26  C   UNL     1       0.731  -0.517  -1.246  0.00  0.00    +0.115 C 
ATOM     27  N   UNL     1       2.128  -0.060  -1.213  0.00  0.00    -0.297 NA
ATOM     28  C   UNL     1       2.809  -0.555  -0.008  0.00  0.00    +0.115 C 
ATOM     29  C   UNL     1       2.065  -0.056   1.233  0.00  0.00    +0.130 C 
ATOM     30  O   UNL     1       0.701  -0.483   1.169  0.00  0.00    -0.371 OA
ATOM     31  C   UNL     1       2.722  -0.633   2.489  0.00  0.00    +0.039 C 
ENDBRANCH  23  27
ENDBRANCH  22  23
ENDBRANCH  21  22
ENDBRANCH  17  21
ENDBRANCH   1  18
TORSDOF 6
