REMARK  Name = ZINC00883377
REMARK  8 active torsions:
REMARK  status: ('A' for Active; 'I' for Inactive)
REMARK    1  A    between atoms: C_1  and  C_2
REMARK    2  A    between atoms: C_2  and  O_3
REMARK    3  A    between atoms: O_3  and  C_4
REMARK    4  A    between atoms: C_8  and  C_10
REMARK    5  A    between atoms: C_20  and  C_32
REMARK    6  A    between atoms: C_21  and  C_22
REMARK    7  A    between atoms: N_24  and  C_25
REMARK    8  A    between atoms: C_30  and  C_31
REMARK                            x       y       z     vdW  Elec       q    Type
REMARK                         _______ _______ _______ _____ _____    ______ ____
ROOT
ATOM      1  C   UNL     1      -2.476  -0.489  -0.102  0.00  0.00    +0.090 C 
ATOM      2  C   UNL     1      -3.793  -0.980  -0.648  0.00  0.00    +0.024 C 
ATOM      3  C   UNL     1      -4.826  -0.129  -0.825  0.00  0.00    +0.015 C 
ATOM      4  C   UNL     1      -6.146  -0.612  -1.373  0.00  0.00    +0.051 C 
ATOM      5  C   UNL     1      -6.371  -2.069  -0.964  0.00  0.00    +0.014 C 
ATOM      6  C   UNL     1      -5.204  -2.909  -1.495  0.00  0.00    +0.080 C 
ATOM      7  C   UNL     1      -3.914  -2.344  -0.965  0.00  0.00    +0.162 C 
ATOM      8  O   UNL     1      -2.960  -3.080  -0.809  0.00  0.00    -0.292 OA
ATOM      9  N   UNL     1      -4.695   1.197  -0.511  0.00  0.00    -0.321 N 
ATOM     10  C   UNL     1      -3.457   1.768  -0.398  0.00  0.00    +0.014 C 
ATOM     11  C   UNL     1      -2.369   1.003  -0.212  0.00  0.00    +0.043 C 
ATOM     12  C   UNL     1      -3.312   3.266  -0.489  0.00  0.00    +0.061 C 
ATOM     13  H   UNL     1      -5.590   1.815  -0.348  0.00  0.00    +0.152 HD
ENDROOT
BRANCH   1  18
ATOM     14  C   UNL     1      -1.243  -2.093   3.090  0.00  0.00    +0.121 A 
ATOM     15  C   UNL     1      -2.165  -1.616   4.011  0.00  0.00    +0.045 A 
ATOM     16  C   UNL     1      -3.181  -0.777   3.598  0.00  0.00    +0.004 A 
ATOM     17  C   UNL     1      -3.281  -0.413   2.267  0.00  0.00    +0.005 A 
ATOM     18  C   UNL     1      -2.364  -0.887   1.348  0.00  0.00    -0.032 A 
ATOM     19  C   UNL     1      -1.348  -1.731   1.755  0.00  0.00    +0.050 A 
BRANCH  14  20
ATOM     20  O   UNL     1      -0.242  -2.919   3.494  0.00  0.00    -0.492 OA
BRANCH  20  22
ATOM     21  C   UNL     1       0.986  -4.187   5.145  0.00  0.00    +0.048 C 
ATOM     22  C   UNL     1      -0.199  -3.256   4.882  0.00  0.00    +0.225 C 
ENDBRANCH  20  22
ENDBRANCH  14  20
ENDBRANCH   1  18
BRANCH  11  23
ATOM     23  C   UNL     1      -1.096   1.618  -0.112  0.00  0.00    +0.247 C 
ATOM     24  O   UNL     1      -0.381   1.699  -1.094  0.00  0.00    -0.270 OA
ATOM     25  N   UNL     1      -0.678   2.112   1.070  0.00  0.00    -0.281 N 
ATOM     26  H   UNL     1      -1.296   1.984   1.970  0.00  0.00    +0.155 HD
BRANCH  25  27
ATOM     27  C   UNL     1       0.544   2.788   1.151  0.00  0.00    +0.037 A 
ATOM     28  C   UNL     1       1.612   2.395   0.355  0.00  0.00    +0.023 A 
ATOM     29  C   UNL     1       2.815   3.068   0.435  0.00  0.00    +0.002 A 
ATOM     30  C   UNL     1       2.960   4.127   1.313  0.00  0.00    +0.000 A 
ATOM     31  C   UNL     1       1.901   4.517   2.111  0.00  0.00    +0.005 A 
ATOM     32  C   UNL     1       0.693   3.851   2.033  0.00  0.00    -0.029 A 
ATOM     33  C   UNL     1      -0.462   4.278   2.902  0.00  0.00    +0.045 C 
ENDBRANCH  25  27
ENDBRANCH  11  23
TORSDOF 5
