REMARK  Name = ZINC66931440
REMARK  6 active torsions:
REMARK  status: ('A' for Active; 'I' for Inactive)
REMARK    1  A    between atoms: C_1  and  C_2
REMARK    2  A    between atoms: C_2  and  C_4
REMARK    3  A    between atoms: C_2  and  N_19
REMARK    4  A    between atoms: N_6  and  C_7
REMARK    5  A    between atoms: C_7  and  C_8
REMARK    6  A    between atoms: C_8  and  O_18
REMARK                            x       y       z     vdW  Elec       q    Type
REMARK                         _______ _______ _______ _____ _____    ______ ____
ROOT
ATOM      1  C   UNL     1       0.647  -0.176   1.433  0.00  0.00    +0.234 C 
ATOM      2  O   UNL     1       0.058  -0.815   2.279  0.00  0.00    -0.274 OA
ATOM      3  N   UNL     1       1.985  -0.032   1.509  0.00  0.00    -0.311 N 
ATOM      4  H   UNL     1       2.457   0.479   0.833  0.00  0.00    +0.149 HD
ENDROOT
BRANCH   1   6
ATOM      5  C   UNL     1       0.091   1.972   0.326  0.00  0.00    +0.038 C 
ATOM      6  C   UNL     1      -0.116   0.456   0.298  0.00  0.00    +0.168 C 
BRANCH   6   7
ATOM      7  N   UNL     1      -1.542   0.155   0.441  0.00  0.00    -0.212 N 
ATOM      8  C   UNL     1      -2.272  -0.520  -0.473  0.00  0.00    +0.247 C 
ATOM      9  O   UNL     1      -1.888  -0.975  -1.529  0.00  0.00    -0.273 OA
ATOM     10  C   UNL     1      -3.664  -0.586   0.099  0.00  0.00    +0.113 C 
ATOM     11  C   UNL     1      -4.112  -2.041   0.296  0.00  0.00    +0.035 C 
ATOM     12  C   UNL     1      -5.631  -2.011  -0.014  0.00  0.00    +0.003 C 
ATOM     13  C   UNL     1      -5.725  -0.996  -1.181  0.00  0.00    +0.003 C 
ATOM     14  C   UNL     1      -4.679   0.085  -0.830  0.00  0.00    +0.035 C 
ATOM     15  N   UNL     1      -3.568   0.116   1.381  0.00  0.00    -0.285 N 
ATOM     16  C   UNL     1      -2.284   0.510   1.498  0.00  0.00    +0.310 C 
ATOM     17  O   UNL     1      -1.850   1.123   2.454  0.00  0.00    -0.252 OA
ATOM     18  H   UNL     1      -4.283   0.264   2.019  0.00  0.00    +0.151 HD
ENDBRANCH   6   7
ENDBRANCH   1   6
BRANCH   3  19
ATOM     19  C   UNL     1       2.727  -0.647   2.613  0.00  0.00    +0.143 C 
BRANCH  19  20
ATOM     20  C   UNL     1       4.195  -0.222   2.540  0.00  0.00    +0.107 C 
ATOM     21  C   UNL     1       4.281   1.303   2.581  0.00  0.00    +0.041 C 
ATOM     22  C   UNL     1       5.754   1.701   2.727  0.00  0.00    +0.008 C 
ATOM     23  C   UNL     1       6.220   1.316   4.129  0.00  0.00    +0.035 C 
ATOM     24  C   UNL     1       5.878  -0.121   4.425  0.00  0.00    -0.041 A 
ATOM     25  C   UNL     1       4.946  -0.826   3.698  0.00  0.00    -0.011 A 
ATOM     26  C   UNL     1       4.672  -2.147   4.027  0.00  0.00    +0.007 A 
ATOM     27  C   UNL     1       5.329  -2.759   5.074  0.00  0.00    +0.000 A 
ATOM     28  C   UNL     1       6.268  -2.053   5.802  0.00  0.00    +0.000 A 
ATOM     29  C   UNL     1       6.540  -0.739   5.478  0.00  0.00    +0.004 A 
BRANCH  20  30
ATOM     30  O   UNL     1       4.761  -0.692   1.315  0.00  0.00    -0.382 OA
ATOM     31  H   UNL     1       4.735  -1.653   1.213  0.00  0.00    +0.211 HD
ENDBRANCH  20  30
ENDBRANCH  19  20
ENDBRANCH   3  19
TORSDOF 5
