REMARK  Name = ZINC12714753
REMARK  11 active torsions:
REMARK  status: ('A' for Active; 'I' for Inactive)
REMARK    1  A    between atoms: C_1  and  C_2
REMARK    2  A    between atoms: C_5  and  N_9
REMARK    3  A    between atoms: C_6  and  C_8
REMARK    4  A    between atoms: N_9  and  C_10
REMARK    5  A    between atoms: C_10  and  C_12
REMARK    6  A    between atoms: C_10  and  C_18
REMARK    7  A    between atoms: C_15  and  C_17
REMARK    8  A    between atoms: N_20  and  C_21
REMARK    9  A    between atoms: C_27  and  C_29
REMARK   10  A    between atoms: C_30  and  N_37
REMARK   11  A    between atoms: C_31  and  C_34
REMARK                            x       y       z     vdW  Elec       q    Type
REMARK                         _______ _______ _______ _____ _____    ______ ____
ROOT
ATOM      1  N   UNL     1      -4.384   3.538   2.117  0.00  0.00    -0.248 N 
ATOM      2  C   UNL     1      -4.543   4.861   2.320  0.00  0.00    +0.262 C 
ATOM      3  O   UNL     1      -4.253   5.351   3.395  0.00  0.00    -0.269 OA
ENDROOT
BRANCH   1   8
ATOM      4  C   UNL     1      -5.736   1.252  -2.895  0.00  0.00    +0.044 C 
ATOM      5  C   UNL     1      -5.377   1.860  -1.563  0.00  0.00    -0.050 A 
ATOM      6  C   UNL     1      -6.318   1.910  -0.552  0.00  0.00    +0.005 A 
ATOM      7  C   UNL     1      -5.991   2.461   0.671  0.00  0.00    +0.024 A 
ATOM      8  C   UNL     1      -4.717   2.975   0.881  0.00  0.00    +0.041 A 
ATOM      9  C   UNL     1      -3.775   2.923  -0.137  0.00  0.00    -0.029 A 
ATOM     10  C   UNL     1      -4.107   2.365  -1.356  0.00  0.00    +0.008 A 
ATOM     11  C   UNL     1      -2.390   3.475   0.088  0.00  0.00    +0.045 C 
ENDBRANCH   1   8
BRANCH   2  12
ATOM     12  C   UNL     1      -5.065   5.708   1.246  0.00  0.00    +0.116 A 
ATOM     13  C   UNL     1      -5.311   7.083   1.243  0.00  0.00    +0.076 A 
ATOM     14  C   UNL     1      -5.810   7.534   0.021  0.00  0.00    +0.155 A 
ATOM     15  N   UNL     1      -6.001   6.672  -0.953  0.00  0.00    -0.203 NA
ATOM     16  S   UNL     1      -5.564   5.261  -0.404  0.00  0.00    +0.019 S 
BRANCH  14  17
ATOM     17  C   UNL     1      -6.127   8.961  -0.173  0.00  0.00    +0.262 C 
ATOM     18  O   UNL     1      -5.948   9.752   0.732  0.00  0.00    -0.269 OA
ATOM     19  N   UNL     1      -6.614   9.388  -1.355  0.00  0.00    -0.324 N 
ATOM     20  H   UNL     1      -6.756   8.756  -2.078  0.00  0.00    +0.145 HD
ATOM     21  H   UNL     1      -6.822  10.326  -1.484  0.00  0.00    +0.145 HD
ENDBRANCH  14  17
BRANCH  13  22
ATOM     22  N   UNL     1      -5.081   7.910   2.335  0.00  0.00    -0.355 N 
ATOM     23  H   UNL     1      -4.729   7.538   3.159  0.00  0.00    +0.142 HD
ATOM     24  H   UNL     1      -5.271   8.859   2.273  0.00  0.00    +0.142 HD
ENDBRANCH  13  22
ENDBRANCH   2  12
BRANCH   1  25
ATOM     25  C   UNL     1      -3.862   2.690   3.192  0.00  0.00    +0.233 C 
BRANCH  25  26
ATOM     26  C   UNL     1      -2.691   1.893   2.678  0.00  0.00    +0.135 A 
ATOM     27  C   UNL     1      -1.487   1.793   3.269  0.00  0.00    +0.047 A 
ATOM     28  C   UNL     1      -0.697   0.953   2.451  0.00  0.00    +0.045 A 
ATOM     29  C   UNL     1      -1.466   0.589   1.409  0.00  0.00    +0.102 A 
ATOM     30  O   UNL     1      -2.670   1.166   1.548  0.00  0.00    -0.462 OA
ATOM     31  C   UNL     1      -1.044  -0.308   0.274  0.00  0.00    +0.086 C 
ENDBRANCH  25  26
BRANCH  25  32
ATOM     32  C   UNL     1      -4.943   1.751   3.660  0.00  0.00    +0.242 C 
ATOM     33  O   UNL     1      -6.041   1.786   3.147  0.00  0.00    -0.273 OA
ATOM     34  N   UNL     1      -4.689   0.871   4.650  0.00  0.00    -0.311 N 
ATOM     35  H   UNL     1      -3.810   0.843   5.060  0.00  0.00    +0.149 HD
BRANCH  34  36
ATOM     36  C   UNL     1      -5.739  -0.042   5.105  0.00  0.00    +0.073 C 
ATOM     37  C   UNL     1      -6.607   0.660   6.152  0.00  0.00    +0.022 C 
ATOM     38  C   UNL     1      -7.705  -0.294   6.628  0.00  0.00    +0.002 C 
ATOM     39  C   UNL     1      -7.065  -1.538   7.247  0.00  0.00    +0.000 C 
ATOM     40  C   UNL     1      -6.197  -2.240   6.201  0.00  0.00    +0.002 C 
ATOM     41  C   UNL     1      -5.100  -1.286   5.725  0.00  0.00    +0.022 C 
ENDBRANCH  34  36
ENDBRANCH  25  32
ENDBRANCH   1  25
TORSDOF 8
