REMARK  Name = ZINC04355538
REMARK  13 active torsions:
REMARK  status: ('A' for Active; 'I' for Inactive)
REMARK    1  A    between atoms: C_1  and  C_2
REMARK    2  A    between atoms: C_5  and  C_8
REMARK    3  A    between atoms: C_10  and  C_13
REMARK    4  A    between atoms: C_13  and  C_15
REMARK    5  A    between atoms: C_13  and  N_18
REMARK    6  A    between atoms: C_15  and  C_16
REMARK    7  A    between atoms: C_15  and  C_17
REMARK    8  A    between atoms: C_19  and  C_21
REMARK    9  A    between atoms: C_21  and  C_22
REMARK   10  A    between atoms: C_22  and  C_23
REMARK   11  A    between atoms: C_23  and  C_24
REMARK   12  A    between atoms: C_24  and  C_25
REMARK   13  A    between atoms: C_25  and  N_26
REMARK                            x       y       z     vdW  Elec       q    Type
REMARK                         _______ _______ _______ _____ _____    ______ ____
ROOT
ATOM      1  C   UNL     1       0.102  -7.482   1.642  0.00  0.00    +0.164 C 
ENDROOT
BRANCH   1   4
ATOM      2  C   UNL     1       0.059  -4.256  -0.021  0.00  0.00    +0.202 A 
ATOM      3  N   UNL     1       0.070  -5.047   1.067  0.00  0.00    -0.190 NA
ATOM      4  C   UNL     1       0.086  -6.299   0.708  0.00  0.00    +0.248 A 
ATOM      5  O   UNL     1       0.086  -6.357  -0.630  0.00  0.00    -0.336 OA
ATOM      6  N   UNL     1       0.064  -5.015  -1.090  0.00  0.00    -0.056 NA
BRANCH   2  11
ATOM      7  C   UNL     1      -0.018   1.503   0.010  0.00  0.00    +0.044 C 
ATOM      8  C   UNL     1       0.002  -0.004   0.002  0.00  0.00    -0.050 A 
ATOM      9  C   UNL     1       0.006  -0.686  -1.201  0.00  0.00    +0.004 A 
ATOM     10  C   UNL     1       0.024  -2.067  -1.214  0.00  0.00    +0.012 A 
ATOM     11  C   UNL     1       0.040  -2.772  -0.013  0.00  0.00    +0.022 A 
ATOM     12  C   UNL     1       0.036  -2.080   1.196  0.00  0.00    +0.012 A 
ATOM     13  C   UNL     1       0.023  -0.700   1.198  0.00  0.00    +0.004 A 
ENDBRANCH   2  11
ENDBRANCH   1   4
BRANCH   1  14
ATOM     14  N   UNL     1      -0.863  -8.483   1.178  0.00  0.00    -0.304 N 
ATOM     15  C   UNL     1      -1.399  -9.357   2.053  0.00  0.00    +0.214 C 
ATOM     16  O   UNL     1      -1.084  -9.315   3.223  0.00  0.00    -0.276 OA
ATOM     17  H   UNL     1      -1.115  -8.516   0.242  0.00  0.00    +0.149 HD
BRANCH  15  18
ATOM     18  C   UNL     1      -2.391 -10.386   1.576  0.00  0.00    +0.096 C 
BRANCH  18  19
ATOM     19  C   UNL     1      -2.842 -11.246   2.758  0.00  0.00    +0.009 C 
BRANCH  19  20
ATOM     20  C   UNL     1      -3.849 -12.291   2.274  0.00  0.00    -0.001 C 
BRANCH  20  21
ATOM     21  C   UNL     1      -4.300 -13.151   3.457  0.00  0.00    -0.020 C 
BRANCH  21  22
ATOM     22  C   UNL     1      -5.307 -14.196   2.973  0.00  0.00    -0.086 C 
BRANCH  22  23
ATOM     23  N   UNL     1      -5.740 -15.022   4.108  0.00  0.00    +0.378 N 
ATOM     24  H   UNL     1      -6.173 -14.435   4.805  0.00  0.00    -0.090 HD
ATOM     25  H   UNL     1      -6.404 -15.711   3.789  0.00  0.00    -0.090 HD
ATOM     26  H   UNL     1      -4.940 -15.487   4.511  0.00  0.00    -0.090 HD
ENDBRANCH  22  23
ENDBRANCH  21  22
ENDBRANCH  20  21
ENDBRANCH  19  20
ENDBRANCH  18  19
ENDBRANCH  15  18
ENDBRANCH   1  14
BRANCH   1  27
ATOM     27  C   UNL     1       1.503  -8.095   1.663  0.00  0.00    +0.012 C 
ATOM     28  C   UNL     1       1.931  -8.439   0.235  0.00  0.00    +0.009 C 
ATOM     29  C   UNL     1       2.490  -7.093   2.264  0.00  0.00    +0.009 C 
ENDBRANCH   1  27
TORSDOF 10
