REMARK  Name = ZINC17074038
REMARK  5 active torsions:
REMARK  status: ('A' for Active; 'I' for Inactive)
REMARK    1  A    between atoms: C_3  and  N_24
REMARK    2  A    between atoms: C_6  and  N_7
REMARK    3  A    between atoms: N_10  and  C_11
REMARK    4  A    between atoms: C_11  and  C_12
REMARK    5  A    between atoms: C_12  and  C_13
REMARK                            x       y       z     vdW  Elec       q    Type
REMARK                         _______ _______ _______ _____ _____    ______ ____
ROOT
ATOM      1  N   UNL     1      -1.199  -0.722   0.010  0.00  0.00    -0.269 N 
ATOM      2  C   UNL     1      -1.183  -2.065  -0.099  0.00  0.00    +0.304 C 
ATOM      3  O   UNL     1      -0.123  -2.661  -0.113  0.00  0.00    -0.253 OA
ATOM      4  N   UNL     1      -2.341  -2.748  -0.193  0.00  0.00    -0.299 N 
ATOM      5  H   UNL     1      -2.044  -0.253   0.099  0.00  0.00    +0.156 HD
ATOM      6  H   UNL     1      -3.186  -2.272  -0.182  0.00  0.00    +0.150 HD
ENDROOT
BRANCH   1  12
ATOM      7  C   UNL     1       1.072  -0.453  -0.767  0.00  0.00    +0.025 A 
ATOM      8  C   UNL     1       2.256   0.259  -0.780  0.00  0.00    +0.034 A 
ATOM      9  C   UNL     1       2.376   1.417  -0.034  0.00  0.00    +0.126 A 
ATOM     10  C   UNL     1       1.312   1.867   0.726  0.00  0.00    +0.034 A 
ATOM     11  C   UNL     1       0.126   1.160   0.743  0.00  0.00    +0.025 A 
ATOM     12  C   UNL     1       0.002  -0.004  -0.005  0.00  0.00    +0.035 A 
BRANCH   9  13
ATOM     13  N   UNL     1       3.646   2.176  -0.050  0.00  0.00    +0.056 N 
ATOM     14  O   UNL     1       4.577   1.784  -0.714  0.00  0.00    -0.126 OA
ATOM     15  O   UNL     1       3.753   3.189   0.602  0.00  0.00    -0.126 OA
ENDBRANCH   9  13
ENDBRANCH   1  12
BRANCH   4  16
ATOM     16  C   UNL     1      -2.323  -4.208  -0.311  0.00  0.00    +0.110 C 
BRANCH  16  17
ATOM     17  C   UNL     1      -3.758  -4.730  -0.401  0.00  0.00    +0.056 C 
BRANCH  17  18
ATOM     18  C   UNL     1      -3.740  -6.232  -0.523  0.00  0.00    -0.021 A 
ATOM     19  C   UNL     1      -3.783  -6.941  -1.662  0.00  0.00    +0.087 A 
ATOM     20  N   UNL     1      -3.747  -8.280  -1.380  0.00  0.00    -0.360 N 
ATOM     21  H   UNL     1      -3.767  -8.989  -2.041  0.00  0.00    +0.165 HD
ATOM     22  C   UNL     1      -3.679  -8.469  -0.017  0.00  0.00    +0.047 A 
ATOM     23  C   UNL     1      -3.664  -7.195   0.579  0.00  0.00    +0.004 A 
ATOM     24  C   UNL     1      -3.592  -7.075   1.968  0.00  0.00    +0.030 A 
ATOM     25  C   UNL     1      -3.532  -8.210   2.747  0.00  0.00    +0.042 A 
ATOM     26  C   UNL     1      -3.542  -9.467   2.158  0.00  0.00    +0.022 A 
ATOM     27  C   UNL     1      -3.622  -9.601   0.789  0.00  0.00    +0.027 A 
ATOM     28 CL   UNL     1      -3.441  -8.066   4.474  0.00  0.00    -0.084 Cl
ENDBRANCH  17  18
ENDBRANCH  16  17
ENDBRANCH   4  16
TORSDOF 5
