REMARK  Name = ZINC04402237
REMARK  14 active torsions:
REMARK  status: ('A' for Active; 'I' for Inactive)
REMARK    1  A    between atoms: C_1  and  C_2
REMARK    2  A    between atoms: C_2  and  C_23
REMARK    3  A    between atoms: N_3  and  N_4
REMARK    4  A    between atoms: C_5  and  C_7
REMARK    5  A    between atoms: C_7  and  O_8
REMARK    6  A    between atoms: O_8  and  C_9
REMARK    7  A    between atoms: C_12  and  C_15
REMARK    8  A    between atoms: C_15  and  C_16
REMARK    9  A    between atoms: C_15  and  C_17
REMARK   10  A    between atoms: C_15  and  C_18
REMARK   11  A    between atoms: C_18  and  C_19
REMARK   12  A    between atoms: C_19  and  C_20
REMARK   13  A    between atoms: C_19  and  C_21
REMARK   14  A    between atoms: C_19  and  C_22
REMARK                            x       y       z     vdW  Elec       q    Type
REMARK                         _______ _______ _______ _____ _____    ______ ____
ROOT
ATOM      1  O   UNL     1      -3.449   2.311   0.940  0.00  0.00    -0.483 OA
ENDROOT
BRANCH   1   2
ATOM      2  C   UNL     1      -4.595   1.642   0.646  0.00  0.00    +0.121 A 
ATOM      3  C   UNL     1      -4.760   0.330   1.064  0.00  0.00    +0.046 A 
ATOM      4  C   UNL     1      -5.928  -0.346   0.770  0.00  0.00    +0.008 A 
ATOM      5  C   UNL     1      -6.928   0.281   0.048  0.00  0.00    -0.041 A 
ATOM      6  C   UNL     1      -6.763   1.587  -0.374  0.00  0.00    +0.008 A 
ATOM      7  C   UNL     1      -5.599   2.269  -0.077  0.00  0.00    +0.046 A 
BRANCH   5   8
ATOM      8  C   UNL     1      -8.198  -0.461  -0.278  0.00  0.00    -0.009 C 
ATOM      9  C   UNL     1      -9.391   0.279   0.332  0.00  0.00    +0.016 C 
ATOM     10  C   UNL     1      -8.368  -0.538  -1.796  0.00  0.00    +0.016 C 
BRANCH   8  11
ATOM     11  C   UNL     1      -8.126  -1.875   0.300  0.00  0.00    +0.017 C 
BRANCH  11  12
ATOM     12  C   UNL     1      -9.529  -2.483   0.338  0.00  0.00    -0.037 C 
ATOM     13  C   UNL     1     -10.256  -2.170  -0.972  0.00  0.00    +0.010 C 
ATOM     14  C   UNL     1      -9.424  -4.000   0.512  0.00  0.00    +0.010 C 
ATOM     15  C   UNL     1     -10.312  -1.889   1.510  0.00  0.00    +0.010 C 
ENDBRANCH  11  12
ENDBRANCH   8  11
ENDBRANCH   5   8
ENDBRANCH   1   2
BRANCH   1  16
ATOM     16  C   UNL     1      -2.458   1.603   1.688  0.00  0.00    +0.326 C 
BRANCH  16  18
ATOM     17  N   UNL     1      -0.203   2.039   2.605  0.00  0.00    -0.204 N 
ATOM     18  C   UNL     1      -1.267   2.498   1.917  0.00  0.00    +0.270 C 
ATOM     19  O   UNL     1      -1.267   3.630   1.482  0.00  0.00    -0.270 OA
ATOM     20  H   UNL     1      -0.203   1.134   2.953  0.00  0.00    +0.177 HD
BRANCH  17  23
ATOM     21  C   UNL     1       1.934   1.019   4.010  0.00  0.00    +0.068 C 
ATOM     22  C   UNL     1       1.934   2.426   3.470  0.00  0.00    +0.063 C 
ATOM     23  N   UNL     1       0.907   2.869   2.813  0.00  0.00    -0.184 NA
BRANCH  22  24
ATOM     24  C   UNL     1       3.103   3.299   3.689  0.00  0.00    -0.003 A 
ATOM     25  C   UNL     1       4.208   2.828   4.401  0.00  0.00    +0.010 A 
ATOM     26  C   UNL     1       5.298   3.649   4.598  0.00  0.00    +0.001 A 
ATOM     27  C   UNL     1       5.295   4.940   4.101  0.00  0.00    +0.000 A 
ATOM     28  C   UNL     1       4.202   5.415   3.399  0.00  0.00    +0.001 A 
ATOM     29  C   UNL     1       3.107   4.604   3.190  0.00  0.00    +0.010 A 
ENDBRANCH  22  24
ENDBRANCH  17  23
ENDBRANCH  16  18
ENDBRANCH   1  16
TORSDOF 8
