REMARK  Name = ZINC36061457
REMARK  15 active torsions:
REMARK  status: ('A' for Active; 'I' for Inactive)
REMARK    1  A    between atoms: C_1  and  C_2
REMARK    2  A    between atoms: C_3  and  C_32
REMARK    3  A    between atoms: C_4  and  C_24
REMARK    4  A    between atoms: C_7  and  C_12
REMARK    5  A    between atoms: C_13  and  N_15
REMARK    6  A    between atoms: N_15  and  C_16
REMARK    7  A    between atoms: N_15  and  C_17
REMARK    8  A    between atoms: C_17  and  C_18
REMARK    9  A    between atoms: C_29  and  O_30
REMARK   10  A    between atoms: O_30  and  C_31
REMARK   11  A    between atoms: C_32  and  O_34
REMARK   12  A    between atoms: O_34  and  C_35
REMARK   13  A    between atoms: C_35  and  C_36
REMARK   14  A    between atoms: C_35  and  C_37
REMARK   15  A    between atoms: C_35  and  C_38
REMARK                            x       y       z     vdW  Elec       q    Type
REMARK                         _______ _______ _______ _____ _____    ______ ____
ROOT
ATOM      1  C   UNL     1       0.494   1.015  -0.469  0.00  0.00    +0.066 C 
ATOM      2  C   UNL     1       0.330  -0.457  -0.191  0.00  0.00    +0.053 C 
ATOM      3  C   UNL     1      -0.933  -1.019  -0.192  0.00  0.00    +0.083 C 
ATOM      4  C   UNL     1      -1.045  -2.500   0.091  0.00  0.00    +0.153 C 
ATOM      5  N   UNL     1       0.220  -3.238   0.349  0.00  0.00    -0.267 N 
ATOM      6  C   UNL     1       0.355  -4.584   0.626  0.00  0.00    +0.048 C 
ATOM      7  C   UNL     1       1.603  -5.059   0.830  0.00  0.00    +0.072 C 
ATOM      8  S   UNL     1       2.594  -3.593   0.628  0.00  0.00    -0.060 S 
ATOM      9  C   UNL     1       1.366  -2.496   0.303  0.00  0.00    +0.166 C 
ATOM     10  N   UNL     1       1.396  -1.204   0.045  0.00  0.00    -0.230 NA
ENDROOT
BRANCH   4  11
ATOM     11  C   UNL     1      -1.727  -3.147  -1.087  0.00  0.00    +0.020 A 
ATOM     12  C   UNL     1      -3.038  -3.571  -0.981  0.00  0.00    +0.009 A 
ATOM     13  C   UNL     1      -3.663  -4.165  -2.061  0.00  0.00    +0.001 A 
ATOM     14  C   UNL     1      -2.980  -4.336  -3.251  0.00  0.00    +0.004 A 
ATOM     15  C   UNL     1      -1.669  -3.913  -3.363  0.00  0.00    +0.046 A 
ATOM     16  C   UNL     1      -1.041  -3.312  -2.281  0.00  0.00    +0.125 A 
BRANCH  16  17
ATOM     17  O   UNL     1       0.246  -2.891  -2.391  0.00  0.00    -0.495 OA
ATOM     18  C   UNL     1       0.857  -2.996  -3.679  0.00  0.00    +0.277 C 
ENDBRANCH  16  17
ENDBRANCH   4  11
BRANCH   6  19
ATOM     19  C   UNL     1      -0.817  -5.468   0.698  0.00  0.00    +0.091 C 
ATOM     20  C   UNL     1      -0.673  -6.747   1.094  0.00  0.00    +0.241 C 
ATOM     21  O   UNL     1       0.566  -7.254   1.311  0.00  0.00    -0.271 OA
BRANCH  20  22
ATOM     22  N   UNL     1      -1.789  -7.545   1.280  0.00  0.00    -0.297 N 
ATOM     23  C   UNL     1      -3.122  -7.025   0.962  0.00  0.00    +0.132 C 
BRANCH  22  24
ATOM     24  C   UNL     1      -1.638  -8.908   1.795  0.00  0.00    +0.142 C 
BRANCH  24  25
ATOM     25  C   UNL     1      -1.836  -8.906   3.289  0.00  0.00    -0.030 A 
ATOM     26  C   UNL     1      -0.776  -8.610   4.126  0.00  0.00    +0.005 A 
ATOM     27  C   UNL     1      -0.958  -8.608   5.496  0.00  0.00    +0.000 A 
ATOM     28  C   UNL     1      -2.199  -8.901   6.030  0.00  0.00    +0.000 A 
ATOM     29  C   UNL     1      -3.259  -9.196   5.192  0.00  0.00    +0.000 A 
ATOM     30  C   UNL     1      -3.079  -9.194   3.822  0.00  0.00    +0.005 A 
ENDBRANCH  24  25
ENDBRANCH  22  24
ENDBRANCH  20  22
ENDBRANCH   6  19
BRANCH   3  31
ATOM     31  C   UNL     1      -2.070  -0.242  -0.446  0.00  0.00    +0.340 C 
ATOM     32  O   UNL     1      -1.964   0.962  -0.596  0.00  0.00    -0.245 OA
BRANCH  31  33
ATOM     33  O   UNL     1      -3.285  -0.829  -0.523  0.00  0.00    -0.456 OA
BRANCH  33  34
ATOM     34  C   UNL     1      -4.393   0.015  -0.845  0.00  0.00    +0.106 C 
ATOM     35  C   UNL     1      -4.146   0.686  -2.197  0.00  0.00    +0.055 C 
ATOM     36  C   UNL     1      -5.669  -0.826  -0.919  0.00  0.00    +0.055 C 
ATOM     37  C   UNL     1      -4.549   1.086   0.236  0.00  0.00    +0.055 C 
ENDBRANCH  33  34
ENDBRANCH  31  33
ENDBRANCH   3  31
TORSDOF 9
