REMARK  Name = ZINC07177480
REMARK  10 active torsions:
REMARK  status: ('A' for Active; 'I' for Inactive)
REMARK    1  A    between atoms: C_1  and  C_2
REMARK    2  A    between atoms: C_4  and  N_11
REMARK    3  A    between atoms: C_5  and  O_9
REMARK    4  A    between atoms: O_9  and  C_10
REMARK    5  A    between atoms: C_12  and  C_14
REMARK    6  A    between atoms: C_14  and  C_16
REMARK    7  A    between atoms: C_14  and  S_17
REMARK    8  A    between atoms: S_17  and  C_18
REMARK    9  A    between atoms: C_20  and  C_25
REMARK   10  A    between atoms: C_22  and  N_24
REMARK                            x       y       z     vdW  Elec       q    Type
REMARK                         _______ _______ _______ _____ _____    ______ ____
ROOT
ATOM      1  N   UNL     1       0.028  -2.768  -2.427  0.00  0.00    -0.282 N 
ATOM      2  C   UNL     1      -0.089  -2.093  -3.588  0.00  0.00    +0.230 C 
ATOM      3  O   UNL     1      -0.106  -0.880  -3.585  0.00  0.00    -0.274 OA
ATOM      4  H   UNL     1       0.123  -3.733  -2.434  0.00  0.00    +0.155 HD
ENDROOT
BRANCH   1   8
ATOM      5  C   UNL     1      -1.302   1.185   0.178  0.00  0.00    +0.045 C 
ATOM      6  C   UNL     1      -0.624  -0.157   0.083  0.00  0.00    -0.030 A 
ATOM      7  C   UNL     1      -0.610  -0.839  -1.119  0.00  0.00    +0.031 A 
ATOM      8  C   UNL     1       0.014  -2.075  -1.209  0.00  0.00    +0.076 A 
ATOM      9  C   UNL     1       0.626  -2.626  -0.085  0.00  0.00    +0.143 A 
ATOM     10  C   UNL     1       0.608  -1.937   1.117  0.00  0.00    +0.067 A 
ATOM     11  C   UNL     1      -0.012  -0.702   1.198  0.00  0.00    +0.047 A 
ATOM     12 CL   UNL     1      -0.026   0.163   2.703  0.00  0.00    -0.083 Cl
BRANCH   9  13
ATOM     13  O   UNL     1       1.238  -3.837  -0.167  0.00  0.00    -0.493 OA
ATOM     14  C   UNL     1       1.844  -4.339   1.026  0.00  0.00    +0.277 C 
ENDBRANCH   9  13
ENDBRANCH   1   8
BRANCH   2  15
ATOM     15  C   UNL     1      -0.199  -2.845  -4.889  0.00  0.00    +0.137 C 
ATOM     16  C   UNL     1      -1.659  -3.229  -5.134  0.00  0.00    +0.029 C 
BRANCH  15  17
ATOM     17  S   UNL     1       0.386  -1.794  -6.246  0.00  0.00    -0.074 S 
BRANCH  17  18
ATOM     18  C   UNL     1       0.336  -2.851  -7.656  0.00  0.00    +0.191 A 
ATOM     19  N   UNL     1       0.716  -2.376  -8.834  0.00  0.00    -0.227 NA
ATOM     20  C   UNL     1       0.692  -3.139  -9.915  0.00  0.00    +0.044 A 
ATOM     21  C   UNL     1       0.265  -4.449  -9.809  0.00  0.00    +0.066 A 
ATOM     22  C   UNL     1      -0.129  -4.922  -8.556  0.00  0.00    +0.121 A 
ATOM     23  N   UNL     1      -0.075  -4.102  -7.511  0.00  0.00    -0.207 NA
ATOM     24  C   UNL     1       1.126  -2.586 -11.248  0.00  0.00    +0.066 C 
BRANCH  22  25
ATOM     25  N   UNL     1      -0.565  -6.228  -8.402  0.00  0.00    -0.343 N 
ATOM     26  H   UNL     1      -0.598  -6.821  -9.169  0.00  0.00    +0.144 HD
ATOM     27  H   UNL     1      -0.837  -6.549  -7.528  0.00  0.00    +0.144 HD
ENDBRANCH  22  25
ENDBRANCH  17  18
ENDBRANCH  15  17
ENDBRANCH   2  15
TORSDOF 6
