REMARK  Name = ZINC57603415
REMARK  10 active torsions:
REMARK  status: ('A' for Active; 'I' for Inactive)
REMARK    1  A    between atoms: C_1  and  C_2
REMARK    2  A    between atoms: C_4  and  C_13
REMARK    3  A    between atoms: C_6  and  S_9
REMARK    4  A    between atoms: C_7  and  C_8
REMARK    5  A    between atoms: S_9  and  N_12
REMARK    6  A    between atoms: C_13  and  O_15
REMARK    7  A    between atoms: O_15  and  C_16
REMARK    8  A    between atoms: C_16  and  C_17
REMARK    9  A    between atoms: N_19  and  N_20
REMARK   10  A    between atoms: C_21  and  C_23
REMARK                            x       y       z     vdW  Elec       q    Type
REMARK                         _______ _______ _______ _____ _____    ______ ____
ROOT
ATOM      1  C   UNL     1       0.017  -2.920  -4.849  0.00  0.00    +0.329 C 
ENDROOT
BRANCH   1   2
ATOM      2  C   UNL     1      -0.001  -2.000  -6.043  0.00  0.00    +0.267 C 
ATOM      3  O   UNL     1      -0.017  -0.798  -5.882  0.00  0.00    -0.271 OA
ATOM      4  N   UNL     1      -0.001  -2.513  -7.289  0.00  0.00    -0.231 N 
ATOM      5  H   UNL     1       0.012  -3.475  -7.417  0.00  0.00    +0.173 HD
BRANCH   4   6
ATOM      6  N   UNL     1      -0.018  -1.658  -8.399  0.00  0.00    -0.231 N 
ATOM      7  C   UNL     1      -0.017  -2.171  -9.645  0.00  0.00    +0.273 C 
ATOM      8  O   UNL     1      -0.002  -3.373  -9.806  0.00  0.00    -0.270 OA
ATOM      9  H   UNL     1      -0.030  -0.697  -8.270  0.00  0.00    +0.173 HD
BRANCH   7  10
ATOM     10  C   UNL     1      -0.036  -1.252 -10.838  0.00  0.00    +0.297 C 
ATOM     11  C   UNL     1      -1.362  -0.481 -10.877  0.00  0.00    +0.283 C 
ATOM     12  O   UNL     1      -1.352   0.371 -12.028  0.00  0.00    -0.484 OA
ATOM     13  C   UNL     1      -0.941  -0.188 -13.199  0.00  0.00    +0.162 A 
ATOM     14  C   UNL     1      -1.241   0.443 -14.397  0.00  0.00    +0.049 A 
ATOM     15  C   UNL     1      -0.827  -0.111 -15.594  0.00  0.00    +0.004 A 
ATOM     16  C   UNL     1      -0.113  -1.295 -15.600  0.00  0.00    +0.004 A 
ATOM     17  C   UNL     1       0.188  -1.929 -14.410  0.00  0.00    +0.049 A 
ATOM     18  C   UNL     1      -0.225  -1.380 -13.205  0.00  0.00    +0.163 A 
ATOM     19  O   UNL     1       0.072  -2.020 -12.042  0.00  0.00    -0.472 OA
ENDBRANCH   7  10
ENDBRANCH   4   6
ENDBRANCH   1   2
BRANCH   1  20
ATOM     20  O   UNL     1       0.013  -2.143  -3.649  0.00  0.00    -0.452 OA
BRANCH  20  21
ATOM     21  C   UNL     1       0.028  -2.818  -2.484  0.00  0.00    +0.340 C 
ATOM     22  O   UNL     1       0.045  -4.033  -2.486  0.00  0.00    -0.245 OA
BRANCH  21  26
ATOM     23  C   UNL     1      -0.018   1.503   0.010  0.00  0.00    +0.044 C 
ATOM     24  C   UNL     1       0.002  -0.004   0.002  0.00  0.00    -0.045 A 
ATOM     25  C   UNL     1       0.006  -0.686  -1.198  0.00  0.00    +0.018 A 
ATOM     26  C   UNL     1       0.025  -2.082  -1.203  0.00  0.00    +0.061 A 
ATOM     27  C   UNL     1       0.040  -2.779   0.007  0.00  0.00    +0.043 A 
ATOM     28  C   UNL     1       0.036  -2.084   1.199  0.00  0.00    +0.109 A 
ATOM     29  C   UNL     1       0.023  -0.701   1.197  0.00  0.00    -0.021 A 
ATOM     30  C   UNL     1       0.025   0.051   2.503  0.00  0.00    +0.046 C 
BRANCH  28  31
ATOM     31  S   UNL     1       0.055  -2.962   2.727  0.00  0.00    +0.056 S 
ATOM     32  O   UNL     1      -0.974  -2.401   3.530  0.00  0.00    -0.153 OA
ATOM     33  O   UNL     1       0.099  -4.344   2.401  0.00  0.00    -0.153 OA
BRANCH  31  34
ATOM     34  N   UNL     1       1.488  -2.606   3.478  0.00  0.00    -0.204 NA
ATOM     35  H   UNL     1       1.540  -2.602   4.446  0.00  0.00    +0.144 HD
ATOM     36  H   UNL     1       2.275  -2.402   2.949  0.00  0.00    +0.144 HD
ENDBRANCH  31  34
ENDBRANCH  28  31
ENDBRANCH  21  26
ENDBRANCH  20  21
ENDBRANCH   1  20
TORSDOF 8
