REMARK  Name = ZINC39545504
REMARK  3 active torsions:
REMARK  status: ('A' for Active; 'I' for Inactive)
REMARK    1  A    between atoms: C_9  and  C_16
REMARK    2  A    between atoms: N_18  and  C_19
REMARK    3  A    between atoms: C_24  and  O_25
REMARK                            x       y       z     vdW  Elec       q    Type
REMARK                         _______ _______ _______ _____ _____    ______ ____
ROOT
ATOM      1  C   UNL     1      -0.625   0.950   1.139  0.00  0.00    +0.000 A 
ATOM      2  C   UNL     1       0.467   1.797   1.195  0.00  0.00    +0.002 A 
ATOM      3  C   UNL     1       1.738   1.294   1.000  0.00  0.00    +0.023 A 
ATOM      4  C   UNL     1       1.912  -0.059   0.746  0.00  0.00    +0.037 A 
ATOM      5  C   UNL     1       0.818  -0.911   0.681  0.00  0.00    -0.010 A 
ATOM      6  C   UNL     1      -0.452  -0.396   0.885  0.00  0.00    +0.007 A 
ATOM      7  C   UNL     1       0.973  -2.378   0.381  0.00  0.00    +0.124 C 
ATOM      8  N   UNL     1       2.324  -2.843   0.713  0.00  0.00    -0.369 NA
ATOM      9  C   UNL     1       2.568  -4.167   0.116  0.00  0.00    +0.152 C 
ATOM     10  C   UNL     1       3.791  -3.947  -0.795  0.00  0.00    +0.076 C 
ATOM     11  C   UNL     1       4.106  -2.476  -0.641  0.00  0.00    +0.032 C 
ATOM     12  C   UNL     1       3.255  -1.934   0.193  0.00  0.00    +0.085 C 
ATOM     13  N   UNL     1       3.206  -0.575   0.559  0.00  0.00    -0.303 N 
ATOM     14 BR   UNL     1       5.509  -1.562  -1.519  0.00  0.00    -0.052 Br
ATOM     15  H   UNL     1       4.005  -0.035   0.673  0.00  0.00    +0.153 HD
ATOM     16  H   UNL     1       2.429  -2.901   1.715  0.00  0.00    +0.129 HD
ENDROOT
BRANCH   9  17
ATOM     17  C   UNL     1       1.376  -4.609  -0.693  0.00  0.00    +0.265 C 
ATOM     18  O   UNL     1       1.086  -4.023  -1.715  0.00  0.00    -0.271 OA
ATOM     19  N   UNL     1       0.632  -5.654  -0.281  0.00  0.00    -0.110 N 
ATOM     20  O   UNL     1       0.972  -6.338   0.911  0.00  0.00    -0.088 OA
BRANCH  19  21
ATOM     21  C   UNL     1      -0.476  -6.066  -1.034  0.00  0.00    +0.109 A 
ATOM     22  C   UNL     1      -0.309  -6.940  -2.097  0.00  0.00    +0.029 A 
ATOM     23  C   UNL     1      -1.403  -7.345  -2.837  0.00  0.00    +0.002 A 
ATOM     24  C   UNL     1      -2.666  -6.879  -2.521  0.00  0.00    +0.004 A 
ATOM     25  C   UNL     1      -2.841  -6.007  -1.463  0.00  0.00    +0.047 A 
ATOM     26  C   UNL     1      -1.749  -5.601  -0.712  0.00  0.00    +0.141 A 
BRANCH  26  27
ATOM     27  O   UNL     1      -1.920  -4.748   0.333  0.00  0.00    -0.505 OA
ATOM     28  H   UNL     1      -1.855  -3.813   0.092  0.00  0.00    +0.292 HD
ENDBRANCH  26  27
ENDBRANCH  19  21
ENDBRANCH   9  17
TORSDOF 3
