REMARK  Name = ZINC23036133
REMARK  8 active torsions:
REMARK  status: ('A' for Active; 'I' for Inactive)
REMARK    1  A    between atoms: C_1  and  C_2
REMARK    2  A    between atoms: C_2  and  C_4
REMARK    3  A    between atoms: C_2  and  O_10
REMARK    4  A    between atoms: O_10  and  C_11
REMARK    5  A    between atoms: C_11  and  C_13
REMARK    6  A    between atoms: C_16  and  N_22
REMARK    7  A    between atoms: C_17  and  N_19
REMARK    8  A    between atoms: N_22  and  C_23
REMARK                            x       y       z     vdW  Elec       q    Type
REMARK                         _______ _______ _______ _____ _____    ______ ____
ROOT
ATOM      1  C   UNL     1      -3.834   6.997   0.149  0.00  0.00    +0.061 A 
ATOM      2  C   UNL     1      -3.705   5.606   0.205  0.00  0.00    +0.017 A 
ATOM      3  C   UNL     1      -2.465   5.033   0.185  0.00  0.00    +0.026 A 
ATOM      4  C   UNL     1      -1.326   5.830   0.110  0.00  0.00    +0.062 A 
ATOM      5  C   UNL     1      -1.446   7.217   0.059  0.00  0.00    +0.148 A 
ATOM      6  C   UNL     1      -2.692   7.800   0.072  0.00  0.00    +0.049 A 
ENDROOT
BRANCH   5   7
ATOM      7  N   UNL     1      -0.233   8.062  -0.016  0.00  0.00    +0.058 N 
ATOM      8  O   UNL     1      -0.330   9.274   0.058  0.00  0.00    -0.126 OA
ATOM      9  O   UNL     1       0.862   7.546  -0.151  0.00  0.00    -0.126 OA
ENDBRANCH   5   7
BRANCH   1  10
ATOM     10  C   UNL     1      -5.172   7.615   0.169  0.00  0.00    +0.340 C 
ATOM     11  O   UNL     1      -5.283   8.825   0.120  0.00  0.00    -0.245 OA
BRANCH  10  12
ATOM     12  O   UNL     1      -6.272   6.840   0.242  0.00  0.00    -0.449 OA
BRANCH  12  14
ATOM     13  C   UNL     1      -7.956   7.818   1.705  0.00  0.00    +0.062 C 
ATOM     14  C   UNL     1      -7.556   7.517   0.259  0.00  0.00    +0.259 C 
BRANCH  14  15
ATOM     15  C   UNL     1      -8.598   6.634  -0.377  0.00  0.00    +0.261 C 
ATOM     16  O   UNL     1      -8.310   5.507  -0.719  0.00  0.00    -0.271 OA
ATOM     17  N   UNL     1      -9.850   7.096  -0.565  0.00  0.00    -0.237 N 
ATOM     18  C   UNL     1     -10.782   6.306  -1.133  0.00  0.00    +0.303 C 
ATOM     19  O   UNL     1     -10.494   5.176  -1.477  0.00  0.00    -0.253 OA
ATOM     20  N   UNL     1     -12.034   6.768  -1.321  0.00  0.00    -0.313 N 
ATOM     21  H   UNL     1     -10.111   8.118  -0.254  0.00  0.00    +0.159 HD
ATOM     22  H   UNL     1     -12.795   6.123  -1.785  0.00  0.00    +0.146 HD
ATOM     23  H   UNL     1     -12.295   7.790  -1.010  0.00  0.00    +0.146 HD
ENDBRANCH  14  15
ENDBRANCH  12  14
ENDBRANCH  10  12
ENDBRANCH   1  10
BRANCH   4  24
ATOM     24  N   UNL     1      -0.067   5.241   0.091  0.00  0.00    -0.313 N 
ATOM     25  H   UNL     1       0.311   4.780  -0.834  0.00  0.00    +0.152 HD
BRANCH  24  26
ATOM     26  C   UNL     1       0.719   5.235   1.246  0.00  0.00    +0.031 A 
ATOM     27  C   UNL     1       1.939   4.571   1.255  0.00  0.00    +0.023 A 
ATOM     28  C   UNL     1       2.713   4.566   2.399  0.00  0.00    +0.002 A 
ATOM     29  C   UNL     1       2.274   5.222   3.535  0.00  0.00    +0.000 A 
ATOM     30  C   UNL     1       1.058   5.880   3.531  0.00  0.00    +0.002 A 
ATOM     31  C   UNL     1       0.282   5.893   2.389  0.00  0.00    +0.023 A 
ENDBRANCH  24  26
ENDBRANCH   4  24
TORSDOF 7
