REMARK  Name = ZINC49570960
REMARK  9 active torsions:
REMARK  status: ('A' for Active; 'I' for Inactive)
REMARK    1  A    between atoms: C_1  and  C_2
REMARK    2  A    between atoms: C_2  and  C_4
REMARK    3  A    between atoms: C_2  and  N_11
REMARK    4  A    between atoms: N_14  and  C_15
REMARK    5  A    between atoms: C_15  and  C_16
REMARK    6  A    between atoms: C_16  and  C_17
REMARK    7  A    between atoms: C_17  and  C_18
REMARK    8  A    between atoms: C_18  and  C_19
REMARK    9  A    between atoms: C_19  and  C_20
REMARK                            x       y       z     vdW  Elec       q    Type
REMARK                         _______ _______ _______ _____ _____    ______ ____
ROOT
ATOM      1  N   UNL     1       0.688  -0.476  -1.203  0.00  0.00    -0.293 N 
ATOM      2  C   UNL     1       0.006  -0.608  -2.358  0.00  0.00    +0.300 C 
ATOM      3  O   UNL     1      -1.178  -0.335  -2.400  0.00  0.00    -0.253 OA
ATOM      4  N   UNL     1       0.637  -1.043  -3.467  0.00  0.00    -0.299 N 
ATOM      5  H   UNL     1       1.632  -0.695  -1.170  0.00  0.00    +0.151 HD
ATOM      6  H   UNL     1       1.582  -1.261  -3.434  0.00  0.00    +0.150 HD
ENDROOT
BRANCH   1   8
ATOM      7  C   UNL     1      -0.019   1.526   0.010  0.00  0.00    +0.033 C 
ATOM      8  C   UNL     1       0.002  -0.004   0.002  0.00  0.00    +0.102 C 
BRANCH   8   9
ATOM      9  C   UNL     1       0.731  -0.503   1.223  0.00  0.00    -0.026 A 
ATOM     10  C   UNL     1       2.113  -0.514   1.247  0.00  0.00    +0.005 A 
ATOM     11  C   UNL     1       2.782  -0.971   2.366  0.00  0.00    +0.001 A 
ATOM     12  C   UNL     1       2.070  -1.419   3.463  0.00  0.00    +0.015 A 
ATOM     13  C   UNL     1       0.687  -1.409   3.440  0.00  0.00    +0.018 A 
ATOM     14  C   UNL     1       0.018  -0.945   2.321  0.00  0.00    +0.020 A 
ATOM     15 BR   UNL     1      -0.289  -2.021   4.939  0.00  0.00    -0.050 Br
ENDBRANCH   8   9
ENDBRANCH   1   8
BRANCH   4  16
ATOM     16  C   UNL     1      -0.104  -1.186  -4.723  0.00  0.00    +0.106 C 
BRANCH  16  17
ATOM     17  C   UNL     1       0.839  -1.692  -5.817  0.00  0.00    +0.019 C 
BRANCH  17  18
ATOM     18  C   UNL     1       0.065  -1.841  -7.128  0.00  0.00    +0.002 C 
BRANCH  18  19
ATOM     19  C   UNL     1       1.008  -2.347  -8.222  0.00  0.00    +0.011 C 
BRANCH  19  20
ATOM     20  C   UNL     1       0.234  -2.496  -9.533  0.00  0.00    +0.125 C 
BRANCH  20  21
ATOM     21  C   UNL     1       1.163  -2.994 -10.611  0.00  0.00    +0.356 C 
ATOM     22  O   UNL     1       2.335  -3.209 -10.353  0.00  0.00    -0.246 OA
ATOM     23  O   UNL     1       0.742  -3.182 -11.739  0.00  0.00    -0.246 OA
ENDBRANCH  20  21
ENDBRANCH  19  20
ENDBRANCH  18  19
ENDBRANCH  17  18
ENDBRANCH  16  17
ENDBRANCH   4  16
TORSDOF 8
