REMARK  Name = ZINC39998859
REMARK  6 active torsions:
REMARK  status: ('A' for Active; 'I' for Inactive)
REMARK    1  A    between atoms: C_1  and  C_2
REMARK    2  A    between atoms: C_7  and  O_20
REMARK    3  A    between atoms: C_8  and  C_13
REMARK    4  A    between atoms: C_14  and  C_15
REMARK    5  A    between atoms: C_14  and  C_17
REMARK    6  A    between atoms: O_20  and  C_21
REMARK                            x       y       z     vdW  Elec       q    Type
REMARK                         _______ _______ _______ _____ _____    ______ ____
ROOT
ATOM      1  C   UNL     1      -0.133   1.889   0.801  0.00  0.00    +0.045 C 
ATOM      2  C   UNL     1      -0.153   0.393   0.620  0.00  0.00    -0.034 A 
ATOM      3  C   UNL     1      -0.259  -0.155  -0.665  0.00  0.00    +0.008 A 
ATOM      4  C   UNL     1      -0.276  -1.510  -0.819  0.00  0.00    +0.047 A 
ATOM      5  C   UNL     1      -0.186  -2.338   0.313  0.00  0.00    +0.144 A 
ATOM      6  N   UNL     1      -0.204  -3.663   0.151  0.00  0.00    -0.194 NA
ATOM      7  C   UNL     1      -0.122  -4.490   1.179  0.00  0.00    +0.235 A 
ATOM      8  C   UNL     1      -0.014  -3.966   2.490  0.00  0.00    +0.103 A 
ATOM      9  C   UNL     1       0.003  -2.556   2.652  0.00  0.00    +0.269 A 
ATOM     10  O   UNL     1       0.095  -2.060   3.760  0.00  0.00    -0.266 OA
ATOM     11  N   UNL     1      -0.083  -1.774   1.554  0.00  0.00    -0.267 N 
ATOM     12  C   UNL     1      -0.062  -0.419   1.698  0.00  0.00    +0.099 A 
ENDROOT
BRANCH   8  13
ATOM     13  C   UNL     1       0.073  -4.821   3.604  0.00  0.00    +0.042 C 
ATOM     14  C   UNL     1       1.085  -5.768   3.674  0.00  0.00    +0.114 C 
BRANCH  14  15
ATOM     15  C   UNL     1       1.101  -6.746   4.767  0.00  0.00    +0.252 C 
ATOM     16  O   UNL     1       0.225  -6.727   5.612  0.00  0.00    -0.270 OA
ATOM     17  N   UNL     1       2.083  -7.666   4.835  0.00  0.00    -0.325 N 
ATOM     18  H   UNL     1       2.781  -7.681   4.161  0.00  0.00    +0.145 HD
ATOM     19  H   UNL     1       2.093  -8.312   5.558  0.00  0.00    +0.145 HD
ENDBRANCH  14  15
BRANCH  14  20
ATOM     20  C   UNL     1       2.115  -5.791   2.679  0.00  0.00    +0.104 C 
ATOM     21  N   UNL     1       2.932  -5.808   1.889  0.00  0.00    -0.191 NA
ENDBRANCH  14  20
ENDBRANCH   8  13
BRANCH   7  22
ATOM     22  O   UNL     1      -0.143  -5.827   0.979  0.00  0.00    -0.437 OA
BRANCH  22  23
ATOM     23  C   UNL     1      -0.352  -6.280  -0.285  0.00  0.00    +0.131 A 
ATOM     24  C   UNL     1       0.596  -6.048  -1.271  0.00  0.00    +0.049 A 
ATOM     25  C   UNL     1       0.383  -6.509  -2.556  0.00  0.00    +0.042 A 
ATOM     26  C   UNL     1      -0.776  -7.203  -2.859  0.00  0.00    +0.124 A 
ATOM     27  C   UNL     1      -1.723  -7.436  -1.876  0.00  0.00    +0.042 A 
ATOM     28  C   UNL     1      -1.510  -6.980  -0.590  0.00  0.00    +0.049 A 
ATOM     29  F   UNL     1      -0.984  -7.653  -4.116  0.00  0.00    -0.205 F 
ENDBRANCH  22  23
ENDBRANCH   7  22
TORSDOF 5
