REMARK  Name = ZINC36748656
REMARK  8 active torsions:
REMARK  status: ('A' for Active; 'I' for Inactive)
REMARK    1  A    between atoms: C_1  and  O_2
REMARK    2  A    between atoms: O_2  and  C_3
REMARK    3  A    between atoms: C_6  and  C_9
REMARK    4  A    between atoms: C_9  and  C_11
REMARK    5  A    between atoms: C_9  and  N_17
REMARK    6  A    between atoms: C_18  and  C_20
REMARK    7  A    between atoms: C_20  and  C_21
REMARK    8  A    between atoms: C_21  and  N_22
REMARK                            x       y       z     vdW  Elec       q    Type
REMARK                         _______ _______ _______ _____ _____    ______ ____
ROOT
ATOM      1  N   UNL     1      -4.914  -3.794   0.921  0.00  0.00    -0.304 N 
ATOM      2  C   UNL     1      -6.037  -4.275   1.488  0.00  0.00    +0.215 C 
ATOM      3  O   UNL     1      -7.105  -3.744   1.265  0.00  0.00    -0.276 OA
ATOM      4  H   UNL     1      -4.060  -4.219   1.099  0.00  0.00    +0.150 HD
ENDROOT
BRANCH   1   5
ATOM      5  C   UNL     1      -4.981  -2.629   0.035  0.00  0.00    +0.134 C 
BRANCH   5   9
ATOM      6  C   UNL     1      -1.200  -0.637   0.010  0.00  0.00    +0.120 A 
ATOM      7  C   UNL     1      -2.375   0.101   0.019  0.00  0.00    +0.046 A 
ATOM      8  C   UNL     1      -3.596  -0.545   0.027  0.00  0.00    +0.009 A 
ATOM      9  C   UNL     1      -3.648  -1.927   0.026  0.00  0.00    -0.023 A 
ATOM     10  C   UNL     1      -2.479  -2.665   0.017  0.00  0.00    +0.009 A 
ATOM     11  C   UNL     1      -1.255  -2.024   0.003  0.00  0.00    +0.046 A 
BRANCH   6  13
ATOM     12  C   UNL     1      -0.017   1.425   0.010  0.00  0.00    +0.277 C 
ATOM     13  O   UNL     1       0.002  -0.004   0.002  0.00  0.00    -0.495 OA
ENDBRANCH   6  13
ENDBRANCH   5   9
BRANCH   5  14
ATOM     14  C   UNL     1      -5.321  -3.080  -1.362  0.00  0.00    -0.023 A 
ATOM     15  C   UNL     1      -4.760  -4.237  -1.871  0.00  0.00    +0.006 A 
ATOM     16  C   UNL     1      -5.071  -4.650  -3.153  0.00  0.00    +0.000 A 
ATOM     17  C   UNL     1      -5.944  -3.907  -3.926  0.00  0.00    +0.000 A 
ATOM     18  C   UNL     1      -6.506  -2.751  -3.417  0.00  0.00    +0.000 A 
ATOM     19  C   UNL     1      -6.198  -2.340  -2.133  0.00  0.00    +0.006 A 
ENDBRANCH   5  14
ENDBRANCH   1   5
BRANCH   2  20
ATOM     20  C   UNL     1      -5.968  -5.473   2.400  0.00  0.00    +0.115 C 
BRANCH  20  21
ATOM     21  C   UNL     1      -7.372  -5.811   2.906  0.00  0.00    +0.120 C 
BRANCH  21  22
ATOM     22  N   UNL     1      -7.304  -6.976   3.792  0.00  0.00    -0.263 N 
ATOM     23  C   UNL     1      -7.417  -8.378   3.410  0.00  0.00    +0.204 C 
ATOM     24  C   UNL     1      -8.154  -8.858   4.720  0.00  0.00    +0.202 C 
ATOM     25  N   UNL     1      -8.631 -10.116   4.337  0.00  0.00    -0.278 N 
ATOM     26  C   UNL     1      -8.938  -9.989   3.006  0.00  0.00    +0.303 C 
ATOM     27  O   UNL     1      -9.593 -10.800   2.380  0.00  0.00    -0.253 OA
ATOM     28  N   UNL     1      -8.418  -8.828   2.453  0.00  0.00    -0.278 N 
ATOM     29  N   UNL     1      -7.415  -8.192   5.709  0.00  0.00    -0.278 N 
ATOM     30  C   UNL     1      -7.116  -6.972   5.145  0.00  0.00    +0.305 C 
ATOM     31  O   UNL     1      -6.734  -6.005   5.776  0.00  0.00    -0.253 OA
ATOM     32  H   UNL     1      -8.725 -10.906   4.892  0.00  0.00    +0.152 HD
ATOM     33  H   UNL     1      -8.654  -8.405   1.612  0.00  0.00    +0.152 HD
ATOM     34  H   UNL     1      -7.168  -8.517   6.589  0.00  0.00    +0.152 HD
ENDBRANCH  21  22
ENDBRANCH  20  21
ENDBRANCH   2  20
TORSDOF 7
