REMARK  Name = ZINC61363582
REMARK  7 active torsions:
REMARK  status: ('A' for Active; 'I' for Inactive)
REMARK    1  A    between atoms: C_1  and  C_2
REMARK    2  A    between atoms: C_5  and  S_11
REMARK    3  A    between atoms: C_7  and  C_8
REMARK    4  A    between atoms: S_11  and  N_14
REMARK    5  A    between atoms: N_14  and  C_15
REMARK    6  A    between atoms: C_15  and  C_17
REMARK    7  A    between atoms: C_15  and  C_18
REMARK                            x       y       z     vdW  Elec       q    Type
REMARK                         _______ _______ _______ _____ _____    ______ ____
ROOT
ATOM      1  S   UNL     1       0.668  -4.471  -0.133  0.00  0.00    +0.059 S 
ATOM      2  O   UNL     1       0.479  -4.985   1.178  0.00  0.00    -0.153 OA
ATOM      3  O   UNL     1      -0.030  -4.983  -1.260  0.00  0.00    -0.153 OA
ENDROOT
BRANCH   1   8
ATOM      4  C   UNL     1      -0.579   1.439   0.097  0.00  0.00    +0.044 C 
ATOM      5  C   UNL     1      -0.267  -0.035   0.044  0.00  0.00    -0.036 A 
ATOM      6  C   UNL     1      -0.366  -0.720  -1.150  0.00  0.00    +0.006 A 
ATOM      7  C   UNL     1      -0.080  -2.072  -1.201  0.00  0.00    +0.029 A 
ATOM      8  C   UNL     1       0.307  -2.748  -0.056  0.00  0.00    +0.106 A 
ATOM      9  C   UNL     1       0.410  -2.077   1.144  0.00  0.00    +0.044 A 
ATOM     10  C   UNL     1       0.128  -0.709   1.201  0.00  0.00    +0.068 A 
BRANCH  10  11
ATOM     11  C   UNL     1       0.243   0.018   2.480  0.00  0.00    +0.387 C 
ATOM     12  O   UNL     1       0.923   1.031   2.548  0.00  0.00    -0.241 OA
ATOM     13  O   UNL     1      -0.343  -0.393   3.472  0.00  0.00    -0.241 OA
ENDBRANCH  10  11
ENDBRANCH   1   8
BRANCH   1  14
ATOM     14  N   UNL     1       2.283  -4.618  -0.470  0.00  0.00    -0.183 NA
ATOM     15  H   UNL     1       2.570  -5.014  -1.308  0.00  0.00    +0.149 HD
BRANCH  14  16
ATOM     16  C   UNL     1       3.279  -4.150   0.497  0.00  0.00    +0.104 C 
ATOM     17  C   UNL     1       3.729  -5.321   1.373  0.00  0.00    +0.031 C 
BRANCH  16  18
ATOM     18  C   UNL     1       4.468  -3.587  -0.239  0.00  0.00    -0.022 A 
ATOM     19  C   UNL     1       5.101  -2.447   0.219  0.00  0.00    +0.013 A 
ATOM     20  C   UNL     1       6.168  -1.967  -0.466  0.00  0.00    +0.045 A 
ATOM     21  S   UNL     1       6.305  -3.141  -1.804  0.00  0.00    -0.105 S 
ATOM     22  C   UNL     1       4.936  -4.195  -1.357  0.00  0.00    +0.050 A 
ENDBRANCH  16  18
ENDBRANCH  14  16
ENDBRANCH   1  14
TORSDOF 5
