REMARK  Name = ZINC40913622
REMARK  8 active torsions:
REMARK  status: ('A' for Active; 'I' for Inactive)
REMARK    1  A    between atoms: C_1  and  C_2
REMARK    2  A    between atoms: C_5  and  N_11
REMARK    3  A    between atoms: C_6  and  N_8
REMARK    4  A    between atoms: C_12  and  C_14
REMARK    5  A    between atoms: C_14  and  C_16
REMARK    6  A    between atoms: C_14  and  O_17
REMARK    7  A    between atoms: O_17  and  C_18
REMARK    8  A    between atoms: C_22  and  C_29
REMARK                            x       y       z     vdW  Elec       q    Type
REMARK                         _______ _______ _______ _____ _____    ______ ____
ROOT
ATOM      1  C   UNL     1      -0.354  -5.853  -1.656  0.00  0.00    +0.256 C 
ATOM      2  C   UNL     1      -1.591  -6.381  -0.926  0.00  0.00    +0.062 C 
ENDROOT
BRANCH   1   4
ATOM      3  N   UNL     1      -0.028  -3.869  -0.216  0.00  0.00    -0.281 N 
ATOM      4  C   UNL     1      -0.247  -4.364  -1.450  0.00  0.00    +0.258 C 
ATOM      5  O   UNL     1      -0.358  -3.612  -2.395  0.00  0.00    -0.271 OA
ATOM      6  H   UNL     1       0.144  -4.471   0.525  0.00  0.00    +0.155 HD
BRANCH   3  11
ATOM      7  C   UNL     1      -0.116   1.738   0.646  0.00  0.00    +0.044 C 
ATOM      8  C   UNL     1      -0.093   0.249   0.417  0.00  0.00    -0.048 A 
ATOM      9  C   UNL     1      -0.797  -0.298  -0.640  0.00  0.00    +0.005 A 
ATOM     10  C   UNL     1      -0.777  -1.662  -0.853  0.00  0.00    +0.026 A 
ATOM     11  C   UNL     1      -0.050  -2.486  -0.003  0.00  0.00    +0.064 A 
ATOM     12  C   UNL     1       0.656  -1.934   1.057  0.00  0.00    +0.148 A 
ATOM     13  C   UNL     1       0.637  -0.568   1.262  0.00  0.00    +0.038 A 
BRANCH  12  14
ATOM     14  N   UNL     1       1.433  -2.808   1.965  0.00  0.00    +0.058 N 
ATOM     15  O   UNL     1       1.967  -2.340   2.944  0.00  0.00    -0.126 OA
ATOM     16  O   UNL     1       1.533  -3.989   1.728  0.00  0.00    -0.126 OA
ENDBRANCH  12  14
ENDBRANCH   3  11
ENDBRANCH   1   4
BRANCH   1  17
ATOM     17  O   UNL     1      -0.469  -6.134  -3.052  0.00  0.00    -0.480 OA
BRANCH  17  18
ATOM     18  C   UNL     1       0.114  -7.275  -3.501  0.00  0.00    +0.125 A 
ATOM     19  C   UNL     1       0.145  -7.543  -4.869  0.00  0.00    +0.046 A 
ATOM     20  C   UNL     1       0.727  -8.686  -5.336  0.00  0.00    +0.015 A 
ATOM     21  C   UNL     1       1.297  -9.594  -4.436  0.00  0.00    +0.021 A 
ATOM     22  C   UNL     1       1.929 -10.828  -4.909  0.00  0.00    -0.033 A 
ATOM     23  C   UNL     1       2.464 -11.669  -3.986  0.00  0.00    +0.096 A 
ATOM     24  C   UNL     1       2.400 -11.340  -2.616  0.00  0.00    +0.337 A 
ATOM     25  O   UNL     1       2.884 -12.102  -1.799  0.00  0.00    -0.245 OA
ATOM     26  O   UNL     1       1.820 -10.207  -2.190  0.00  0.00    -0.422 OA
ATOM     27  C   UNL     1       1.269  -9.329  -3.054  0.00  0.00    +0.143 A 
ATOM     28  C   UNL     1       0.678  -8.160  -2.597  0.00  0.00    +0.092 A 
ATOM     29  C   UNL     1       1.983 -11.156  -6.378  0.00  0.00    +0.045 C 
ENDBRANCH  17  18
ENDBRANCH   1  17
TORSDOF 5
