REMARK  Name = ZINC40913654
REMARK  9 active torsions:
REMARK  status: ('A' for Active; 'I' for Inactive)
REMARK    1  A    between atoms: C_1  and  C_2
REMARK    2  A    between atoms: C_2  and  C_3
REMARK    3  A    between atoms: C_3  and  C_5
REMARK    4  A    between atoms: C_3  and  N_6
REMARK    5  A    between atoms: C_7  and  C_9
REMARK    6  A    between atoms: C_9  and  C_11
REMARK    7  A    between atoms: C_9  and  O_12
REMARK    8  A    between atoms: O_12  and  C_13
REMARK    9  A    between atoms: C_17  and  C_24
REMARK                            x       y       z     vdW  Elec       q    Type
REMARK                         _______ _______ _______ _____ _____    ______ ____
ROOT
ATOM      1  C   UNL     1      -6.159   1.306   3.272  0.00  0.00    +0.125 A 
ATOM      2  C   UNL     1      -7.545   1.420   3.183  0.00  0.00    +0.046 A 
ATOM      3  C   UNL     1      -8.228   2.235   4.037  0.00  0.00    +0.015 A 
ATOM      4  C   UNL     1      -7.533   2.963   5.010  0.00  0.00    +0.021 A 
ATOM      5  C   UNL     1      -8.239   3.845   5.941  0.00  0.00    -0.033 A 
ATOM      6  C   UNL     1      -7.508   4.524   6.862  0.00  0.00    +0.096 A 
ATOM      7  C   UNL     1      -6.107   4.366   6.901  0.00  0.00    +0.337 A 
ATOM      8  O   UNL     1      -5.463   4.981   7.732  0.00  0.00    -0.245 OA
ATOM      9  O   UNL     1      -5.465   3.555   6.045  0.00  0.00    -0.422 OA
ATOM     10  C   UNL     1      -6.133   2.852   5.105  0.00  0.00    +0.143 A 
ATOM     11  C   UNL     1      -5.455   2.015   4.232  0.00  0.00    +0.092 A 
ATOM     12  C   UNL     1      -9.738   3.997   5.877  0.00  0.00    +0.045 C 
ENDROOT
BRANCH   1  13
ATOM     13  O   UNL     1      -5.494   0.491   2.414  0.00  0.00    -0.480 OA
BRANCH  13  14
ATOM     14  C   UNL     1      -4.066   0.506   2.481  0.00  0.00    +0.255 C 
ATOM     15  C   UNL     1      -3.597  -0.456   3.575  0.00  0.00    +0.062 C 
BRANCH  14  17
ATOM     16  N   UNL     1      -2.165   0.107   0.950  0.00  0.00    -0.310 N 
ATOM     17  C   UNL     1      -3.497   0.073   1.155  0.00  0.00    +0.254 C 
ATOM     18  O   UNL     1      -4.237  -0.306   0.272  0.00  0.00    -0.272 OA
ATOM     19  H   UNL     1      -1.573   0.409   1.656  0.00  0.00    +0.149 HD
BRANCH  16  20
ATOM     20  C   UNL     1      -1.612  -0.314  -0.340  0.00  0.00    +0.070 C 
ATOM     21  C   UNL     1      -1.426  -1.833  -0.344  0.00  0.00    +0.028 C 
BRANCH  20  23
ATOM     22  C   UNL     1      -0.461   1.878  -0.681  0.00  0.00    +0.005 C 
ATOM     23  C   UNL     1      -0.259   0.366  -0.560  0.00  0.00    +0.018 C 
ENDBRANCH  20  23
ENDBRANCH  16  20
ENDBRANCH  14  17
ENDBRANCH  13  14
ENDBRANCH   1  13
TORSDOF 5
