REMARK  Name = ZINC04453542
REMARK  13 active torsions:
REMARK  status: ('A' for Active; 'I' for Inactive)
REMARK    1  A    between atoms: C_1  and  C_2
REMARK    2  A    between atoms: C_2  and  N_3
REMARK    3  A    between atoms: C_10  and  C_22
REMARK    4  A    between atoms: C_12  and  C_18
REMARK    5  A    between atoms: C_12  and  C_20
REMARK    6  A    between atoms: C_13  and  N_17
REMARK    7  A    between atoms: C_14  and  C_15
REMARK    8  A    between atoms: C_24  and  O_32
REMARK    9  A    between atoms: C_25  and  O_30
REMARK   10  A    between atoms: C_26  and  O_28
REMARK   11  A    between atoms: O_28  and  C_29
REMARK   12  A    between atoms: O_30  and  C_31
REMARK   13  A    between atoms: O_32  and  C_33
REMARK                            x       y       z     vdW  Elec       q    Type
REMARK                         _______ _______ _______ _____ _____    ______ ____
ROOT
ATOM      1  N   UNL     1       1.106  -0.161   1.020  0.00  0.00    -0.298 NA
ATOM      2  C   UNL     1       0.297   0.242   2.184  0.00  0.00    +0.112 C 
ATOM      3  C   UNL     1       1.003  -0.254   3.422  0.00  0.00    -0.007 C 
ATOM      4  C   UNL     1       1.688  -1.382   3.384  0.00  0.00    -0.026 C 
ATOM      5  C   UNL     1       1.765  -2.250   2.160  0.00  0.00    +0.044 C 
ATOM      6  C   UNL     1       1.162  -1.622   0.924  0.00  0.00    +0.093 C 
ATOM      7  C   UNL     1       3.227  -2.648   1.950  0.00  0.00    +0.068 C 
ATOM      8  C   UNL     1       3.689  -3.482   3.146  0.00  0.00    +0.188 C 
ATOM      9  C   UNL     1       3.369  -2.813   4.449  0.00  0.00    +0.054 C 
ATOM     10  C   UNL     1       2.432  -1.841   4.583  0.00  0.00    +0.074 C 
ENDROOT
BRANCH   7  11
ATOM     11  C   UNL     1       3.353  -3.459   0.687  0.00  0.00    -0.034 A 
ATOM     12  C   UNL     1       2.435  -4.456   0.413  0.00  0.00    +0.053 A 
ATOM     13  C   UNL     1       2.548  -5.205  -0.748  0.00  0.00    +0.165 A 
ATOM     14  C   UNL     1       3.585  -4.952  -1.638  0.00  0.00    +0.204 A 
ATOM     15  C   UNL     1       4.505  -3.948  -1.360  0.00  0.00    +0.165 A 
ATOM     16  C   UNL     1       4.382  -3.200  -0.199  0.00  0.00    +0.053 A 
BRANCH  15  17
ATOM     17  O   UNL     1       5.522  -3.697  -2.227  0.00  0.00    -0.491 OA
ATOM     18  C   UNL     1       6.430  -2.651  -1.877  0.00  0.00    +0.277 C 
ENDBRANCH  15  17
BRANCH  14  19
ATOM     19  O   UNL     1       3.700  -5.686  -2.779  0.00  0.00    -0.488 OA
ATOM     20  C   UNL     1       3.022  -5.194  -3.937  0.00  0.00    +0.277 C 
ENDBRANCH  14  19
BRANCH  13  21
ATOM     21  O   UNL     1       1.645  -6.187  -1.016  0.00  0.00    -0.491 OA
ATOM     22  C   UNL     1       0.607  -6.392  -0.056  0.00  0.00    +0.277 C 
ENDBRANCH  13  21
ENDBRANCH   7  11
BRANCH   9  23
ATOM     23  N   UNL     1       4.059  -3.204   5.562  0.00  0.00    -0.358 N 
ATOM     24  H   UNL     1       4.735  -3.897   5.495  0.00  0.00    +0.142 HD
ATOM     25  H   UNL     1       3.873  -2.789   6.418  0.00  0.00    +0.142 HD
ENDBRANCH   9  23
BRANCH   1  27
ATOM     26  C   UNL     1       0.762   1.946  -0.181  0.00  0.00    +0.020 C 
ATOM     27  C   UNL     1       0.576   0.427  -0.218  0.00  0.00    +0.081 C 
ENDBRANCH   1  27
BRANCH  10  28
ATOM     28  C   UNL     1       2.164  -1.265   5.867  0.00  0.00    +0.101 C 
ATOM     29  N   UNL     1       1.951  -0.808   6.885  0.00  0.00    -0.191 NA
ENDBRANCH  10  28
BRANCH   8  30
ATOM     30  C   UNL     1       5.144  -3.684   3.055  0.00  0.00    +0.091 C 
ATOM     31  N   UNL     1       6.267  -3.841   2.985  0.00  0.00    -0.194 NA
ENDBRANCH   8  30
BRANCH   8  32
ATOM     32  C   UNL     1       3.021  -4.792   3.103  0.00  0.00    +0.091 C 
ATOM     33  N   UNL     1       2.505  -5.804   3.070  0.00  0.00    -0.194 NA
ENDBRANCH   8  32
TORSDOF 9
