REMARK  Name = ZINC09739145
REMARK  5 active torsions:
REMARK  status: ('A' for Active; 'I' for Inactive)
REMARK    1  A    between atoms: C_1  and  C_2
REMARK    2  A    between atoms: C_5  and  N_9
REMARK    3  A    between atoms: C_7  and  C_8
REMARK    4  A    between atoms: C_12  and  C_24
REMARK    5  A    between atoms: C_14  and  C_16
REMARK                            x       y       z     vdW  Elec       q    Type
REMARK                         _______ _______ _______ _____ _____    ______ ____
ROOT
ATOM      1  N   UNL     1       2.164   4.408   0.005  0.00  0.00    -0.245 N 
ATOM      2  C   UNL     1       1.158   3.458   0.010  0.00  0.00    +0.170 A 
ATOM      3  C   UNL     1      -0.060   4.162   0.025  0.00  0.00    +0.117 A 
ATOM      4  C   UNL     1      -1.251   3.434   0.032  0.00  0.00    +0.154 A 
ATOM      5  N   UNL     1      -1.185   2.102   0.019  0.00  0.00    -0.220 NA
ATOM      6  C   UNL     1      -0.018   1.479   0.010  0.00  0.00    +0.163 A 
ATOM      7  N   UNL     1       1.136   2.137   0.003  0.00  0.00    -0.208 NA
ATOM      8  N   UNL     1       0.255   5.508   0.029  0.00  0.00    -0.303 N 
ATOM      9  H   UNL     1      -0.381   6.240   0.039  0.00  0.00    +0.171 HD
ATOM     10  C   UNL     1       1.597   5.629   0.017  0.00  0.00    +0.333 A 
ATOM     11  O   UNL     1       2.204   6.683   0.017  0.00  0.00    -0.246 OA
ENDROOT
BRANCH   1  16
ATOM     12  C   UNL     1       7.738   3.340  -0.054  0.00  0.00    +0.044 C 
ATOM     13  C   UNL     1       6.258   3.623  -0.038  0.00  0.00    -0.047 A 
ATOM     14  C   UNL     1       5.354   2.576  -0.035  0.00  0.00    +0.005 A 
ATOM     15  C   UNL     1       3.998   2.833  -0.021  0.00  0.00    +0.026 A 
ATOM     16  C   UNL     1       3.541   4.144  -0.009  0.00  0.00    +0.053 A 
ATOM     17  C   UNL     1       4.450   5.193  -0.018  0.00  0.00    +0.030 A 
ATOM     18  C   UNL     1       5.806   4.930  -0.027  0.00  0.00    -0.046 A 
ATOM     19  C   UNL     1       6.793   6.068  -0.031  0.00  0.00    +0.044 C 
ENDBRANCH   1  16
BRANCH   6  20
ATOM     20  C   UNL     1       0.002  -0.004   0.002  0.00  0.00    +0.021 A 
ATOM     21  C   UNL     1       1.217  -0.687  -0.019  0.00  0.00    +0.013 A 
ATOM     22  C   UNL     1       1.232  -2.066  -0.022  0.00  0.00    +0.022 A 
ATOM     23  C   UNL     1       0.041  -2.773  -0.014  0.00  0.00    +0.059 A 
ATOM     24  C   UNL     1      -1.170  -2.100   0.002  0.00  0.00    +0.060 A 
ATOM     25  C   UNL     1      -1.194  -0.719   0.010  0.00  0.00    +0.033 A 
ATOM     26 CL   UNL     1      -2.658  -2.994   0.011  0.00  0.00    -0.082 Cl
ATOM     27 CL   UNL     1       0.066  -4.509  -0.023  0.00  0.00    -0.082 Cl
ENDBRANCH   6  20
BRANCH   4  28
ATOM     28  C   UNL     1      -2.560   4.127   0.049  0.00  0.00    +0.262 C 
ATOM     29  O   UNL     1      -2.605   5.341   0.057  0.00  0.00    -0.269 OA
ATOM     30  N   UNL     1      -3.701   3.410   0.056  0.00  0.00    -0.324 N 
ATOM     31  H   UNL     1      -3.665   2.441   0.050  0.00  0.00    +0.145 HD
ATOM     32  H   UNL     1      -4.559   3.864   0.067  0.00  0.00    +0.145 HD
ENDBRANCH   4  28
TORSDOF 3
