REMARK  Name = ZINC28290028
REMARK  5 active torsions:
REMARK  status: ('A' for Active; 'I' for Inactive)
REMARK    1  A    between atoms: C_1  and  C_2
REMARK    2  A    between atoms: C_8  and  C_14
REMARK    3  A    between atoms: C_12  and  C_13
REMARK    4  A    between atoms: N_16  and  C_17
REMARK    5  A    between atoms: C_26  and  C_29
REMARK                            x       y       z     vdW  Elec       q    Type
REMARK                         _______ _______ _______ _____ _____    ______ ____
ROOT
ATOM      1  C   UNL     1      -2.464   0.974   0.186  0.00  0.00    +0.284 C 
ATOM      2  O   UNL     1      -2.452  -0.233   0.335  0.00  0.00    -0.266 OA
ATOM      3  N   UNL     1      -3.635   1.621   0.028  0.00  0.00    -0.279 N 
ATOM      4  H   UNL     1      -3.654   2.720  -0.019  0.00  0.00    +0.155 HD
ENDROOT
BRANCH   1  12
ATOM      5  C   UNL     1       3.375   6.304  -0.088  0.00  0.00    +0.044 C 
ATOM      6  C   UNL     1       2.148   5.429  -0.059  0.00  0.00    -0.047 A 
ATOM      7  C   UNL     1       2.279   4.069   0.116  0.00  0.00    +0.019 A 
ATOM      8  C   UNL     1       1.140   3.266   0.143  0.00  0.00    +0.064 A 
ATOM      9  C   UNL     1       1.235   1.806   0.327  0.00  0.00    +0.193 A 
ATOM     10  O   UNL     1       2.310   1.248   0.462  0.00  0.00    -0.287 OA
ATOM     11  C   UNL     1      -0.029   1.055   0.340  0.00  0.00    +0.103 A 
ATOM     12  C   UNL     1      -1.192   1.732   0.179  0.00  0.00    +0.194 A 
ATOM     13  O   UNL     1      -1.236   3.063   0.020  0.00  0.00    -0.450 OA
ATOM     14  C   UNL     1      -0.135   3.839  -0.007  0.00  0.00    +0.140 A 
ATOM     15  C   UNL     1      -0.243   5.215  -0.182  0.00  0.00    +0.050 A 
ATOM     16  C   UNL     1       0.891   5.997  -0.207  0.00  0.00    -0.044 A 
ATOM     17  C   UNL     1       0.764   7.487  -0.397  0.00  0.00    +0.044 C 
ENDBRANCH   1  12
BRANCH   3  18
ATOM     18  C   UNL     1      -4.827   0.896  -0.076  0.00  0.00    +0.036 A 
ATOM     19  C   UNL     1      -6.007   1.422   0.434  0.00  0.00    +0.027 A 
ATOM     20  C   UNL     1      -7.187   0.710   0.333  0.00  0.00    +0.049 A 
ATOM     21  C   UNL     1      -7.195  -0.532  -0.278  0.00  0.00    +0.143 A 
ATOM     22  C   UNL     1      -6.012  -1.064  -0.791  0.00  0.00    +0.077 A 
ATOM     23  C   UNL     1      -4.831  -0.348  -0.695  0.00  0.00    +0.050 A 
ATOM     24  N   UNL     1      -6.037  -2.324  -1.406  0.00  0.00    -0.279 N 
ATOM     25  C   UNL     1      -7.226  -2.851  -1.772  0.00  0.00    +0.258 C 
ATOM     26  O   UNL     1      -7.273  -3.952  -2.279  0.00  0.00    -0.271 OA
ATOM     27  C   UNL     1      -8.492  -2.064  -1.549  0.00  0.00    +0.256 C 
ATOM     28  O   UNL     1      -8.350  -1.244  -0.387  0.00  0.00    -0.478 OA
ATOM     29  C   UNL     1      -9.663  -3.030  -1.351  0.00  0.00    +0.062 C 
ATOM     30  H   UNL     1      -5.097  -2.868  -1.583  0.00  0.00    +0.155 HD
ENDBRANCH   3  18
TORSDOF 2
