REMARK  Name = ZINC50830933
REMARK  8 active torsions:
REMARK  status: ('A' for Active; 'I' for Inactive)
REMARK    1  A    between atoms: C_1  and  C_2
REMARK    2  A    between atoms: C_5  and  C_21
REMARK    3  A    between atoms: C_6  and  O_8
REMARK    4  A    between atoms: O_8  and  C_9
REMARK    5  A    between atoms: C_9  and  C_10
REMARK    6  A    between atoms: C_13  and  N_19
REMARK    7  A    between atoms: C_14  and  N_16
REMARK    8  A    between atoms: N_19  and  C_20
REMARK                            x       y       z     vdW  Elec       q    Type
REMARK                         _______ _______ _______ _____ _____    ______ ____
ROOT
ATOM      1  C   UNL     1       0.016  -2.751   4.922  0.00  0.00    -0.008 A 
ATOM      2  C   UNL     1      -1.139  -3.415   5.295  0.00  0.00    +0.009 A 
ATOM      3  C   UNL     1      -1.079  -4.444   6.213  0.00  0.00    +0.025 A 
ATOM      4  C   UNL     1       0.142  -4.814   6.762  0.00  0.00    +0.057 A 
ATOM      5  C   UNL     1       1.300  -4.146   6.384  0.00  0.00    +0.147 A 
ATOM      6  C   UNL     1       1.234  -3.120   5.462  0.00  0.00    +0.041 A 
ENDROOT
BRANCH   5   7
ATOM      7  N   UNL     1       2.604  -4.536   6.967  0.00  0.00    +0.058 N 
ATOM      8  O   UNL     1       2.673  -4.864   8.128  0.00  0.00    -0.126 OA
ATOM      9  O   UNL     1       3.599  -4.528   6.280  0.00  0.00    -0.126 OA
ENDBRANCH   5   7
BRANCH   4  10
ATOM     10  N   UNL     1       0.206  -5.855   7.691  0.00  0.00    -0.345 N 
ATOM     11  C   UNL     1      -1.027  -6.473   8.185  0.00  0.00    +0.125 C 
ATOM     12  H   UNL     1       1.067  -6.169   8.009  0.00  0.00    +0.146 HD
ENDBRANCH   4  10
BRANCH   1  13
ATOM     13  C   UNL     1      -0.053  -1.628   3.919  0.00  0.00    +0.264 C 
BRANCH  13  14
ATOM     14  O   UNL     1       0.102  -2.157   2.601  0.00  0.00    -0.487 OA
BRANCH  14  20
ATOM     15  C   UNL     1      -0.357   2.450   1.055  0.00  0.00    +0.044 C 
ATOM     16  C   UNL     1      -0.158   0.982   0.779  0.00  0.00    -0.047 A 
ATOM     17  C   UNL     1      -0.014   0.537  -0.522  0.00  0.00    +0.004 A 
ATOM     18  C   UNL     1       0.168  -0.809  -0.778  0.00  0.00    +0.007 A 
ATOM     19  C   UNL     1       0.207  -1.714   0.266  0.00  0.00    -0.009 A 
ATOM     20  C   UNL     1       0.064  -1.269   1.572  0.00  0.00    +0.124 A 
ATOM     21  C   UNL     1      -0.113   0.083   1.827  0.00  0.00    +0.049 A 
ATOM     22  C   UNL     1       0.406  -3.181  -0.015  0.00  0.00    +0.047 C 
ENDBRANCH  14  20
ENDBRANCH  13  14
ENDBRANCH   1  13
TORSDOF 5
