REMARK  Name = ZINC53362898
REMARK  7 active torsions:
REMARK  status: ('A' for Active; 'I' for Inactive)
REMARK    1  A    between atoms: C_1  and  C_2
REMARK    2  A    between atoms: C_5  and  C_8
REMARK    3  A    between atoms: C_11  and  C_24
REMARK    4  A    between atoms: C_14  and  C_16
REMARK    5  A    between atoms: C_19  and  O_22
REMARK    6  A    between atoms: O_22  and  C_23
REMARK    7  A    between atoms: C_29  and  O_30
REMARK                            x       y       z     vdW  Elec       q    Type
REMARK                         _______ _______ _______ _____ _____    ______ ____
ROOT
ATOM      1  C   UNL     1       0.059  -4.275  -0.021  0.00  0.00    +0.204 C 
ATOM      2  N   UNL     1      -0.608  -4.774   1.187  0.00  0.00    -0.284 NA
ATOM      3  C   UNL     1      -0.782  -6.235   1.106  0.00  0.00    +0.095 C 
ATOM      4  C   UNL     1      -1.788  -6.536  -0.009  0.00  0.00    +0.079 C 
ATOM      5  C   UNL     1      -1.426  -5.749  -1.238  0.00  0.00    +0.047 C 
ATOM      6  N   UNL     1      -0.617  -4.758  -1.219  0.00  0.00    -0.264 NA
ATOM      7  H   UNL     1      -0.095  -4.516   2.016  0.00  0.00    +0.125 HD
ENDROOT
BRANCH   1  12
ATOM      8  C   UNL     1      -0.018   1.503   0.010  0.00  0.00    +0.044 C 
ATOM      9  C   UNL     1       0.002  -0.004   0.002  0.00  0.00    -0.050 A 
ATOM     10  C   UNL     1       0.006  -0.689  -1.199  0.00  0.00    +0.004 A 
ATOM     11  C   UNL     1       0.025  -2.071  -1.206  0.00  0.00    +0.007 A 
ATOM     12  C   UNL     1       0.040  -2.768  -0.013  0.00  0.00    -0.009 A 
ATOM     13  C   UNL     1       0.037  -2.084   1.188  0.00  0.00    +0.007 A 
ATOM     14  C   UNL     1       0.023  -0.702   1.195  0.00  0.00    +0.004 A 
ENDBRANCH   1  12
BRANCH   3  15
ATOM     15  C   UNL     1      -1.304  -6.758   2.419  0.00  0.00    +0.013 A 
ATOM     16  C   UNL     1      -2.021  -5.928   3.258  0.00  0.00    +0.028 A 
ATOM     17  C   UNL     1      -2.501  -6.408   4.464  0.00  0.00    +0.042 A 
ATOM     18  C   UNL     1      -2.262  -7.721   4.832  0.00  0.00    +0.023 A 
ATOM     19  C   UNL     1      -1.545  -8.554   3.996  0.00  0.00    +0.047 A 
ATOM     20  C   UNL     1      -1.069  -8.076   2.783  0.00  0.00    +0.122 A 
ATOM     21 CL   UNL     1      -3.402  -5.362   5.517  0.00  0.00    -0.084 Cl
BRANCH  20  22
ATOM     22  O   UNL     1      -0.368  -8.896   1.956  0.00  0.00    -0.506 OA
ATOM     23  H   UNL     1       0.586  -8.890   2.113  0.00  0.00    +0.292 HD
ENDBRANCH  20  22
ENDBRANCH   3  15
BRANCH   5  24
ATOM     24  C   UNL     1      -2.032  -6.138  -2.524  0.00  0.00    -0.004 A 
ATOM     25  C   UNL     1      -2.925  -7.212  -2.583  0.00  0.00    +0.013 A 
ATOM     26  C   UNL     1      -3.488  -7.572  -3.787  0.00  0.00    +0.046 A 
ATOM     27  C   UNL     1      -3.170  -6.869  -4.943  0.00  0.00    +0.120 A 
ATOM     28  C   UNL     1      -2.282  -5.801  -4.889  0.00  0.00    +0.046 A 
ATOM     29  C   UNL     1      -1.719  -5.431  -3.688  0.00  0.00    +0.013 A 
BRANCH  27  30
ATOM     30  O   UNL     1      -3.728  -7.228  -6.128  0.00  0.00    -0.495 OA
ATOM     31  C   UNL     1      -3.357  -6.463  -7.276  0.00  0.00    +0.277 C 
ENDBRANCH  27  30
ENDBRANCH   5  24
TORSDOF 5
