REMARK  Name = ZINC20696814
REMARK  8 active torsions:
REMARK  status: ('A' for Active; 'I' for Inactive)
REMARK    1  A    between atoms: C_1  and  C_2
REMARK    2  A    between atoms: C_2  and  N_3
REMARK    3  A    between atoms: N_3  and  C_4
REMARK    4  A    between atoms: N_3  and  C_6
REMARK    5  A    between atoms: C_4  and  C_5
REMARK    6  A    between atoms: C_9  and  C_12
REMARK    7  A    between atoms: C_22  and  N_29
REMARK    8  A    between atoms: C_25  and  C_28
REMARK                            x       y       z     vdW  Elec       q    Type
REMARK                         _______ _______ _______ _____ _____    ______ ____
ROOT
ATOM      1  C   UNL     1       0.412   2.680   2.533  0.00  0.00    +0.105 C 
ATOM      2  C   UNL     1      -0.028   2.070   1.210  0.00  0.00    +0.029 C 
ATOM      3  C   UNL     1       1.076   1.676   0.221  0.00  0.00    +0.033 C 
ATOM      4  C   UNL     1       0.367   1.872  -1.121  0.00  0.00    -0.030 C 
ATOM      5  C   UNL     1      -0.600   2.775  -0.995  0.00  0.00    -0.023 C 
ATOM      6  C   UNL     1      -0.597   3.276   0.400  0.00  0.00    +0.051 C 
ATOM      7  C   UNL     1      -1.828   3.697   1.104  0.00  0.00    +0.011 A 
ATOM      8  C   UNL     1      -2.916   4.203   0.423  0.00  0.00    +0.132 A 
ATOM      9  C   UNL     1      -4.047   4.603   1.108  0.00  0.00    +0.033 A 
ATOM     10  C   UNL     1      -4.087   4.495   2.487  0.00  0.00    +0.007 A 
ATOM     11  C   UNL     1      -3.007   3.986   3.173  0.00  0.00    -0.029 A 
ATOM     12  C   UNL     1      -1.859   3.571   2.495  0.00  0.00    +0.037 A 
ATOM     13  N   UNL     1      -0.822   3.033   3.254  0.00  0.00    -0.336 N 
ATOM     14  C   UNL     1      -3.065   3.875   4.675  0.00  0.00    +0.045 C 
ATOM     15  H   UNL     1      -0.891   2.868   4.339  0.00  0.00    +0.147 HD
ENDROOT
BRANCH   1  19
ATOM     16  C   UNL     1       2.767   6.185   1.875  0.00  0.00    +0.030 A 
ATOM     17  C   UNL     1       3.372   4.935   1.902  0.00  0.00    +0.023 A 
ATOM     18  C   UNL     1       2.608   3.805   2.115  0.00  0.00    +0.007 A 
ATOM     19  C   UNL     1       1.242   3.916   2.301  0.00  0.00    -0.027 A 
ATOM     20  C   UNL     1       0.636   5.159   2.269  0.00  0.00    +0.007 A 
ATOM     21  C   UNL     1       1.395   6.294   2.063  0.00  0.00    +0.023 A 
BRANCH  16  22
ATOM     22  N   UNL     1       3.537   7.331   1.660  0.00  0.00    -0.330 N 
BRANCH  22  24
ATOM     23  C   UNL     1       2.880   9.237   3.044  0.00  0.00    +0.024 C 
ATOM     24  C   UNL     1       2.898   8.649   1.632  0.00  0.00    +0.102 C 
ENDBRANCH  22  24
BRANCH  22  25
ATOM     25  C   UNL     1       4.984   7.214   1.462  0.00  0.00    +0.102 C 
ATOM     26  C   UNL     1       5.283   7.044  -0.029  0.00  0.00    +0.024 C 
ENDBRANCH  22  25
ENDBRANCH  16  22
ENDBRANCH   1  19
BRANCH   8  27
ATOM     27  N   UNL     1      -2.871   4.318  -1.051  0.00  0.00    +0.057 N 
ATOM     28  O   UNL     1      -1.931   4.875  -1.591  0.00  0.00    -0.126 OA
ATOM     29  O   UNL     1      -3.774   3.856  -1.726  0.00  0.00    -0.126 OA
ENDBRANCH   8  27
TORSDOF 5
