REMARK  Name = ZINC41301387
REMARK  8 active torsions:
REMARK  status: ('A' for Active; 'I' for Inactive)
REMARK    1  A    between atoms: C_1  and  C_2
REMARK    2  A    between atoms: C_2  and  C_3
REMARK    3  A    between atoms: C_3  and  C_5
REMARK    4  A    between atoms: C_3  and  N_6
REMARK    5  A    between atoms: C_10  and  N_25
REMARK    6  A    between atoms: C_11  and  N_13
REMARK    7  A    between atoms: N_13  and  C_14
REMARK    8  A    between atoms: C_21  and  C_24
REMARK                            x       y       z     vdW  Elec       q    Type
REMARK                         _______ _______ _______ _____ _____    ______ ____
ROOT
ATOM      1  N   UNL     1      -2.105  -0.148  -1.230  0.00  0.00    -0.311 N 
ATOM      2  C   UNL     1      -3.484  -0.037  -1.266  0.00  0.00    +0.219 A 
ATOM      3  N   UNL     1      -4.179  -0.277  -0.164  0.00  0.00    -0.197 NA
ATOM      4  C   UNL     1      -5.506  -0.179  -0.160  0.00  0.00    +0.154 A 
ATOM      5  C   UNL     1      -6.162   0.181  -1.335  0.00  0.00    +0.205 A 
ATOM      6  C   UNL     1      -5.399   0.426  -2.471  0.00  0.00    +0.163 A 
ATOM      7  N   UNL     1      -4.074   0.313  -2.399  0.00  0.00    -0.197 NA
ATOM      8  N   UNL     1      -6.226  -0.432   0.997  0.00  0.00    -0.341 N 
ATOM      9  H   UNL     1      -1.584   0.029  -2.029  0.00  0.00    +0.149 HD
ATOM     10  H   UNL     1      -5.763  -0.683   1.811  0.00  0.00    +0.144 HD
ATOM     11  H   UNL     1      -7.194  -0.359   0.992  0.00  0.00    +0.144 HD
ENDROOT
BRANCH   5  12
ATOM     12  N   UNL     1      -7.637   0.301  -1.373  0.00  0.00    +0.063 N 
ATOM     13  O   UNL     1      -8.165   1.359  -1.120  0.00  0.00    -0.126 OA
ATOM     14  O   UNL     1      -8.315  -0.660  -1.656  0.00  0.00    -0.126 OA
ENDBRANCH   5  12
BRANCH   1  15
ATOM     15  C   UNL     1      -1.433  -0.534   0.013  0.00  0.00    +0.070 C 
ATOM     16  C   UNL     1      -1.413  -2.059   0.130  0.00  0.00    +0.028 C 
BRANCH  15  18
ATOM     17  C   UNL     1      -0.019   1.526   0.010  0.00  0.00    +0.005 C 
ATOM     18  C   UNL     1       0.002  -0.004   0.002  0.00  0.00    +0.018 C 
ENDBRANCH  15  18
ENDBRANCH   1  15
BRANCH   6  19
ATOM     19  N   UNL     1      -6.009   0.787  -3.665  0.00  0.00    -0.266 N 
ATOM     20  H   UNL     1      -6.974   0.871  -3.709  0.00  0.00    +0.157 HD
BRANCH  19  21
ATOM     21  C   UNL     1      -5.240   1.028  -4.791  0.00  0.00    +0.226 A 
ATOM     22  C   UNL     1      -5.701   1.391  -6.008  0.00  0.00    +0.037 A 
ATOM     23  C   UNL     1      -4.597   1.533  -6.870  0.00  0.00    +0.089 A 
ATOM     24  N   UNL     1      -3.519   1.270  -6.197  0.00  0.00    -0.081 NA
ATOM     25  O   UNL     1      -3.898   0.949  -4.868  0.00  0.00    -0.339 OA
ATOM     26  C   UNL     1      -4.720   1.925  -8.322  0.00  0.00    +0.059 C 
ATOM     27  C   UNL     1      -6.177   1.718  -8.752  0.00  0.00    +0.010 C 
ATOM     28  C   UNL     1      -7.113   2.405  -7.755  0.00  0.00    -0.009 C 
ATOM     29  C   UNL     1      -7.129   1.622  -6.437  0.00  0.00    +0.045 C 
ATOM     30  C   UNL     1      -8.528   2.453  -8.335  0.00  0.00    +0.008 C 
ENDBRANCH  19  21
ENDBRANCH   6  19
TORSDOF 5
