REMARK  Name = ZINC64626563
REMARK  8 active torsions:
REMARK  status: ('A' for Active; 'I' for Inactive)
REMARK    1  A    between atoms: C_4  and  C_7
REMARK    2  A    between atoms: C_7  and  N_8
REMARK    3  A    between atoms: N_8  and  C_9
REMARK    4  A    between atoms: N_13  and  C_34
REMARK    5  A    between atoms: C_15  and  C_18
REMARK    6  A    between atoms: N_20  and  C_21
REMARK    7  A    between atoms: C_21  and  C_22
REMARK    8  A    between atoms: C_22  and  C_23
REMARK                            x       y       z     vdW  Elec       q    Type
REMARK                         _______ _______ _______ _____ _____    ______ ____
ROOT
ATOM      1  C   UNL     1       5.199  -1.941   1.608  0.00  0.00    +0.246 C 
ATOM      2  O   UNL     1       5.992  -2.215   0.551  0.00  0.00    -0.270 OA
ATOM      3  C   UNL     1       5.723  -1.918   2.865  0.00  0.00    +0.079 C 
ATOM      4  C   UNL     1       7.152  -2.345   3.125  0.00  0.00    +0.149 C 
ATOM      5  N   UNL     1       7.656  -2.297   4.502  0.00  0.00    -0.327 N 
ATOM      6  C   UNL     1       6.862  -1.882   5.508  0.00  0.00    +0.087 C 
ATOM      7  C   UNL     1       5.564  -1.488   5.310  0.00  0.00    +0.097 C 
ATOM      8  C   UNL     1       4.955  -1.490   3.970  0.00  0.00    +0.202 C 
ATOM      9  O   UNL     1       3.799  -1.131   3.817  0.00  0.00    -0.287 OA
ENDROOT
BRANCH   7  10
ATOM     10  C   UNL     1       4.766  -1.049   6.460  0.00  0.00    +0.249 C 
ATOM     11  O   UNL     1       5.234  -1.103   7.582  0.00  0.00    -0.270 OA
ATOM     12  N   UNL     1       3.514  -0.586   6.274  0.00  0.00    -0.311 N 
ATOM     13  H   UNL     1       3.166  -0.478   5.375  0.00  0.00    +0.149 HD
BRANCH  12  14
ATOM     14  C   UNL     1       2.679  -0.247   7.429  0.00  0.00    +0.108 C 
BRANCH  14  15
ATOM     15  C   UNL     1       1.316   0.251   6.944  0.00  0.00    +0.065 C 
BRANCH  15  16
ATOM     16  C   UNL     1       0.444   0.606   8.151  0.00  0.00    +0.175 C 
ATOM     17  N   UNL     1       0.209  -0.589   8.971  0.00  0.00    -0.363 N 
ATOM     18  C   UNL     1      -1.075  -0.799   8.997  0.00  0.00    +0.060 A 
ATOM     19  C   UNL     1      -1.907  -1.825   9.641  0.00  0.00    +0.029 A 
ATOM     20  C   UNL     1      -3.245  -1.789   9.488  0.00  0.00    +0.022 A 
ATOM     21  C   UNL     1      -3.896  -0.798   8.728  0.00  0.00    +0.043 A 
ATOM     22  C   UNL     1      -3.226   0.188   8.096  0.00  0.00    +0.047 A 
ATOM     23  C   UNL     1      -1.762   0.249   8.193  0.00  0.00    +0.062 A 
ATOM     24  N   UNL     1      -0.875   1.067   7.701  0.00  0.00    -0.363 N 
ATOM     25 CL   UNL     1      -5.626  -0.848   8.599  0.00  0.00    -0.083 Cl
ATOM     26  H   UNL     1       0.887  -1.125   9.413  0.00  0.00    +0.162 HD
ATOM     27  H   UNL     1      -1.053   1.839   7.141  0.00  0.00    +0.162 HD
ENDBRANCH  15  16
ENDBRANCH  14  15
ENDBRANCH  12  14
ENDBRANCH   7  10
BRANCH   5  28
ATOM     28  C   UNL     1       9.034  -2.704   4.785  0.00  0.00    +0.073 C 
ATOM     29  C   UNL     1       9.447  -2.828   6.253  0.00  0.00    +0.024 C 
ATOM     30  C   UNL     1       9.965  -1.662   5.409  0.00  0.00    +0.024 C 
ENDBRANCH   5  28
BRANCH   1  31
ATOM     31  N   UNL     1       3.867  -1.685   1.418  0.00  0.00    -0.307 N 
ATOM     32  H   UNL     1       3.284  -1.550   2.182  0.00  0.00    +0.149 HD
BRANCH  31  33
ATOM     33  C   UNL     1       3.321  -1.616   0.060  0.00  0.00    +0.139 C 
BRANCH  33  37
ATOM     34  C   UNL     1      -0.866  -0.791   0.245  0.00  0.00    +0.000 A 
ATOM     35  C   UNL     1       0.042   0.250   0.184  0.00  0.00    +0.000 A 
ATOM     36  C   UNL     1       1.397  -0.017   0.124  0.00  0.00    +0.005 A 
ATOM     37  C   UNL     1       1.844  -1.325   0.126  0.00  0.00    -0.030 A 
ATOM     38  C   UNL     1       0.937  -2.366   0.188  0.00  0.00    +0.005 A 
ATOM     39  C   UNL     1      -0.418  -2.099   0.246  0.00  0.00    +0.000 A 
ENDBRANCH  33  37
ENDBRANCH  31  33
ENDBRANCH   1  31
TORSDOF 8
