REMARK  Name = ZINC58391574
REMARK  7 active torsions:
REMARK  status: ('A' for Active; 'I' for Inactive)
REMARK    1  A    between atoms: C_1  and  C_2
REMARK    2  A    between atoms: C_5  and  N_9
REMARK    3  A    between atoms: N_9  and  S_10
REMARK    4  A    between atoms: S_10  and  C_13
REMARK    5  A    between atoms: C_15  and  C_23
REMARK    6  A    between atoms: C_17  and  C_20
REMARK    7  A    between atoms: C_18  and  O_19
REMARK                            x       y       z     vdW  Elec       q    Type
REMARK                         _______ _______ _______ _____ _____    ______ ____
ROOT
ATOM      1  S   UNL     1       0.990  -4.893  -1.265  0.00  0.00    +0.076 S 
ATOM      2  O   UNL     1       0.884  -6.308  -1.188  0.00  0.00    -0.150 OA
ATOM      3  O   UNL     1       0.649  -4.166  -2.437  0.00  0.00    -0.150 OA
ENDROOT
BRANCH   1   4
ATOM      4  C   UNL     1       2.666  -4.493  -0.894  0.00  0.00    +0.151 A 
ATOM      5  C   UNL     1       3.580  -5.501  -0.661  0.00  0.00    +0.036 A 
ATOM      6  C   UNL     1       4.900  -5.198  -0.368  0.00  0.00    -0.048 A 
ATOM      7  C   UNL     1       5.315  -3.886  -0.306  0.00  0.00    +0.022 A 
ATOM      8  C   UNL     1       4.400  -2.854  -0.540  0.00  0.00    +0.107 A 
ATOM      9  C   UNL     1       3.066  -3.166  -0.842  0.00  0.00    +0.158 A 
ATOM     10  C   UNL     1       5.886  -6.309  -0.116  0.00  0.00    +0.044 C 
BRANCH   8  11
ATOM     11  C   UNL     1       4.836  -1.450  -0.475  0.00  0.00    +0.390 C 
ATOM     12  O   UNL     1       6.001  -1.182  -0.216  0.00  0.00    -0.240 OA
ATOM     13  O   UNL     1       4.033  -0.550  -0.681  0.00  0.00    -0.240 OA
ENDBRANCH   8  11
BRANCH   9  14
ATOM     14  O   UNL     1       2.170  -2.175  -1.075  0.00  0.00    -0.504 OA
ATOM     15  H   UNL     1       1.675  -1.899  -0.292  0.00  0.00    +0.292 HD
ENDBRANCH   9  14
ENDBRANCH   1   4
BRANCH   1  16
ATOM     16  N   UNL     1       0.058  -4.281  -0.040  0.00  0.00    -0.215 N 
ATOM     17  H   UNL     1      -0.549  -3.545  -0.214  0.00  0.00    +0.174 HD
BRANCH  16  22
ATOM     18  C   UNL     1       0.417  -6.489   5.172  0.00  0.00    +0.044 C 
ATOM     19  C   UNL     1       0.321  -5.902   3.787  0.00  0.00    -0.049 A 
ATOM     20  C   UNL     1       1.451  -5.820   2.993  0.00  0.00    +0.005 A 
ATOM     21  C   UNL     1       1.367  -5.283   1.723  0.00  0.00    +0.026 A 
ATOM     22  C   UNL     1       0.146  -4.825   1.244  0.00  0.00    +0.062 A 
ATOM     23  C   UNL     1      -0.987  -4.909   2.044  0.00  0.00    +0.040 A 
ATOM     24  C   UNL     1      -0.896  -5.452   3.311  0.00  0.00    +0.020 A 
ATOM     25 BR   UNL     1      -2.651  -4.287   1.397  0.00  0.00    -0.048 Br
ENDBRANCH  16  22
ENDBRANCH   1  16
TORSDOF 5
