REMARK  Name = ZINC11590936
REMARK  8 active torsions:
REMARK  status: ('A' for Active; 'I' for Inactive)
REMARK    1  A    between atoms: C_1  and  C_2
REMARK    2  A    between atoms: C_2  and  C_22
REMARK    3  A    between atoms: N_5  and  C_9
REMARK    4  A    between atoms: C_9  and  C_10
REMARK    5  A    between atoms: C_25  and  O_30
REMARK    6  A    between atoms: C_26  and  O_28
REMARK    7  A    between atoms: O_28  and  C_29
REMARK    8  A    between atoms: O_30  and  C_31
REMARK                            x       y       z     vdW  Elec       q    Type
REMARK                         _______ _______ _______ _____ _____    ______ ____
ROOT
ATOM      1  C   UNL     1      -2.915   4.523  -1.220  0.00  0.00    +0.047 C 
ATOM      2  C   UNL     1      -2.461   4.245   0.214  0.00  0.00    +0.135 C 
ATOM      3  C   UNL     1      -3.464   3.366   0.934  0.00  0.00    +0.251 C 
ATOM      4  O   UNL     1      -3.797   2.239   0.636  0.00  0.00    -0.272 OA
ATOM      5  N   UNL     1      -3.910   4.098   1.974  0.00  0.00    -0.215 N 
ATOM      6  C   UNL     1      -3.334   5.306   2.010  0.00  0.00    +0.310 C 
ATOM      7  O   UNL     1      -3.576   6.144   2.856  0.00  0.00    -0.252 OA
ATOM      8  N   UNL     1      -2.458   5.487   1.006  0.00  0.00    -0.281 N 
ATOM      9  H   UNL     1      -1.928   6.282   0.836  0.00  0.00    +0.152 HD
ENDROOT
BRANCH   2  10
ATOM     10  C   UNL     1      -1.096   3.608   0.222  0.00  0.00    -0.012 A 
ATOM     11  C   UNL     1      -0.976   2.233   0.142  0.00  0.00    +0.010 A 
ATOM     12  C   UNL     1       0.275   1.643   0.154  0.00  0.00    +0.050 A 
ATOM     13  C   UNL     1       1.411   2.431   0.236  0.00  0.00    +0.162 A 
ATOM     14  C   UNL     1       1.291   3.816   0.311  0.00  0.00    +0.162 A 
ATOM     15  C   UNL     1       0.035   4.400   0.304  0.00  0.00    +0.055 A 
BRANCH  14  16
ATOM     16  O   UNL     1       2.404   4.593   0.392  0.00  0.00    -0.491 OA
ATOM     17  C   UNL     1       2.204   6.006   0.466  0.00  0.00    +0.277 C 
ENDBRANCH  14  16
BRANCH  13  18
ATOM     18  O   UNL     1       2.642   1.853   0.243  0.00  0.00    -0.491 OA
ATOM     19  C   UNL     1       2.690   0.427   0.164  0.00  0.00    +0.277 C 
ENDBRANCH  13  18
ENDBRANCH   2  10
BRANCH   5  20
ATOM     20  C   UNL     1      -4.904   3.631   2.944  0.00  0.00    +0.214 C 
BRANCH  20  21
ATOM     21  C   UNL     1      -6.285   3.992   2.462  0.00  0.00    +0.238 C 
ATOM     22  O   UNL     1      -6.428   4.560   1.399  0.00  0.00    -0.274 OA
ATOM     23  N   UNL     1      -7.362   3.685   3.211  0.00  0.00    -0.268 N 
ATOM     24  C   UNL     1      -7.151   3.029   4.498  0.00  0.00    +0.125 C 
ATOM     25  C   UNL     1      -7.986   1.740   4.538  0.00  0.00    +0.094 C 
ATOM     26  S   UNL     1      -9.739   2.218   4.491  0.00  0.00    -0.122 S 
ATOM     27  C   UNL     1      -9.796   3.420   3.201  0.00  0.00    +0.029 A 
ATOM     28  C   UNL     1      -8.629   4.013   2.723  0.00  0.00    +0.050 A 
ATOM     29  C   UNL     1      -8.717   4.960   1.708  0.00  0.00    +0.024 A 
ATOM     30  C   UNL     1      -9.944   5.312   1.183  0.00  0.00    +0.002 A 
ATOM     31  C   UNL     1     -11.100   4.720   1.658  0.00  0.00    +0.001 A 
ATOM     32  C   UNL     1     -11.027   3.777   2.665  0.00  0.00    +0.016 A 
ENDBRANCH  20  21
ENDBRANCH   5  20
TORSDOF 5
