REMARK  Name = ZINC03205610
REMARK  4 active torsions:
REMARK  status: ('A' for Active; 'I' for Inactive)
REMARK    1  A    between atoms: C_1  and  C_2
REMARK    2  A    between atoms: C_5  and  C_9
REMARK    3  A    between atoms: C_9  and  C_11
REMARK    4  A    between atoms: C_9  and  N_14
REMARK                            x       y       z     vdW  Elec       q    Type
REMARK                         _______ _______ _______ _____ _____    ______ ____
ROOT
ATOM      1  C   UNL     1      -2.449   1.120   0.020  0.00  0.00    +0.137 C 
ENDROOT
BRANCH   1   2
ATOM      2  N   UNL     1      -1.191   1.870   0.018  0.00  0.00    -0.290 N 
ATOM      3  C   UNL     1      -0.014   1.212   0.009  0.00  0.00    +0.303 C 
ATOM      4  O   UNL     1       0.002  -0.004   0.002  0.00  0.00    -0.253 OA
ATOM      5  N   UNL     1       1.143   1.901   0.001  0.00  0.00    -0.286 N 
ATOM      6  C   UNL     1       1.090   3.346   0.004  0.00  0.00    +0.109 C 
ATOM      7  C   UNL     1       1.038   3.872  -1.446  0.00  0.00    +0.019 C 
ATOM      8  C   UNL     1       2.338   3.678  -2.106  0.00  0.00    +0.002 C 
ATOM      9  C   UNL     1       2.760   2.219  -2.247  0.00  0.00    +0.002 C 
ATOM     10  C   UNL     1       3.442   1.771  -0.978  0.00  0.00    +0.019 C 
ATOM     11  C   UNL     1       2.414   1.151  -0.015  0.00  0.00    +0.109 C 
ATOM     12  H   UNL     1      -1.204   2.840   0.023  0.00  0.00    +0.151 HD
ENDBRANCH   1   2
BRANCH   1  17
ATOM     13  C   UNL     1      -6.645   4.386  -2.248  0.00  0.00    +0.047 C 
ATOM     14  C   UNL     1      -5.551   3.535  -1.657  0.00  0.00    -0.015 A 
ATOM     15  C   UNL     1      -5.485   2.187  -1.956  0.00  0.00    +0.006 A 
ATOM     16  C   UNL     1      -4.481   1.406  -1.413  0.00  0.00    +0.006 A 
ATOM     17  C   UNL     1      -3.543   1.972  -0.571  0.00  0.00    -0.022 A 
ATOM     18  C   UNL     1      -3.610   3.318  -0.266  0.00  0.00    +0.044 A 
ATOM     19  C   UNL     1      -4.611   4.103  -0.813  0.00  0.00    +0.127 A 
ATOM     20  F   UNL     1      -4.675   5.420  -0.520  0.00  0.00    -0.205 F 
ENDBRANCH   1  17
BRANCH   1  21
ATOM     21  C   UNL     1      -2.816   0.743   1.456  0.00  0.00    +0.196 C 
ATOM     22 CL   UNL     1      -1.508  -0.277   2.163  0.00  0.00    -0.102 Cl
ATOM     23 CL   UNL     1      -3.008   2.242   2.441  0.00  0.00    -0.102 Cl
ENDBRANCH   1  21
TORSDOF 3
