REMARK  Name = ZINC39977788
REMARK  5 active torsions:
REMARK  status: ('A' for Active; 'I' for Inactive)
REMARK    1  A    between atoms: C_6  and  O_7
REMARK    2  A    between atoms: O_7  and  C_8
REMARK    3  A    between atoms: C_8  and  C_9
REMARK    4  A    between atoms: C_11  and  C_14
REMARK    5  A    between atoms: C_24  and  O_27
REMARK                            x       y       z     vdW  Elec       q    Type
REMARK                         _______ _______ _______ _____ _____    ______ ____
ROOT
ATOM      1  C   UNL     1      -2.565   0.278   0.040  0.00  0.00    +0.308 C 
ENDROOT
BRANCH   1   2
ATOM      2  C   UNL     1      -3.629  -0.788   0.027  0.00  0.00    +0.209 A 
ATOM      3  N   UNL     1      -4.296  -1.202  -1.052  0.00  0.00    -0.184 NA
ATOM      4  C   UNL     1      -5.150  -2.139  -0.721  0.00  0.00    +0.314 A 
ATOM      5  O   UNL     1      -5.046  -2.350   0.603  0.00  0.00    -0.328 OA
ATOM      6  N   UNL     1      -4.042  -1.458   1.066  0.00  0.00    -0.057 NA
BRANCH   4   7
ATOM      7  C   UNL     1      -6.071  -2.844  -1.644  0.00  0.00    +0.304 C 
ATOM      8  O   UNL     1      -5.997  -2.650  -2.841  0.00  0.00    -0.265 OA
ATOM      9  N   UNL     1      -6.990  -3.701  -1.156  0.00  0.00    -0.294 N 
ATOM     10  C   UNL     1      -7.139  -3.814   0.278  0.00  0.00    +0.108 C 
ATOM     11  C   UNL     1      -6.179  -4.904   0.815  0.00  0.00    +0.019 C 
ATOM     12  C   UNL     1      -6.645  -6.239   0.413  0.00  0.00    +0.002 C 
ATOM     13  C   UNL     1      -6.670  -6.469  -1.095  0.00  0.00    +0.002 C 
ATOM     14  C   UNL     1      -7.969  -5.948  -1.659  0.00  0.00    +0.019 C 
ATOM     15  C   UNL     1      -7.806  -4.481  -2.107  0.00  0.00    +0.108 C 
ENDBRANCH   4   7
ENDBRANCH   1   2
BRANCH   1  16
ATOM     16  O   UNL     1      -1.287  -0.321  -0.185  0.00  0.00    -0.484 OA
BRANCH  16  22
ATOM     17  C   UNL     1      -0.384   1.872  -0.007  0.00  0.00    +0.046 A 
ATOM     18  C   UNL     1       0.708   2.721  -0.029  0.00  0.00    +0.009 A 
ATOM     19  C   UNL     1       1.972   2.216  -0.243  0.00  0.00    -0.021 A 
ATOM     20  C   UNL     1       2.158   0.846  -0.431  0.00  0.00    +0.074 A 
ATOM     21  C   UNL     1       1.057  -0.008  -0.415  0.00  0.00    +0.073 A 
ATOM     22  C   UNL     1      -0.211   0.508  -0.203  0.00  0.00    +0.123 A 
ATOM     23  N   UNL     1       3.418   0.343  -0.616  0.00  0.00    -0.217 NA
ATOM     24  C   UNL     1       4.474   1.026  -0.317  0.00  0.00    +0.188 C 
ATOM     25  C   UNL     1       4.382   2.402   0.284  0.00  0.00    +0.100 C 
ATOM     26  C   UNL     1       3.166   3.138  -0.283  0.00  0.00    +0.046 C 
BRANCH  24  27
ATOM     27  O   UNL     1       5.690   0.490  -0.549  0.00  0.00    -0.495 OA
ATOM     28  H   UNL     1       5.663  -0.396  -0.935  0.00  0.00    +0.293 HD
ENDBRANCH  24  27
ENDBRANCH  16  22
ENDBRANCH   1  16
TORSDOF 5
