REMARK  Name = ZINC24228190
REMARK  12 active torsions:
REMARK  status: ('A' for Active; 'I' for Inactive)
REMARK    1  A    between atoms: C_1  and  C_2
REMARK    2  A    between atoms: C_2  and  C_4
REMARK    3  A    between atoms: C_2  and  N_35
REMARK    4  A    between atoms: C_7  and  S_16
REMARK    5  A    between atoms: N_8  and  C_9
REMARK    6  A    between atoms: S_16  and  C_17
REMARK    7  A    between atoms: C_17  and  C_19
REMARK    8  A    between atoms: C_17  and  C_20
REMARK    9  A    between atoms: C_32  and  C_33
REMARK   10  A    between atoms: C_32  and  C_34
REMARK   11  A    between atoms: N_35  and  C_36
REMARK   12  A    between atoms: N_35  and  C_37
REMARK                            x       y       z     vdW  Elec       q    Type
REMARK                         _______ _______ _______ _____ _____    ______ ____
ROOT
ATOM      1  S   UNL     1      -6.040   4.067  -1.232  0.00  0.00    -0.073 S 
ENDROOT
BRANCH   1   5
ATOM      2  C   UNL     1      -3.930   1.272   0.492  0.00  0.00    +0.125 A 
ATOM      3  N   UNL     1      -3.460   1.274  -0.724  0.00  0.00    -0.135 NA
ATOM      4  N   UNL     1      -4.066   2.159  -1.431  0.00  0.00    -0.122 NA
ATOM      5  C   UNL     1      -4.964   2.778  -0.700  0.00  0.00    +0.197 A 
ATOM      6  N   UNL     1      -4.910   2.227   0.550  0.00  0.00    -0.275 N 
BRANCH   6   7
ATOM      7  C   UNL     1      -5.694   2.570   1.663  0.00  0.00    +0.050 A 
ATOM      8  C   UNL     1      -6.585   1.649   2.195  0.00  0.00    +0.029 A 
ATOM      9  C   UNL     1      -7.352   1.987   3.293  0.00  0.00    +0.040 A 
ATOM     10  C   UNL     1      -7.240   3.247   3.856  0.00  0.00    +0.124 A 
ATOM     11  C   UNL     1      -6.355   4.169   3.323  0.00  0.00    +0.040 A 
ATOM     12  C   UNL     1      -5.582   3.833   2.228  0.00  0.00    +0.029 A 
ATOM     13  F   UNL     1      -7.994   3.578   4.927  0.00  0.00    -0.205 F 
ENDBRANCH   6   7
BRANCH   2  15
ATOM     14  C   UNL     1      -2.129   0.865   2.147  0.00  0.00    -0.005 C 
ATOM     15  C   UNL     1      -3.482   0.381   1.621  0.00  0.00    -0.003 C 
BRANCH  15  16
ATOM     16  N   UNL     1      -3.353  -0.999   1.135  0.00  0.00    +0.382 N 
ATOM     17  C   UNL     1      -2.268  -1.111   0.150  0.00  0.00    -0.096 C 
ATOM     18  C   UNL     1      -3.150  -1.934   2.250  0.00  0.00    -0.096 C 
ATOM     19  H   UNL     1      -4.294  -1.270   0.633  0.00  0.00    -0.082 HD
ENDBRANCH  15  16
ENDBRANCH   2  15
ENDBRANCH   1   5
BRANCH   1  20
ATOM     20  C   UNL     1      -5.520   4.219  -2.959  0.00  0.00    +0.137 C 
ATOM     21  C   UNL     1      -4.071   4.707  -3.014  0.00  0.00    +0.029 C 
BRANCH  20  22
ATOM     22  C   UNL     1      -6.410   5.208  -3.667  0.00  0.00    +0.234 C 
ATOM     23  O   UNL     1      -6.758   6.224  -3.102  0.00  0.00    -0.274 OA
ATOM     24  N   UNL     1      -6.821   4.963  -4.927  0.00  0.00    -0.255 N 
ATOM     25  C   UNL     1      -6.413   3.807  -5.610  0.00  0.00    +0.059 A 
ATOM     26  C   UNL     1      -5.194   3.211  -5.341  0.00  0.00    +0.025 A 
ATOM     27  C   UNL     1      -4.818   2.075  -6.035  0.00  0.00    +0.002 A 
ATOM     28  C   UNL     1      -5.656   1.536  -6.994  0.00  0.00    +0.002 A 
ATOM     29  C   UNL     1      -6.887   2.124  -7.264  0.00  0.00    +0.025 A 
ATOM     30  C   UNL     1      -7.268   3.264  -6.574  0.00  0.00    +0.055 A 
ATOM     31  N   UNL     1      -8.498   3.879  -6.833  0.00  0.00    -0.282 N 
ATOM     32  C   UNL     1      -8.754   5.121  -6.382  0.00  0.00    +0.241 C 
ATOM     33  O   UNL     1      -9.843   5.618  -6.581  0.00  0.00    -0.273 OA
ATOM     34  C   UNL     1      -7.705   5.903  -5.633  0.00  0.00    +0.113 C 
ATOM     35  C   UNL     1      -8.382   6.828  -4.620  0.00  0.00    +0.042 C 
ATOM     36  C   UNL     1      -6.885   6.735  -6.620  0.00  0.00    +0.042 C 
ATOM     37  H   UNL     1      -9.268   3.347  -7.410  0.00  0.00    +0.155 HD
ENDBRANCH  20  22
ENDBRANCH   1  20
TORSDOF 6
