REMARK  Name = ZINC15956657
REMARK  5 active torsions:
REMARK  status: ('A' for Active; 'I' for Inactive)
REMARK    1  A    between atoms: C_5  and  C_7
REMARK    2  A    between atoms: C_7  and  N_8
REMARK    3  A    between atoms: C_13  and  C_30
REMARK    4  A    between atoms: C_30  and  C_31
REMARK    5  A    between atoms: C_31  and  C_32
REMARK                            x       y       z     vdW  Elec       q    Type
REMARK                         _______ _______ _______ _____ _____    ______ ____
ROOT
ATOM      1  N   UNL     1       1.606  -2.677   1.306  0.00  0.00    -0.237 N 
ATOM      2  C   UNL     1       2.880  -2.805   1.694  0.00  0.00    +0.227 C 
ATOM      3  O   UNL     1       3.849  -2.538   1.017  0.00  0.00    -0.275 OA
ATOM      4  C   UNL     1       2.922  -3.336   3.110  0.00  0.00    +0.107 C 
ATOM      5  C   UNL     1       3.491  -4.771   3.095  0.00  0.00    +0.068 C 
ATOM      6  N   UNL     1       2.577  -5.552   3.970  0.00  0.00    -0.295 NA
ATOM      7  C   UNL     1       1.238  -5.016   3.663  0.00  0.00    +0.136 C 
ATOM      8  C   UNL     1       1.421  -3.489   3.480  0.00  0.00    +0.122 C 
ATOM      9  C   UNL     1       0.705  -3.028   2.231  0.00  0.00    +0.229 C 
ATOM     10  O   UNL     1      -0.498  -2.986   2.088  0.00  0.00    -0.275 OA
ATOM     11  C   UNL     1       0.259  -5.322   4.762  0.00  0.00    +0.003 A 
ATOM     12  C   UNL     1       0.215  -5.016   6.104  0.00  0.00    +0.008 A 
ATOM     13  C   UNL     1      -0.846  -5.451   6.878  0.00  0.00    +0.000 A 
ATOM     14  C   UNL     1      -1.861  -6.192   6.301  0.00  0.00    +0.002 A 
ATOM     15  C   UNL     1      -1.822  -6.499   4.957  0.00  0.00    +0.023 A 
ATOM     16  C   UNL     1      -0.757  -6.065   4.170  0.00  0.00    +0.039 A 
ATOM     17  N   UNL     1      -0.495  -6.244   2.810  0.00  0.00    -0.283 N 
ATOM     18  C   UNL     1       0.658  -5.659   2.433  0.00  0.00    +0.243 C 
ATOM     19  O   UNL     1       1.136  -5.652   1.319  0.00  0.00    -0.273 OA
ATOM     20  H   UNL     1       2.630  -6.537   3.759  0.00  0.00    +0.123 HD
ATOM     21  H   UNL     1      -1.077  -6.733   2.206  0.00  0.00    +0.155 HD
ENDROOT
BRANCH   1  22
ATOM     22  C   UNL     1       1.229  -2.186  -0.022  0.00  0.00    +0.153 C 
BRANCH  22  27
ATOM     23  C   UNL     1      -0.656   1.071   0.286  0.00  0.00    +0.000 A 
ATOM     24  C   UNL     1       0.370   1.994   0.196  0.00  0.00    +0.001 A 
ATOM     25  C   UNL     1       1.673   1.565   0.035  0.00  0.00    +0.020 A 
ATOM     26  C   UNL     1       1.952   0.211  -0.036  0.00  0.00    +0.046 A 
ATOM     27  C   UNL     1       0.926  -0.712   0.055  0.00  0.00    -0.011 A 
ATOM     28  C   UNL     1      -0.378  -0.281   0.216  0.00  0.00    +0.006 A 
ATOM     29 CL   UNL     1       3.590  -0.329  -0.238  0.00  0.00    -0.083 Cl
ENDBRANCH  22  27
ENDBRANCH   1  22
BRANCH   5  30
ATOM     30  C   UNL     1       4.913  -4.786   3.659  0.00  0.00    +0.028 C 
BRANCH  30  31
ATOM     31  C   UNL     1       5.502  -6.191   3.520  0.00  0.00    +0.097 C 
BRANCH  31  32
ATOM     32  C   UNL     1       6.903  -6.206   4.075  0.00  0.00    +0.211 C 
ATOM     33  O   UNL     1       7.383  -5.192   4.536  0.00  0.00    -0.276 OA
ATOM     34  N   UNL     1       7.622  -7.345   4.059  0.00  0.00    -0.329 N 
ATOM     35  H   UNL     1       7.239  -8.156   3.690  0.00  0.00    +0.145 HD
ATOM     36  H   UNL     1       8.524  -7.355   4.416  0.00  0.00    +0.145 HD
ENDBRANCH  31  32
ENDBRANCH  30  31
ENDBRANCH   5  30
TORSDOF 5
