REMARK  Name = ZINC41681032
REMARK  7 active torsions:
REMARK  status: ('A' for Active; 'I' for Inactive)
REMARK    1  A    between atoms: C_1  and  C_2
REMARK    2  A    between atoms: N_5  and  S_11
REMARK    3  A    between atoms: C_7  and  C_9
REMARK    4  A    between atoms: C_7  and  C_10
REMARK    5  A    between atoms: S_11  and  C_14
REMARK    6  A    between atoms: C_18  and  C_20
REMARK    7  A    between atoms: C_20  and  N_22
REMARK                            x       y       z     vdW  Elec       q    Type
REMARK                         _______ _______ _______ _____ _____    ______ ____
ROOT
ATOM      1  S   UNL     1       0.437  -2.962  -2.386  0.00  0.00    +0.061 S 
ATOM      2  O   UNL     1       0.198  -4.236  -1.805  0.00  0.00    -0.153 OA
ATOM      3  O   UNL     1      -0.554  -2.266  -3.130  0.00  0.00    -0.153 OA
ENDROOT
BRANCH   1   7
ATOM      4  C   UNL     1      -0.019   1.526   0.010  0.00  0.00    +0.039 C 
ATOM      5  C   UNL     1       0.002  -0.004   0.002  0.00  0.00    +0.132 C 
ATOM      6  C   UNL     1       0.722  -0.499  -1.258  0.00  0.00    +0.140 C 
ATOM      7  N   UNL     1       0.894  -1.957  -1.151  0.00  0.00    -0.171 NA
ATOM      8  C   UNL     1       1.483  -2.495   0.085  0.00  0.00    +0.144 C 
ATOM      9  C   UNL     1       0.726  -1.903   1.280  0.00  0.00    +0.079 C 
ATOM     10  O   UNL     1       0.695  -0.479   1.159  0.00  0.00    -0.368 OA
ATOM     11  C   UNL     1      -0.705  -2.444   1.298  0.00  0.00    +0.042 C 
ATOM     12  C   UNL     1       1.437  -2.290   2.578  0.00  0.00    +0.042 C 
ENDBRANCH   1   7
BRANCH   1  13
ATOM     13  C   UNL     1       1.829  -3.146  -3.449  0.00  0.00    +0.106 A 
ATOM     14  C   UNL     1       2.016  -2.266  -4.501  0.00  0.00    +0.028 A 
ATOM     15  C   UNL     1       3.106  -2.404  -5.341  0.00  0.00    +0.003 A 
ATOM     16  C   UNL     1       4.016  -3.421  -5.136  0.00  0.00    +0.010 A 
ATOM     17  C   UNL     1       3.834  -4.312  -4.077  0.00  0.00    +0.005 A 
ATOM     18  C   UNL     1       2.734  -4.164  -3.229  0.00  0.00    +0.038 A 
BRANCH  17  19
ATOM     19  C   UNL     1       4.802  -5.403  -3.851  0.00  0.00    +0.077 C 
ATOM     20  S   UNL     1       5.173  -5.902  -2.256  0.00  0.00    -0.035 S 
BRANCH  19  21
ATOM     21  N   UNL     1       5.395  -6.006  -4.901  0.00  0.00    -0.352 N 
ATOM     22  H   UNL     1       5.184  -5.723  -5.804  0.00  0.00    +0.143 HD
ATOM     23  H   UNL     1       6.031  -6.723  -4.752  0.00  0.00    +0.143 HD
ENDBRANCH  19  21
ENDBRANCH  17  19
ENDBRANCH   1  13
TORSDOF 4
