REMARK  Name = ZINC33775845
REMARK  8 active torsions:
REMARK  status: ('A' for Active; 'I' for Inactive)
REMARK    1  A    between atoms: C_1  and  C_2
REMARK    2  A    between atoms: C_2  and  O_3
REMARK    3  A    between atoms: O_3  and  C_4
REMARK    4  A    between atoms: C_4  and  C_6
REMARK    5  A    between atoms: C_6  and  C_28
REMARK    6  A    between atoms: C_7  and  C_21
REMARK    7  A    between atoms: C_16  and  C_19
REMARK    8  A    between atoms: C_17  and  N_18
REMARK                            x       y       z     vdW  Elec       q    Type
REMARK                         _______ _______ _______ _____ _____    ______ ____
ROOT
ATOM      1  C   UNL     1       1.292   1.857  -0.137  0.00  0.00    +0.199 C 
ATOM      2  C   UNL     1       2.225   1.400   0.984  0.00  0.00    +0.064 C 
ATOM      3  C   UNL     1       1.462   1.439   2.309  0.00  0.00    +0.030 C 
ATOM      4  C   UNL     1       2.374   1.256   3.498  0.00  0.00    +0.009 C 
ATOM      5  C   UNL     1       2.326  -0.171   4.042  0.00  0.00    +0.005 C 
ATOM      6  C   UNL     1       0.876  -0.490   4.434  0.00  0.00    +0.027 C 
ATOM      7  C   UNL     1       0.036  -0.402   3.186  0.00  0.00    -0.022 C 
ATOM      8  C   UNL     1       0.331   0.458   2.230  0.00  0.00    -0.029 C 
ATOM      9  C   UNL     1      -0.487   0.476   0.988  0.00  0.00    +0.073 C 
ATOM     10  C   UNL     1      -0.015   1.124  -0.106  0.00  0.00    +0.051 C 
ENDROOT
BRANCH   2  11
ATOM     11  C   UNL     1       3.416   2.320   1.057  0.00  0.00    -0.023 A 
ATOM     12  C   UNL     1       4.491   2.128   0.210  0.00  0.00    +0.005 A 
ATOM     13  C   UNL     1       5.584   2.972   0.277  0.00  0.00    +0.000 A 
ATOM     14  C   UNL     1       5.602   4.009   1.191  0.00  0.00    +0.001 A 
ATOM     15  C   UNL     1       4.528   4.202   2.039  0.00  0.00    +0.020 A 
ATOM     16  C   UNL     1       3.432   3.360   1.969  0.00  0.00    +0.044 A 
ATOM     17 CL   UNL     1       2.079   3.606   3.029  0.00  0.00    -0.083 Cl
ENDBRANCH   2  11
BRANCH  10  18
ATOM     18  N   UNL     1      -0.773   1.107  -1.243  0.00  0.00    -0.359 N 
ATOM     19  H   UNL     1      -1.737   0.578  -1.254  0.00  0.00    +0.142 HD
ATOM     20  H   UNL     1      -0.419   1.623  -2.148  0.00  0.00    +0.142 HD
ENDBRANCH  10  18
BRANCH   1  21
ATOM     21  C   UNL     1       1.030   3.334   0.013  0.00  0.00    +0.334 C 
ATOM     22  O   UNL     1      -0.071   3.724   0.320  0.00  0.00    -0.249 OA
BRANCH  21  23
ATOM     23  O   UNL     1       2.021   4.216  -0.194  0.00  0.00    -0.464 OA
BRANCH  23  25
ATOM     24  C   UNL     1       2.942   6.467  -0.306  0.00  0.00    +0.048 C 
ATOM     25  C   UNL     1       1.697   5.622  -0.031  0.00  0.00    +0.229 C 
ENDBRANCH  23  25
ENDBRANCH  21  23
ENDBRANCH   1  21
BRANCH   9  26
ATOM     26  C   UNL     1      -1.758  -0.183   0.948  0.00  0.00    +0.101 C 
ATOM     27  N   UNL     1      -2.766  -0.705   0.916  0.00  0.00    -0.191 NA
ENDBRANCH   9  26
BRANCH   1  28
ATOM     28  C   UNL     1       1.946   1.616  -1.434  0.00  0.00    +0.087 C 
ATOM     29  N   UNL     1       2.450   1.430  -2.435  0.00  0.00    -0.195 NA
ENDBRANCH   1  28
TORSDOF 7
