REMARK  Name = ZINC01428303
REMARK  6 active torsions:
REMARK  status: ('A' for Active; 'I' for Inactive)
REMARK    1  A    between atoms: C_1  and  O_2
REMARK    2  A    between atoms: O_2  and  C_3
REMARK    3  A    between atoms: C_6  and  S_9
REMARK    4  A    between atoms: S_9  and  C_12
REMARK    5  A    between atoms: C_13  and  N_24
REMARK    6  A    between atoms: N_14  and  C_17
REMARK                            x       y       z     vdW  Elec       q    Type
REMARK                         _______ _______ _______ _____ _____    ______ ____
ROOT
ATOM      1  C   UNL     1       1.426  -2.896   5.705  0.00  0.00    +0.244 A 
ATOM      2  C   UNL     1       1.071  -2.010   6.672  0.00  0.00    +0.166 A 
ATOM      3  N   UNL     1       0.201  -2.662   7.498  0.00  0.00    -0.196 N 
ATOM      4  N   UNL     1       0.063  -3.958   6.980  0.00  0.00    -0.057 NA
ATOM      5  N   UNL     1       0.795  -4.049   5.925  0.00  0.00    -0.108 NA
ENDROOT
BRANCH   3   6
ATOM      6  C   UNL     1      -0.427  -2.140   8.639  0.00  0.00    +0.087 A 
ATOM      7  C   UNL     1       0.313  -1.443   9.584  0.00  0.00    +0.029 A 
ATOM      8  C   UNL     1      -0.308  -0.930  10.706  0.00  0.00    +0.002 A 
ATOM      9  C   UNL     1      -1.668  -1.110  10.888  0.00  0.00    +0.002 A 
ATOM     10  C   UNL     1      -2.409  -1.803   9.949  0.00  0.00    +0.022 A 
ATOM     11  C   UNL     1      -1.793  -2.314   8.822  0.00  0.00    +0.066 A 
ATOM     12 CL   UNL     1      -2.725  -3.178   7.639  0.00  0.00    -0.081 Cl
ENDBRANCH   3   6
BRANCH   1  13
ATOM     13  S   UNL     1       2.534  -2.571   4.374  0.00  0.00    +0.047 S 
ATOM     14  O   UNL     1       3.048  -3.829   3.957  0.00  0.00    -0.163 OA
ATOM     15  O   UNL     1       3.376  -1.507   4.797  0.00  0.00    -0.163 OA
BRANCH  13  19
ATOM     16  C   UNL     1       0.061  -0.977   0.932  0.00  0.00    +0.120 A 
ATOM     17  C   UNL     1       0.599  -0.102   1.865  0.00  0.00    +0.047 A 
ATOM     18  C   UNL     1       1.353  -0.591   2.914  0.00  0.00    +0.031 A 
ATOM     19  C   UNL     1       1.572  -1.951   3.035  0.00  0.00    +0.096 A 
ATOM     20  C   UNL     1       1.038  -2.824   2.106  0.00  0.00    +0.031 A 
ATOM     21  C   UNL     1       0.278  -2.341   1.058  0.00  0.00    +0.047 A 
BRANCH  16  23
ATOM     22  C   UNL     1      -0.862   0.918  -0.168  0.00  0.00    +0.277 C 
ATOM     23  O   UNL     1      -0.681  -0.498  -0.101  0.00  0.00    -0.495 OA
ENDBRANCH  16  23
ENDBRANCH  13  19
ENDBRANCH   1  13
BRANCH   2  24
ATOM     24  N   UNL     1       1.508  -0.693   6.795  0.00  0.00    -0.340 N 
ATOM     25  H   UNL     1       2.188  -0.349   6.195  0.00  0.00    +0.144 HD
ATOM     26  H   UNL     1       1.132  -0.120   7.482  0.00  0.00    +0.144 HD
ENDBRANCH   2  24
TORSDOF 5
