REMARK  Name = ZINC67320749
REMARK  2 active torsions:
REMARK  status: ('A' for Active; 'I' for Inactive)
REMARK    1  A    between atoms: C_1  and  C_2
REMARK    2  A    between atoms: C_15  and  C_21
REMARK                            x       y       z     vdW  Elec       q    Type
REMARK                         _______ _______ _______ _____ _____    ______ ____
ROOT
ATOM      1  C   UNL     1      -2.899  -2.294   2.598  0.00  0.00    +0.009 C 
ATOM      2  C   UNL     1      -1.462  -1.778   2.514  0.00  0.00    +0.003 C 
ATOM      3  C   UNL     1      -1.473  -0.296   2.132  0.00  0.00    +0.006 C 
ATOM      4  C   UNL     1      -0.037   0.230   2.079  0.00  0.00    +0.019 C 
ATOM      5  C   UNL     1       0.745  -0.539   1.009  0.00  0.00    +0.108 C 
ATOM      6  N   UNL     1       0.639  -1.977   1.288  0.00  0.00    -0.301 N 
ATOM      7  C   UNL     1      -0.696  -2.570   1.449  0.00  0.00    +0.111 C 
ATOM      8  C   UNL     1       1.764  -2.752   1.397  0.00  0.00    +0.200 A 
ATOM      9  N   UNL     1       1.613  -4.101   1.533  0.00  0.00    -0.294 N 
ATOM     10  H   UNL     1       0.723  -4.487   1.551  0.00  0.00    +0.172 HD
ATOM     11  C   UNL     1       2.698  -4.903   1.643  0.00  0.00    +0.263 A 
ATOM     12  O   UNL     1       2.583  -6.109   1.764  0.00  0.00    -0.267 OA
ATOM     13  C   UNL     1       4.016  -4.264   1.609  0.00  0.00    +0.091 A 
ATOM     14  C   UNL     1       5.207  -5.004   1.715  0.00  0.00    -0.001 A 
ATOM     15  C   UNL     1       6.413  -4.302   1.671  0.00  0.00    +0.029 A 
ATOM     16  C   UNL     1       6.394  -2.926   1.528  0.00  0.00    +0.114 A 
ATOM     17  N   UNL     1       5.266  -2.252   1.432  0.00  0.00    -0.235 NA
ATOM     18  C   UNL     1       4.082  -2.859   1.465  0.00  0.00    +0.169 A 
ATOM     19  N   UNL     1       2.934  -2.163   1.359  0.00  0.00    -0.196 NA
ENDROOT
BRANCH  14  20
ATOM     20  C   UNL     1       5.183  -6.477   1.867  0.00  0.00    -0.017 A 
ATOM     21  C   UNL     1       4.369  -7.067   2.834  0.00  0.00    +0.010 A 
ATOM     22  C   UNL     1       4.350  -8.440   2.972  0.00  0.00    +0.020 A 
ATOM     23  C   UNL     1       5.137  -9.232   2.151  0.00  0.00    +0.041 A 
ATOM     24  C   UNL     1       5.946  -8.651   1.189  0.00  0.00    +0.020 A 
ATOM     25  C   UNL     1       5.968  -7.280   1.040  0.00  0.00    +0.010 A 
ATOM     26 CL   UNL     1       5.109 -10.958   2.330  0.00  0.00    -0.084 Cl
ENDBRANCH  14  20
TORSDOF 1
