REMARK  Name = ZINC40757829
REMARK  8 active torsions:
REMARK  status: ('A' for Active; 'I' for Inactive)
REMARK    1  A    between atoms: C_1  and  C_2
REMARK    2  A    between atoms: C_5  and  S_8
REMARK    3  A    between atoms: S_8  and  N_11
REMARK    4  A    between atoms: N_11  and  N_12
REMARK    5  A    between atoms: C_14  and  N_27
REMARK    6  A    between atoms: C_15  and  N_19
REMARK    7  A    between atoms: N_19  and  C_20
REMARK    8  A    between atoms: N_19  and  C_21
REMARK                            x       y       z     vdW  Elec       q    Type
REMARK                         _______ _______ _______ _____ _____    ______ ____
ROOT
ATOM      1  N   UNL     1       2.686  -4.599   0.846  0.00  0.00    -0.244 N 
ATOM      2  C   UNL     1       3.362  -5.564   1.584  0.00  0.00    +0.159 A 
ATOM      3  C   UNL     1       4.139  -5.199   2.685  0.00  0.00    +0.107 A 
ATOM      4  C   UNL     1       4.797  -6.207   3.391  0.00  0.00    +0.151 A 
ATOM      5  N   UNL     1       4.660  -7.469   2.990  0.00  0.00    -0.218 NA
ATOM      6  C   UNL     1       3.917  -7.771   1.945  0.00  0.00    +0.225 A 
ATOM      7  N   UNL     1       3.275  -6.850   1.254  0.00  0.00    -0.218 NA
ATOM      8  H   UNL     1       2.755  -3.663   1.093  0.00  0.00    +0.169 HD
ENDROOT
BRANCH   3   9
ATOM      9  N   UNL     1       4.255  -3.854   3.072  0.00  0.00    -0.353 N 
ATOM     10  H   UNL     1       3.853  -3.157   2.530  0.00  0.00    +0.143 HD
ATOM     11  H   UNL     1       4.738  -3.622   3.881  0.00  0.00    +0.143 HD
ENDBRANCH   3   9
BRANCH   1  12
ATOM     12  N   UNL     1       1.905  -4.978  -0.254  0.00  0.00    -0.109 NA
ATOM     13  H   UNL     1       2.297  -5.502  -0.969  0.00  0.00    +0.172 HD
BRANCH  12  14
ATOM     14  S   UNL     1       0.312  -4.531  -0.331  0.00  0.00    +0.074 S 
ATOM     15  O   UNL     1      -0.292  -4.971   0.877  0.00  0.00    -0.152 OA
ATOM     16  O   UNL     1      -0.160  -4.933  -1.610  0.00  0.00    -0.152 OA
BRANCH  14  21
ATOM     17  C   UNL     1       0.143   1.500  -0.248  0.00  0.00    +0.044 C 
ATOM     18  C   UNL     1       0.185  -0.006  -0.269  0.00  0.00    -0.050 A 
ATOM     19  C   UNL     1       0.269  -0.679  -1.474  0.00  0.00    +0.005 A 
ATOM     20  C   UNL     1       0.308  -2.061  -1.493  0.00  0.00    +0.029 A 
ATOM     21  C   UNL     1       0.264  -2.770  -0.307  0.00  0.00    +0.107 A 
ATOM     22  C   UNL     1       0.181  -2.097   0.898  0.00  0.00    +0.029 A 
ATOM     23  C   UNL     1       0.146  -0.715   0.917  0.00  0.00    +0.005 A 
ENDBRANCH  14  21
ENDBRANCH  12  14
ENDBRANCH   1  12
BRANCH   4  24
ATOM     24  N   UNL     1       5.584  -5.898   4.495  0.00  0.00    -0.287 N 
ATOM     25  C   UNL     1       6.981  -5.499   4.310  0.00  0.00    +0.137 C 
BRANCH  24  26
ATOM     26  C   UNL     1       5.041  -5.969   5.781  0.00  0.00    +0.035 A 
ATOM     27  C   UNL     1       3.693  -6.253   5.953  0.00  0.00    +0.023 A 
ATOM     28  C   UNL     1       3.160  -6.322   7.225  0.00  0.00    +0.002 A 
ATOM     29  C   UNL     1       3.967  -6.108   8.327  0.00  0.00    +0.000 A 
ATOM     30  C   UNL     1       5.311  -5.824   8.159  0.00  0.00    +0.002 A 
ATOM     31  C   UNL     1       5.851  -5.760   6.890  0.00  0.00    +0.023 A 
ENDBRANCH  24  26
ENDBRANCH   4  24
TORSDOF 6
