REMARK  Name = ZINC32005111
REMARK  5 active torsions:
REMARK  status: ('A' for Active; 'I' for Inactive)
REMARK    1  A    between atoms: C_1  and  N_2
REMARK    2  A    between atoms: N_2  and  C_3
REMARK    3  A    between atoms: N_2  and  C_4
REMARK    4  A    between atoms: C_6  and  C_15
REMARK    5  A    between atoms: C_15  and  C_16
REMARK                            x       y       z     vdW  Elec       q    Type
REMARK                         _______ _______ _______ _____ _____    ______ ____
ROOT
ATOM      1  C   UNL     1       2.381   1.414  -0.014  0.00  0.00    +0.040 A 
ATOM      2  C   UNL     1       1.153   2.057   0.002  0.00  0.00    +0.045 A 
ATOM      3  C   UNL     1      -0.016   1.309   0.009  0.00  0.00    +0.029 A 
ATOM      4  N   UNL     1       0.002  -0.004   0.002  0.00  0.00    -0.357 N 
ATOM      5  C   UNL     1       1.150  -0.691  -0.013  0.00  0.00    +0.048 A 
ATOM      6  C   UNL     1       2.386  -0.002  -0.021  0.00  0.00    +0.020 A 
ATOM      7  C   UNL     1       3.586  -0.726  -0.035  0.00  0.00    +0.027 A 
ATOM      8  C   UNL     1       3.550  -2.089  -0.041  0.00  0.00    +0.019 A 
ATOM      9  C   UNL     1       2.335  -2.771  -0.034  0.00  0.00    +0.017 A 
ATOM     10  C   UNL     1       1.152  -2.097  -0.020  0.00  0.00    +0.027 A 
ATOM     11 BR   UNL     1       5.169  -3.066  -0.061  0.00  0.00    -0.050 Br
ATOM     12  H   UNL     1      -0.943  -0.567   0.008  0.00  0.00    +0.166 HD
ENDROOT
BRANCH   1  14
ATOM     13  C   UNL     1       3.648   2.999  -1.205  0.00  0.00    +0.129 C 
ATOM     14  N   UNL     1       3.566   2.134  -0.021  0.00  0.00    -0.335 N 
ATOM     15  C   UNL     1       3.714   2.916   1.214  0.00  0.00    +0.129 C 
ENDBRANCH   1  14
BRANCH   3  16
ATOM     16  C   UNL     1      -1.343   2.023   0.019  0.00  0.00    +0.178 C 
BRANCH  16  17
ATOM     17  C   UNL     1      -2.177   1.550  -1.143  0.00  0.00    +0.362 C 
ATOM     18  O   UNL     1      -1.738   0.718  -1.902  0.00  0.00    -0.246 OA
ATOM     19  O   UNL     1      -3.406   2.052  -1.336  0.00  0.00    -0.246 OA
ENDBRANCH  16  17
ENDBRANCH   3  16
TORSDOF 3
