REMARK  Name = ZINC38995107
REMARK  8 active torsions:
REMARK  status: ('A' for Active; 'I' for Inactive)
REMARK    1  A    between atoms: C_1  and  C_2
REMARK    2  A    between atoms: C_3  and  N_9
REMARK    3  A    between atoms: C_10  and  C_12
REMARK    4  A    between atoms: C_12  and  S_13
REMARK    5  A    between atoms: S_13  and  C_14
REMARK    6  A    between atoms: C_18  and  C_22
REMARK    7  A    between atoms: N_20  and  N_21
REMARK    8  A    between atoms: C_25  and  C_28
REMARK                            x       y       z     vdW  Elec       q    Type
REMARK                         _______ _______ _______ _____ _____    ______ ____
ROOT
ATOM      1  C   UNL     1      -0.513   0.289  -7.487  0.00  0.00    +0.214 C 
ATOM      2  N   UNL     1      -1.815   0.991  -7.341  0.00  0.00    -0.228 NA
ATOM      3  N   UNL     1      -1.603   2.243  -8.085  0.00  0.00    -0.234 NA
ATOM      4  C   UNL     1      -0.202   2.618  -7.787  0.00  0.00    +0.185 C 
ATOM      5  N   UNL     1       0.497   1.370  -7.408  0.00  0.00    -0.197 NA
ATOM      6  H   UNL     1      -2.019   1.178  -6.371  0.00  0.00    +0.143 HD
ATOM      7  H   UNL     1      -1.736   2.101  -9.076  0.00  0.00    +0.143 HD
ENDROOT
BRANCH   4   8
ATOM      8  C   UNL     1       0.453   3.229  -9.027  0.00  0.00    +0.187 C 
ATOM      9  C   UNL     1      -0.234   4.527  -9.413  0.00  0.00    +0.034 C 
ATOM     10  C   UNL     1      -0.717   4.282 -10.646  0.00  0.00    +0.091 C 
ATOM     11  N   UNL     1      -0.406   3.018 -11.036  0.00  0.00    -0.154 NA
ATOM     12  N   UNL     1       0.240   2.370 -10.204  0.00  0.00    -0.176 NA
BRANCH  10  13
ATOM     13  C   UNL     1      -1.481   5.256 -11.465  0.00  0.00    +0.002 A 
ATOM     14  C   UNL     1      -1.741   6.533 -10.970  0.00  0.00    +0.013 A 
ATOM     15  C   UNL     1      -2.451   7.435 -11.734  0.00  0.00    +0.039 A 
ATOM     16  C   UNL     1      -2.906   7.074 -12.992  0.00  0.00    +0.123 A 
ATOM     17  C   UNL     1      -2.650   5.806 -13.488  0.00  0.00    +0.039 A 
ATOM     18  C   UNL     1      -1.935   4.899 -12.733  0.00  0.00    +0.013 A 
ATOM     19  F   UNL     1      -3.602   7.961 -13.737  0.00  0.00    -0.205 F 
ENDBRANCH  10  13
ENDBRANCH   4   8
BRANCH   5  20
ATOM     20  N   UNL     1       1.050   1.470  -6.067  0.00  0.00    -0.264 NA
ATOM     21  H   UNL     1       1.567   0.638  -5.826  0.00  0.00    +0.137 HD
ATOM     22  H   UNL     1       1.625   2.294  -5.973  0.00  0.00    +0.137 HD
ENDBRANCH   5  20
BRANCH   1  23
ATOM     23  S   UNL     1      -0.277  -0.899  -6.137  0.00  0.00    -0.115 S 
BRANCH  23  24
ATOM     24  C   UNL     1      -1.360  -2.286  -6.579  0.00  0.00    +0.168 C 
BRANCH  24  26
ATOM     25  N   UNL     1      -2.090  -4.426  -5.576  0.00  0.00    -0.285 N 
ATOM     26  C   UNL     1      -1.353  -3.303  -5.467  0.00  0.00    +0.227 C 
ATOM     27  O   UNL     1      -0.683  -3.111  -4.474  0.00  0.00    -0.275 OA
ATOM     28  H   UNL     1      -2.559  -4.620  -6.403  0.00  0.00    +0.155 HD
BRANCH  25  31
ATOM     29  C   UNL     1      -2.689  -7.154  -6.122  0.00  0.00    +0.047 C 
ATOM     30  C   UNL     1      -2.470  -6.651  -4.719  0.00  0.00    -0.011 A 
ATOM     31  C   UNL     1      -2.180  -5.311  -4.497  0.00  0.00    +0.038 A 
ATOM     32  C   UNL     1      -1.979  -4.852  -3.202  0.00  0.00    +0.023 A 
ATOM     33  C   UNL     1      -2.068  -5.729  -2.138  0.00  0.00    +0.003 A 
ATOM     34  C   UNL     1      -2.356  -7.062  -2.361  0.00  0.00    +0.020 A 
ATOM     35  C   UNL     1      -2.563  -7.522  -3.650  0.00  0.00    +0.046 A 
ATOM     36 CL   UNL     1      -2.933  -9.196  -3.925  0.00  0.00    -0.083 Cl
ENDBRANCH  25  31
ENDBRANCH  24  26
ENDBRANCH  23  24
ENDBRANCH   1  23
TORSDOF 7
