REMARK  Name = ZINC37053466
REMARK  7 active torsions:
REMARK  status: ('A' for Active; 'I' for Inactive)
REMARK    1  A    between atoms: C_1  and  C_2
REMARK    2  A    between atoms: C_2  and  N_3
REMARK    3  A    between atoms: C_7  and  C_9
REMARK    4  A    between atoms: C_9  and  N_10
REMARK    5  A    between atoms: N_10  and  S_11
REMARK    6  A    between atoms: S_11  and  C_14
REMARK    7  A    between atoms: C_17  and  N_21
REMARK                            x       y       z     vdW  Elec       q    Type
REMARK                         _______ _______ _______ _____ _____    ______ ____
ROOT
ATOM      1  S   UNL     1      -1.816  -2.308  -4.063  0.00  0.00    +0.059 S 
ATOM      2  O   UNL     1      -1.071  -1.595  -5.040  0.00  0.00    -0.153 OA
ATOM      3  O   UNL     1      -1.655  -3.703  -3.850  0.00  0.00    -0.153 OA
ENDROOT
BRANCH   1   4
ATOM      4  C   UNL     1      -3.518  -2.050  -4.440  0.00  0.00    +0.119 A 
ATOM      5  C   UNL     1      -4.379  -3.129  -4.518  0.00  0.00    +0.031 A 
ATOM      6  C   UNL     1      -5.713  -2.931  -4.814  0.00  0.00    +0.025 A 
ATOM      7  C   UNL     1      -6.191  -1.645  -5.033  0.00  0.00    +0.026 A 
ATOM      8  C   UNL     1      -5.325  -0.562  -4.954  0.00  0.00    +0.040 A 
ATOM      9  C   UNL     1      -3.991  -0.767  -4.652  0.00  0.00    +0.046 A 
ATOM     10 BR   UNL     1      -2.812   0.706  -4.536  0.00  0.00    -0.048 Br
BRANCH   7  11
ATOM     11  N   UNL     1      -7.540  -1.441  -5.333  0.00  0.00    -0.358 N 
ATOM     12  H   UNL     1      -8.144  -2.198  -5.389  0.00  0.00    +0.142 HD
ATOM     13  H   UNL     1      -7.872  -0.543  -5.486  0.00  0.00    +0.142 HD
ENDBRANCH   7  11
ENDBRANCH   1   4
BRANCH   1  14
ATOM     14  N   UNL     1      -1.520  -1.570  -2.610  0.00  0.00    -0.191 NA
ATOM     15  H   UNL     1      -0.911  -0.816  -2.564  0.00  0.00    +0.148 HD
BRANCH  14  16
ATOM     16  C   UNL     1      -2.176  -2.056  -1.394  0.00  0.00    +0.090 C 
BRANCH  16  21
ATOM     17  N   UNL     1      -1.421  -0.011  -0.256  0.00  0.00    +0.382 N 
ATOM     18  C   UNL     1      -2.123   0.553   0.917  0.00  0.00    -0.078 C 
ATOM     19  C   UNL     1      -3.098  -0.562   1.369  0.00  0.00    -0.020 C 
ATOM     20  C   UNL     1      -2.255  -1.839   1.111  0.00  0.00    -0.016 C 
ATOM     21  C   UNL     1      -1.466  -1.482  -0.166  0.00  0.00    -0.053 C 
ATOM     22  H   UNL     1      -1.880   0.292  -1.102  0.00  0.00    -0.081 HD
BRANCH  17  24
ATOM     23  C   UNL     1       0.022   1.955  -0.478  0.00  0.00    -0.017 C 
ATOM     24  C   UNL     1      -0.023   0.441  -0.260  0.00  0.00    -0.082 C 
ENDBRANCH  17  24
ENDBRANCH  16  21
ENDBRANCH  14  16
ENDBRANCH   1  14
TORSDOF 6
