REMARK  Name = ZINC10858281
REMARK  11 active torsions:
REMARK  status: ('A' for Active; 'I' for Inactive)
REMARK    1  A    between atoms: C_1  and  C_2
REMARK    2  A    between atoms: C_2  and  O_3
REMARK    3  A    between atoms: O_3  and  C_4
REMARK    4  A    between atoms: C_6  and  N_19
REMARK    5  A    between atoms: C_7  and  O_16
REMARK    6  A    between atoms: C_9  and  N_10
REMARK    7  A    between atoms: O_16  and  C_17
REMARK    8  A    between atoms: C_17  and  C_18
REMARK    9  A    between atoms: C_20  and  C_22
REMARK   10  A    between atoms: C_22  and  N_23
REMARK   11  A    between atoms: N_23  and  C_24
REMARK                            x       y       z     vdW  Elec       q    Type
REMARK                         _______ _______ _______ _____ _____    ______ ____
ROOT
ATOM      1  C   UNL     1      -0.131   1.196   2.365  0.00  0.00    +0.143 A 
ATOM      2  C   UNL     1       1.005   0.405   2.411  0.00  0.00    +0.074 A 
ATOM      3  C   UNL     1       1.542   0.033   3.635  0.00  0.00    +0.079 A 
ATOM      4  C   UNL     1       0.940   0.456   4.817  0.00  0.00    +0.144 A 
ATOM      5  C   UNL     1      -0.195   1.248   4.771  0.00  0.00    +0.074 A 
ATOM      6  C   UNL     1      -0.730   1.623   3.547  0.00  0.00    +0.076 A 
ENDROOT
BRANCH   6   7
ATOM      7  N   UNL     1      -1.876   2.429   3.500  0.00  0.00    -0.323 N 
ATOM      8  C   UNL     1      -1.614   3.752   4.087  0.00  0.00    +0.133 C 
ATOM      9  C   UNL     1      -2.871   4.617   3.961  0.00  0.00    +0.178 C 
ATOM     10  O   UNL     1      -3.967   3.951   4.594  0.00  0.00    -0.377 OA
ATOM     11  C   UNL     1      -4.250   2.660   4.048  0.00  0.00    +0.178 C 
ATOM     12  C   UNL     1      -3.007   1.775   4.174  0.00  0.00    +0.133 C 
ENDBRANCH   6   7
BRANCH   3  13
ATOM     13  N   UNL     1       2.693  -0.769   3.682  0.00  0.00    -0.281 N 
ATOM     14  C   UNL     1       2.891  -1.719   2.746  0.00  0.00    +0.234 C 
ATOM     15  O   UNL     1       2.117  -1.826   1.818  0.00  0.00    -0.274 OA
ATOM     16  H   UNL     1       3.345  -0.641   4.388  0.00  0.00    +0.155 HD
BRANCH  14  17
ATOM     17  C   UNL     1       4.074  -2.646   2.852  0.00  0.00    +0.198 C 
BRANCH  17  18
ATOM     18  N   UNL     1       4.065  -3.579   1.722  0.00  0.00    -0.334 N 
ATOM     19  H   UNL     1       3.361  -3.529   1.057  0.00  0.00    +0.147 HD
BRANCH  18  20
ATOM     20  C   UNL     1       5.073  -4.544   1.604  0.00  0.00    +0.050 A 
ATOM     21  C   UNL     1       6.080  -4.617   2.556  0.00  0.00    +0.073 A 
ATOM     22  C   UNL     1       7.078  -5.572   2.439  0.00  0.00    +0.164 A 
ATOM     23  C   UNL     1       7.067  -6.458   1.368  0.00  0.00    +0.164 A 
ATOM     24  C   UNL     1       6.060  -6.383   0.417  0.00  0.00    +0.071 A 
ATOM     25  C   UNL     1       5.062  -5.433   0.536  0.00  0.00    +0.065 A 
ATOM     26 CL   UNL     1       3.800  -5.347  -0.652  0.00  0.00    -0.082 Cl
ATOM     27  O   UNL     1       8.036  -7.407   1.239  0.00  0.00    -0.485 OA
ATOM     28  C   UNL     1       9.232  -7.212   2.001  0.00  0.00    +0.270 C 
ATOM     29  C   UNL     1       8.832  -6.833   3.433  0.00  0.00    +0.270 C 
ATOM     30  O   UNL     1       8.061  -5.628   3.379  0.00  0.00    -0.485 OA
ENDBRANCH  18  20
ENDBRANCH  17  18
ENDBRANCH  14  17
ENDBRANCH   3  13
BRANCH   1  31
ATOM     31  O   UNL     1      -0.658   1.560   1.165  0.00  0.00    -0.490 OA
BRANCH  31  33
ATOM     32  C   UNL     1      -0.721   1.598  -1.251  0.00  0.00    +0.048 C 
ATOM     33  C   UNL     1       0.011   1.091  -0.007  0.00  0.00    +0.226 C 
ENDBRANCH  31  33
ENDBRANCH   1  31
BRANCH   4  34
ATOM     34  O   UNL     1       1.467   0.091   6.017  0.00  0.00    -0.490 OA
BRANCH  34  35
ATOM     35  C   UNL     1       0.798   0.561   7.189  0.00  0.00    +0.226 C 
ATOM     36  C   UNL     1       1.531   0.054   8.433  0.00  0.00    +0.048 C 
ENDBRANCH  34  35
ENDBRANCH   4  34
TORSDOF 9
