REMARK  Name = ZINC53114554
REMARK  6 active torsions:
REMARK  status: ('A' for Active; 'I' for Inactive)
REMARK    1  A    between atoms: C_1  and  C_2
REMARK    2  A    between atoms: C_7  and  C_9
REMARK    3  A    between atoms: C_7  and  N_11
REMARK    4  A    between atoms: C_9  and  O_10
REMARK    5  A    between atoms: N_11  and  C_12
REMARK    6  A    between atoms: C_15  and  N_22
REMARK                            x       y       z     vdW  Elec       q    Type
REMARK                         _______ _______ _______ _____ _____    ______ ____
ROOT
ATOM      1  C   UNL     1      -1.515  -1.938   2.287  0.00  0.00    +0.054 A 
ATOM      2  C   UNL     1      -1.062  -0.955   3.139  0.00  0.00    +0.027 A 
ATOM      3  C   UNL     1      -1.887  -0.427   4.126  0.00  0.00    +0.025 A 
ATOM      4  C   UNL     1      -3.182  -0.877   4.276  0.00  0.00    +0.034 A 
ATOM      5  C   UNL     1      -3.674  -1.882   3.419  0.00  0.00    +0.023 A 
ATOM      6  C   UNL     1      -2.836  -2.417   2.410  0.00  0.00    +0.093 A 
ATOM      7  N   UNL     1      -3.302  -3.366   1.593  0.00  0.00    -0.253 NA
ATOM      8  C   UNL     1      -4.529  -3.817   1.700  0.00  0.00    +0.111 A 
ATOM      9  C   UNL     1      -5.405  -3.329   2.666  0.00  0.00    +0.020 A 
ATOM     10  C   UNL     1      -4.988  -2.366   3.541  0.00  0.00    +0.013 A 
ENDROOT
BRANCH   4  11
ATOM     11  N   UNL     1      -4.001  -0.340   5.271  0.00  0.00    -0.357 N 
ATOM     12  H   UNL     1      -3.659   0.352   5.860  0.00  0.00    +0.142 HD
ATOM     13  H   UNL     1      -4.911  -0.658   5.375  0.00  0.00    +0.142 HD
ENDBRANCH   4  11
BRANCH   1  14
ATOM     14  N   UNL     1      -0.669  -2.456   1.300  0.00  0.00    -0.334 N 
ATOM     15  H   UNL     1      -1.015  -3.082   0.645  0.00  0.00    +0.147 HD
BRANCH  14  21
ATOM     16  C   UNL     1       0.272   1.212  -0.730  0.00  0.00    +0.007 C 
ATOM     17  C   UNL     1       0.179  -0.282  -0.415  0.00  0.00    -0.012 C 
ATOM     18  C   UNL     1       0.903  -1.079  -1.502  0.00  0.00    +0.003 C 
ATOM     19  C   UNL     1       0.810  -2.573  -1.187  0.00  0.00    +0.002 C 
ATOM     20  C   UNL     1       1.463  -2.850   0.169  0.00  0.00    +0.028 C 
ATOM     21  C   UNL     1       0.738  -2.053   1.256  0.00  0.00    +0.055 C 
ATOM     22  C   UNL     1       0.831  -0.559   0.941  0.00  0.00    +0.031 C 
BRANCH  21  23
ATOM     23  C   UNL     1       1.391  -2.330   2.612  0.00  0.00    +0.181 C 
BRANCH  23  24
ATOM     24  O   UNL     1       1.298  -3.724   2.910  0.00  0.00    -0.393 OA
ATOM     25  H   UNL     1       1.692  -3.973   3.757  0.00  0.00    +0.209 HD
ENDBRANCH  23  24
ENDBRANCH  21  23
ENDBRANCH  14  21
ENDBRANCH   1  14
TORSDOF 5
