REMARK  Name = ZINC61371142
REMARK  7 active torsions:
REMARK  status: ('A' for Active; 'I' for Inactive)
REMARK    1  A    between atoms: C_1  and  C_2
REMARK    2  A    between atoms: C_2  and  C_4
REMARK    3  A    between atoms: C_2  and  N_9
REMARK    4  A    between atoms: C_10  and  C_12
REMARK    5  A    between atoms: C_12  and  C_14
REMARK    6  A    between atoms: C_12  and  C_15
REMARK    7  A    between atoms: N_16  and  O_17
REMARK                            x       y       z     vdW  Elec       q    Type
REMARK                         _______ _______ _______ _____ _____    ______ ____
ROOT
ATOM      1  N   UNL     1       0.711  -0.489   1.189  0.00  0.00    -0.308 N 
ATOM      2  C   UNL     1       2.054  -0.600   1.174  0.00  0.00    +0.224 C 
ATOM      3  O   UNL     1       2.676  -0.297   0.177  0.00  0.00    -0.275 OA
ATOM      4  H   UNL     1       0.213  -0.731   1.986  0.00  0.00    +0.149 HD
ENDROOT
BRANCH   1   6
ATOM      5  C   UNL     1      -0.019   1.526   0.010  0.00  0.00    +0.033 C 
ATOM      6  C   UNL     1       0.002  -0.004   0.002  0.00  0.00    +0.101 C 
BRANCH   6   7
ATOM      7  C   UNL     1      -1.412  -0.526   0.013  0.00  0.00    -0.020 A 
ATOM      8  C   UNL     1      -2.008  -0.961  -1.156  0.00  0.00    +0.013 A 
ATOM      9  C   UNL     1      -3.281  -1.424  -1.112  0.00  0.00    +0.045 A 
ATOM     10  S   UNL     1      -3.676  -1.252   0.621  0.00  0.00    -0.105 S 
ATOM     11  C   UNL     1      -2.116  -0.580   1.169  0.00  0.00    +0.050 A 
ENDBRANCH   6   7
ENDBRANCH   1   6
BRANCH   2  12
ATOM     12  C   UNL     1       2.783  -1.099   2.395  0.00  0.00    +0.138 C 
ATOM     13  C   UNL     1       2.502  -0.165   3.574  0.00  0.00    +0.025 C 
BRANCH  12  14
ATOM     14  C   UNL     1       4.264  -1.128   2.119  0.00  0.00    +0.143 C 
ATOM     15  N   UNL     1       5.005  -0.128   2.464  0.00  0.00    -0.076 NA
ATOM     16  N   UNL     1       4.827  -2.221   1.498  0.00  0.00    -0.343 N 
ATOM     17  H   UNL     1       4.271  -2.972   1.238  0.00  0.00    +0.144 HD
ATOM     18  H   UNL     1       5.781  -2.240   1.320  0.00  0.00    +0.144 HD
BRANCH  15  19
ATOM     19  O   UNL     1       6.397  -0.155   2.205  0.00  0.00    -0.408 OA
ATOM     20  H   UNL     1       6.867   0.636   2.499  0.00  0.00    +0.328 HD
ENDBRANCH  15  19
ENDBRANCH  12  14
ENDBRANCH   2  12
TORSDOF 5
