REMARK  Name = ZINC00797429
REMARK  7 active torsions:
REMARK  status: ('A' for Active; 'I' for Inactive)
REMARK    1  A    between atoms: C_1  and  C_2
REMARK    2  A    between atoms: C_3  and  N_23
REMARK    3  A    between atoms: C_4  and  C_22
REMARK    4  A    between atoms: N_5  and  C_7
REMARK    5  A    between atoms: C_7  and  C_8
REMARK    6  A    between atoms: N_10  and  C_11
REMARK    7  A    between atoms: C_12  and  C_20
REMARK                            x       y       z     vdW  Elec       q    Type
REMARK                         _______ _______ _______ _____ _____    ______ ____
ROOT
ATOM      1  C   UNL     1      -2.281   7.222  -2.922  0.00  0.00    +0.239 C 
ATOM      2  O   UNL     1      -2.262   6.340  -3.754  0.00  0.00    -0.273 OA
ATOM      3  N   UNL     1      -1.967   6.946  -1.640  0.00  0.00    -0.277 N 
ATOM      4  H   UNL     1      -1.982   7.651  -0.975  0.00  0.00    +0.155 HD
ENDROOT
BRANCH   3   5
ATOM      5  C   UNL     1      -1.622   5.652  -1.274  0.00  0.00    +0.090 A 
ATOM      6  C   UNL     1      -1.271   5.177  -0.019  0.00  0.00    +0.084 A 
ATOM      7  C   UNL     1      -0.951   3.765   0.100  0.00  0.00    -0.018 A 
ATOM      8  C   UNL     1      -1.032   3.059  -1.049  0.00  0.00    -0.004 A 
ATOM      9  S   UNL     1      -1.524   4.240  -2.272  0.00  0.00    -0.077 S 
ATOM     10  C   UNL     1      -0.761   1.597  -1.232  0.00  0.00    +0.043 C 
ATOM     11  C   UNL     1      -0.013   1.086   0.008  0.00  0.00    +0.005 C 
ATOM     12  C   UNL     1      -0.735   1.583   1.264  0.00  0.00    +0.005 C 
ATOM     13  C   UNL     1      -0.551   3.094   1.407  0.00  0.00    +0.037 C 
BRANCH   6  14
ATOM     14  C   UNL     1      -1.226   6.046   1.118  0.00  0.00    +0.102 C 
ATOM     15  N   UNL     1      -1.191   6.736   2.020  0.00  0.00    -0.191 NA
ENDBRANCH   6  14
ENDBRANCH   3   5
BRANCH   1  16
ATOM     16  C   UNL     1      -2.655   8.626  -3.320  0.00  0.00    +0.239 C 
BRANCH  16  21
ATOM     17  C   UNL     1      -2.053   9.081  -8.282  0.00  0.00    +0.070 C 
ATOM     18  C   UNL     1      -2.664   8.868  -6.921  0.00  0.00    +0.090 A 
ATOM     19  C   UNL     1      -4.009   8.586  -6.662  0.00  0.00    +0.169 A 
ATOM     20  C   UNL     1      -4.158   8.466  -5.322  0.00  0.00    +0.067 A 
ATOM     21  N   UNL     1      -2.950   8.665  -4.754  0.00  0.00    -0.257 N 
ATOM     22  N   UNL     1      -2.030   8.921  -5.779  0.00  0.00    -0.173 NA
ATOM     23  C   UNL     1      -5.443   8.164  -4.595  0.00  0.00    +0.068 C 
BRANCH  19  24
ATOM     24  N   UNL     1      -5.080   8.443  -7.673  0.00  0.00    +0.060 N 
ATOM     25  O   UNL     1      -5.724   9.417  -8.020  0.00  0.00    -0.126 OA
ATOM     26  O   UNL     1      -5.317   7.352  -8.159  0.00  0.00    -0.126 OA
ENDBRANCH  19  24
ENDBRANCH  16  21
ENDBRANCH   1  16
TORSDOF 5
