REMARK  Name = ZINC13199581
REMARK  8 active torsions:
REMARK  status: ('A' for Active; 'I' for Inactive)
REMARK    1  A    between atoms: C_1  and  C_2
REMARK    2  A    between atoms: C_5  and  C_8
REMARK    3  A    between atoms: C_8  and  C_10
REMARK    4  A    between atoms: C_8  and  N_15
REMARK    5  A    between atoms: N_15  and  S_16
REMARK    6  A    between atoms: S_16  and  C_19
REMARK    7  A    between atoms: C_22  and  O_27
REMARK    8  A    between atoms: C_23  and  C_25
REMARK                            x       y       z     vdW  Elec       q    Type
REMARK                         _______ _______ _______ _____ _____    ______ ____
ROOT
ATOM      1  N   UNL     1      -1.512  -5.053   0.010  0.00  0.00    -0.178 NA
ATOM      2  H   UNL     1      -1.857  -5.538   0.776  0.00  0.00    +0.149 HD
ENDROOT
BRANCH   1   3
ATOM      3  S   UNL     1       0.063  -4.543  -0.006  0.00  0.00    +0.059 S 
ATOM      4  O   UNL     1       0.608  -4.946  -1.255  0.00  0.00    -0.153 OA
ATOM      5  O   UNL     1       0.631  -4.938   1.236  0.00  0.00    -0.153 OA
BRANCH   3   6
ATOM      6  C   UNL     1       0.039  -2.781  -0.011  0.00  0.00    +0.106 A 
ATOM      7  C   UNL     1       0.041  -2.088   1.188  0.00  0.00    +0.032 A 
ATOM      8  C   UNL     1       0.023  -0.707   1.198  0.00  0.00    +0.048 A 
ATOM      9  C   UNL     1       0.002  -0.004   0.002  0.00  0.00    +0.131 A 
ATOM     10  C   UNL     1      -0.006  -0.702  -1.214  0.00  0.00    +0.106 A 
ATOM     11  C   UNL     1       0.020  -2.099  -1.208  0.00  0.00    +0.047 A 
BRANCH  10  12
ATOM     12  C   UNL     1      -0.035   0.034  -2.491  0.00  0.00    +0.390 C 
ATOM     13  O   UNL     1      -0.052   1.249  -2.492  0.00  0.00    -0.240 OA
ATOM     14  O   UNL     1      -0.042  -0.641  -3.657  0.00  0.00    -0.240 OA
ENDBRANCH  10  12
BRANCH   9  15
ATOM     15  O   UNL     1      -0.016   1.352   0.009  0.00  0.00    -0.506 OA
ATOM     16  H   UNL     1       0.862   1.758   0.003  0.00  0.00    +0.292 HD
ENDBRANCH   9  15
ENDBRANCH   3   6
ENDBRANCH   1   3
BRANCH   1  17
ATOM     17  C   UNL     1      -2.385  -4.773  -1.132  0.00  0.00    +0.143 C 
BRANCH  17  22
ATOM     18  C   UNL     1      -6.038  -9.185  -1.895  0.00  0.00    +0.044 C 
ATOM     19  C   UNL     1      -5.085  -8.035  -1.696  0.00  0.00    -0.050 A 
ATOM     20  C   UNL     1      -4.516  -7.412  -2.791  0.00  0.00    +0.004 A 
ATOM     21  C   UNL     1      -3.643  -6.356  -2.608  0.00  0.00    +0.006 A 
ATOM     22  C   UNL     1      -3.338  -5.924  -1.331  0.00  0.00    -0.024 A 
ATOM     23  C   UNL     1      -3.903  -6.550  -0.236  0.00  0.00    +0.006 A 
ATOM     24  C   UNL     1      -4.780  -7.603  -0.419  0.00  0.00    +0.004 A 
ENDBRANCH  17  22
BRANCH  17  25
ATOM     25  C   UNL     1      -3.168  -3.512  -0.869  0.00  0.00    +0.013 A 
ATOM     26  C   UNL     1      -3.480  -2.508  -1.724  0.00  0.00    +0.013 A 
ATOM     27  C   UNL     1      -4.218  -1.436  -1.257  0.00  0.00    +0.008 A 
ATOM     28  C   UNL     1      -4.607  -1.421   0.042  0.00  0.00    +0.045 A 
ATOM     29  S   UNL     1      -3.931  -2.959   0.647  0.00  0.00    -0.100 S 
ENDBRANCH  17  25
ENDBRANCH   1  17
TORSDOF 7
