REMARK  Name = ZINC22382534
REMARK  7 active torsions:
REMARK  status: ('A' for Active; 'I' for Inactive)
REMARK    1  A    between atoms: C_3  and  C_30
REMARK    2  A    between atoms: C_6  and  C_7
REMARK    3  A    between atoms: C_7  and  N_8
REMARK    4  A    between atoms: C_9  and  C_11
REMARK    5  A    between atoms: N_16  and  S_17
REMARK    6  A    between atoms: S_17  and  C_20
REMARK    7  A    between atoms: C_30  and  N_31
REMARK                            x       y       z     vdW  Elec       q    Type
REMARK                         _______ _______ _______ _____ _____    ______ ____
ROOT
ATOM      1  N   UNL     1       4.079   2.438  -1.407  0.00  0.00    -0.310 N 
ATOM      2  C   UNL     1       5.215   3.118  -1.660  0.00  0.00    +0.232 C 
ATOM      3  O   UNL     1       5.901   3.517  -0.743  0.00  0.00    -0.274 OA
ATOM      4  H   UNL     1       3.457   2.076  -2.239  0.00  0.00    +0.149 HD
ENDROOT
BRANCH   2   5
ATOM      5  C   UNL     1       5.633   3.381  -3.084  0.00  0.00    +0.165 C 
ATOM      6  C   UNL     1       4.563   4.235  -3.796  0.00  0.00    +0.031 C 
ATOM      7  C   UNL     1       5.410   5.193  -4.674  0.00  0.00    +0.019 C 
ATOM      8  C   UNL     1       6.640   5.442  -3.766  0.00  0.00    +0.110 C 
ATOM      9  N   UNL     1       6.887   4.149  -3.102  0.00  0.00    -0.165 NA
BRANCH   9  10
ATOM     10  S   UNL     1       8.337   3.645  -2.480  0.00  0.00    +0.062 S 
ATOM     11  O   UNL     1       9.087   4.818  -2.197  0.00  0.00    -0.153 OA
ATOM     12  O   UNL     1       8.037   2.674  -1.487  0.00  0.00    -0.153 OA
BRANCH  10  13
ATOM     13  C   UNL     1       9.191   2.800  -3.769  0.00  0.00    +0.109 A 
ATOM     14  C   UNL     1      10.031   3.500  -4.615  0.00  0.00    +0.032 A 
ATOM     15  C   UNL     1      10.702   2.841  -5.628  0.00  0.00    +0.051 A 
ATOM     16  C   UNL     1      10.535   1.475  -5.797  0.00  0.00    +0.162 A 
ATOM     17  C   UNL     1       9.693   0.770  -4.945  0.00  0.00    +0.164 A 
ATOM     18  C   UNL     1       9.025   1.437  -3.929  0.00  0.00    +0.078 A 
ATOM     19  O   UNL     1       9.518  -0.571  -5.091  0.00  0.00    -0.485 OA
ATOM     20  C   UNL     1       9.912  -1.139  -6.346  0.00  0.00    +0.270 C 
ATOM     21  C   UNL     1      11.296  -0.585  -6.710  0.00  0.00    +0.270 C 
ATOM     22  O   UNL     1      11.199   0.841  -6.802  0.00  0.00    -0.485 OA
ENDBRANCH  10  13
ENDBRANCH   9  10
ENDBRANCH   2   5
BRANCH   1  23
ATOM     23  C   UNL     1       3.672   2.182  -0.023  0.00  0.00    +0.139 C 
BRANCH  23  29
ATOM     24  C   UNL     1       1.171   2.086   0.002  0.00  0.00    +0.005 A 
ATOM     25  C   UNL     1      -0.017   1.378   0.010  0.00  0.00    +0.002 A 
ATOM     26  C   UNL     1       0.002  -0.004   0.002  0.00  0.00    -0.064 A 
ATOM     27  C   UNL     1       1.208  -0.679  -0.013  0.00  0.00    +0.002 A 
ATOM     28  C   UNL     1       2.396   0.029  -0.021  0.00  0.00    +0.005 A 
ATOM     29  C   UNL     1       2.377   1.411  -0.015  0.00  0.00    -0.030 A 
BRANCH  26  30
ATOM     30  C   UNL     1      -1.293  -0.775   0.011  0.00  0.00    -0.043 C 
BRANCH  30  31
ATOM     31  N   UNL     1      -1.727  -1.018  -1.371  0.00  0.00    +0.382 N 
ATOM     32  C   UNL     1      -2.069   0.241  -2.045  0.00  0.00    -0.078 C 
ATOM     33  C   UNL     1      -2.376  -0.034  -3.519  0.00  0.00    -0.019 C 
ATOM     34  C   UNL     1      -3.543  -1.020  -3.617  0.00  0.00    -0.004 C 
ATOM     35  C   UNL     1      -3.180  -2.305  -2.866  0.00  0.00    -0.019 C 
ATOM     36  C   UNL     1      -2.850  -1.964  -1.411  0.00  0.00    -0.078 C 
ATOM     37  H   UNL     1      -0.887  -1.473  -1.917  0.00  0.00    -0.081 HD
ENDBRANCH  30  31
ENDBRANCH  26  30
ENDBRANCH  23  29
ENDBRANCH   1  23
TORSDOF 7
