REMARK  Name = ZINC45520980
REMARK  6 active torsions:
REMARK  status: ('A' for Active; 'I' for Inactive)
REMARK    1  A    between atoms: N_4  and  C_6
REMARK    2  A    between atoms: C_7  and  C_15
REMARK    3  A    between atoms: N_17  and  C_18
REMARK    4  A    between atoms: C_21  and  N_24
REMARK    5  A    between atoms: N_27  and  C_28
REMARK    6  A    between atoms: C_28  and  C_29
REMARK                            x       y       z     vdW  Elec       q    Type
REMARK                         _______ _______ _______ _____ _____    ______ ____
ROOT
ATOM      1  C   UNL     1      -0.483  -2.823   0.013  0.00  0.00    +0.251 C 
ATOM      2  O   UNL     1      -1.091  -2.774  -1.040  0.00  0.00    -0.270 OA
ATOM      3  N   UNL     1      -1.157  -2.807   1.181  0.00  0.00    -0.281 N 
ATOM      4  H   UNL     1      -0.679  -2.913   2.018  0.00  0.00    +0.155 HD
ENDROOT
BRANCH   1   6
ATOM      5  C   UNL     1       1.757  -1.759   0.033  0.00  0.00    +0.097 A 
ATOM      6  C   UNL     1       0.982  -2.901   0.013  0.00  0.00    +0.072 A 
ATOM      7  C   UNL     1       1.671  -4.191  -0.008  0.00  0.00    -0.021 A 
ATOM      8  C   UNL     1       3.010  -4.085  -0.009  0.00  0.00    +0.006 A 
ATOM      9  S   UNL     1       3.330  -2.339   0.018  0.00  0.00    -0.074 S 
ATOM     10  C   UNL     1       4.062  -5.160  -0.041  0.00  0.00    +0.111 C 
ATOM     11  S   UNL     1       3.272  -6.743   0.387  0.00  0.00    -0.155 S 
ATOM     12  C   UNL     1       1.716  -6.651  -0.553  0.00  0.00    +0.074 C 
ATOM     13  C   UNL     1       0.886  -5.492  -0.015  0.00  0.00    +0.047 C 
BRANCH   5  17
ATOM     14  C   UNL     1       0.023   1.332   0.084  0.00  0.00    +0.019 A 
ATOM     15  C   UNL     1       1.366   1.763   0.085  0.00  0.00    +0.019 A 
ATOM     16  C   UNL     1       2.145   0.663   0.067  0.00  0.00    +0.092 A 
ATOM     17  N   UNL     1       1.332  -0.435   0.054  0.00  0.00    -0.317 N 
ATOM     18  C   UNL     1       0.031  -0.016   0.064  0.00  0.00    +0.092 A 
ENDBRANCH   5  17
ENDBRANCH   1   6
BRANCH   3  19
ATOM     19  C   UNL     1      -2.547  -2.635   1.185  0.00  0.00    +0.034 A 
ATOM     20  C   UNL     1      -3.317  -3.185   0.168  0.00  0.00    +0.025 A 
ATOM     21  C   UNL     1      -4.688  -3.016   0.172  0.00  0.00    +0.025 A 
ATOM     22  C   UNL     1      -5.295  -2.297   1.193  0.00  0.00    +0.035 A 
ATOM     23  C   UNL     1      -4.525  -1.748   2.209  0.00  0.00    +0.025 A 
ATOM     24  C   UNL     1      -3.156  -1.921   2.208  0.00  0.00    +0.025 A 
BRANCH  22  25
ATOM     25  N   UNL     1      -6.686  -2.126   1.197  0.00  0.00    -0.269 N 
ATOM     26  C   UNL     1      -7.222  -0.976   1.651  0.00  0.00    +0.304 C 
ATOM     27  O   UNL     1      -6.506  -0.120   2.134  0.00  0.00    -0.252 OA
ATOM     28  N   UNL     1      -8.552  -0.773   1.569  0.00  0.00    -0.292 N 
ATOM     29  H   UNL     1      -7.263  -2.835   0.873  0.00  0.00    +0.156 HD
ATOM     30  H   UNL     1      -9.124  -1.456   1.183  0.00  0.00    +0.151 HD
BRANCH  28  31
ATOM     31  C   UNL     1      -9.135   0.477   2.062  0.00  0.00    +0.180 C 
BRANCH  31  32
ATOM     32  C   UNL     1     -10.627   0.452   1.855  0.00  0.00    +0.122 A 
ATOM     33  C   UNL     1     -11.536  -0.006   2.735  0.00  0.00    +0.046 A 
ATOM     34  C   UNL     1     -12.806   0.159   2.135  0.00  0.00    +0.041 A 
ATOM     35  C   UNL     1     -12.597   0.707   0.925  0.00  0.00    +0.195 A 
ATOM     36  O   UNL     1     -11.276   0.887   0.763  0.00  0.00    -0.466 OA
ENDBRANCH  31  32
ENDBRANCH  28  31
ENDBRANCH  22  25
ENDBRANCH   3  19
TORSDOF 6
