REMARK  Name = ZINC06283269
REMARK  6 active torsions:
REMARK  status: ('A' for Active; 'I' for Inactive)
REMARK    1  A    between atoms: C_1  and  C_2
REMARK    2  A    between atoms: C_8  and  C_10
REMARK    3  A    between atoms: C_8  and  C_26
REMARK    4  A    between atoms: C_8  and  N_63
REMARK    5  A    between atoms: N_30  and  C_31
REMARK    6  A    between atoms: C_31  and  C_32
REMARK                            x       y       z     vdW  Elec       q    Type
REMARK                         _______ _______ _______ _____ _____    ______ ____
ROOT
ATOM      1  C   UNL     1       4.188  -0.358  -0.264  0.00  0.00    +0.039 C 
ENDROOT
BRANCH   1   2
ATOM      2  C   UNL     1       2.921   0.391   0.062  0.00  0.00    +0.011 A 
ATOM      3  C   UNL     1       2.255   1.051  -0.919  0.00  0.00    +0.017 A 
ATOM      4  C   UNL     1       1.029   1.768  -0.572  0.00  0.00    +0.002 A 
ATOM      5  C   UNL     1       0.300   2.466  -1.542  0.00  0.00    +0.059 A 
ATOM      6  C   UNL     1      -0.852   3.134  -1.185  0.00  0.00    +0.163 A 
ATOM      7  C   UNL     1      -1.294   3.114   0.141  0.00  0.00    +0.164 A 
ATOM      8  C   UNL     1      -0.583   2.422   1.107  0.00  0.00    +0.075 A 
ATOM      9  C   UNL     1       0.583   1.750   0.764  0.00  0.00    +0.053 A 
ATOM     10  N   UNL     1       1.308   1.060   1.715  0.00  0.00    -0.322 N 
ATOM     11  H   UNL     1       1.000   1.048   2.635  0.00  0.00    +0.169 HD
ATOM     12  C   UNL     1       2.433   0.404   1.384  0.00  0.00    +0.251 A 
ATOM     13  O   UNL     1       3.047  -0.196   2.250  0.00  0.00    -0.268 OA
ATOM     14  O   UNL     1      -2.433   3.767   0.502  0.00  0.00    -0.485 OA
ATOM     15  C   UNL     1      -2.924   4.757  -0.408  0.00  0.00    +0.270 C 
ATOM     16  C   UNL     1      -2.899   4.163  -1.823  0.00  0.00    +0.270 C 
ATOM     17  O   UNL     1      -1.547   3.813  -2.139  0.00  0.00    -0.485 OA
ENDBRANCH   1   2
BRANCH   1  24
ATOM     18  C   UNL     1       8.951  -0.777   0.888  0.00  0.00    +0.005 C 
ATOM     19  C   UNL     1       7.630  -0.089   1.237  0.00  0.00    -0.031 C 
ATOM     20  C   UNL     1       7.806   1.429   1.148  0.00  0.00    -0.001 C 
ATOM     21  C   UNL     1       6.465   2.108   1.441  0.00  0.00    -0.018 C 
ATOM     22  C   UNL     1       5.415   1.602   0.449  0.00  0.00    -0.077 C 
ATOM     23  C   UNL     1       6.547  -0.531   0.251  0.00  0.00    -0.074 C 
ATOM     24  N   UNL     1       5.276   0.139   0.603  0.00  0.00    +0.389 N 
ATOM     25  H   UNL     1       5.047  -0.074   1.581  0.00  0.00    -0.080 HD
ENDBRANCH   1  24
BRANCH   1  26
ATOM     26  C   UNL     1       4.532  -0.155  -1.717  0.00  0.00    +0.143 A 
ATOM     27  N   UNL     1       4.989   0.943  -2.267  0.00  0.00    -0.115 NA
ATOM     28  N   UNL     1       5.161   0.718  -3.523  0.00  0.00    -0.023 NA
ATOM     29  N   UNL     1       4.818  -0.494  -3.791  0.00  0.00    -0.044 NA
ATOM     30  N   UNL     1       4.424  -1.065  -2.703  0.00  0.00    -0.226 N 
BRANCH  30  31
ATOM     31  C   UNL     1       3.949  -2.444  -2.567  0.00  0.00    +0.182 C 
BRANCH  31  32
ATOM     32  C   UNL     1       2.479  -2.503  -2.894  0.00  0.00    -0.026 A 
ATOM     33  C   UNL     1       1.543  -2.430  -1.879  0.00  0.00    +0.008 A 
ATOM     34  C   UNL     1       0.194  -2.480  -2.178  0.00  0.00    +0.038 A 
ATOM     35  C   UNL     1      -0.218  -2.614  -3.493  0.00  0.00    +0.123 A 
ATOM     36  C   UNL     1       0.721  -2.692  -4.508  0.00  0.00    +0.038 A 
ATOM     37  C   UNL     1       2.068  -2.637  -4.207  0.00  0.00    +0.008 A 
ATOM     38  F   UNL     1      -1.536  -2.667  -3.786  0.00  0.00    -0.205 F 
ENDBRANCH  31  32
ENDBRANCH  30  31
ENDBRANCH   1  26
TORSDOF 5
