REMARK  Name = ZINC35481972
REMARK  7 active torsions:
REMARK  status: ('A' for Active; 'I' for Inactive)
REMARK    1  A    between atoms: C_1  and  C_2
REMARK    2  A    between atoms: C_5  and  C_8
REMARK    3  A    between atoms: C_9  and  C_10
REMARK    4  A    between atoms: C_12  and  C_15
REMARK    5  A    between atoms: N_27  and  C_28
REMARK    6  A    between atoms: C_28  and  C_29
REMARK    7  A    between atoms: C_28  and  C_30
REMARK                            x       y       z     vdW  Elec       q    Type
REMARK                         _______ _______ _______ _____ _____    ______ ____
ROOT
ATOM      1  C   UNL     1       0.449  -9.632   2.737  0.00  0.00    +0.025 A 
ATOM      2  C   UNL     1       0.439  -9.435   4.119  0.00  0.00    +0.014 A 
ATOM      3  C   UNL     1       0.349 -10.514   4.970  0.00  0.00    +0.028 A 
ATOM      4  C   UNL     1       0.267 -11.806   4.457  0.00  0.00    +0.069 A 
ATOM      5  C   UNL     1       0.277 -12.008   3.074  0.00  0.00    +0.067 A 
ATOM      6  C   UNL     1       0.362 -10.919   2.217  0.00  0.00    +0.039 A 
ATOM      7  N   UNL     1       0.195 -13.294   2.546  0.00  0.00    -0.316 N 
ATOM      8  H   UNL     1       0.203 -13.425   1.585  0.00  0.00    +0.169 HD
ATOM      9  C   UNL     1       0.106 -14.359   3.369  0.00  0.00    +0.314 A 
ATOM     10  O   UNL     1       0.036 -15.482   2.914  0.00  0.00    -0.262 OA
ATOM     11  C   UNL     1       0.097 -14.142   4.845  0.00  0.00    +0.317 A 
ATOM     12  O   UNL     1       0.018 -15.087   5.604  0.00  0.00    -0.262 OA
ATOM     13  N   UNL     1       0.177 -12.886   5.329  0.00  0.00    -0.300 N 
ENDROOT
BRANCH   1  16
ATOM     14  C   UNL     1       0.705  -6.408   1.139  0.00  0.00    +0.252 A 
ATOM     15  N   UNL     1       0.634  -7.184   2.201  0.00  0.00    -0.188 NA
ATOM     16  C   UNL     1       0.545  -8.468   1.822  0.00  0.00    +0.202 A 
ATOM     17  N   UNL     1       0.558  -8.526   0.512  0.00  0.00    -0.056 NA
ATOM     18  O   UNL     1       0.656  -7.190   0.044  0.00  0.00    -0.333 OA
BRANCH  14  20
ATOM     19  C   UNL     1       0.870  -4.268  -0.013  0.00  0.00    +0.013 C 
ATOM     20  C   UNL     1       0.811  -4.947   1.149  0.00  0.00    +0.071 C 
BRANCH  19  25
ATOM     21  C   UNL     1       1.286   1.466   0.023  0.00  0.00    +0.044 C 
ATOM     22  C   UNL     1       1.177  -0.037   0.014  0.00  0.00    -0.050 A 
ATOM     23  C   UNL     1       1.139  -0.717  -1.191  0.00  0.00    +0.004 A 
ATOM     24  C   UNL     1       1.039  -2.092  -1.208  0.00  0.00    +0.008 A 
ATOM     25  C   UNL     1       0.977  -2.800  -0.004  0.00  0.00    -0.025 A 
ATOM     26  C   UNL     1       1.017  -2.106   1.209  0.00  0.00    +0.008 A 
ATOM     27  C   UNL     1       1.122  -0.731   1.210  0.00  0.00    +0.004 A 
ENDBRANCH  19  25
ENDBRANCH  14  20
ENDBRANCH   1  16
BRANCH  13  28
ATOM     28  C   UNL     1       0.170 -12.658   6.776  0.00  0.00    +0.085 C 
ATOM     29  C   UNL     1      -1.131 -13.201   7.370  0.00  0.00    +0.030 C 
ATOM     30  C   UNL     1       1.361 -13.377   7.412  0.00  0.00    +0.030 C 
ENDBRANCH  13  28
TORSDOF 4
