REMARK  Name = ZINC12958096
REMARK  7 active torsions:
REMARK  status: ('A' for Active; 'I' for Inactive)
REMARK    1  A    between atoms: C_6  and  O_7
REMARK    2  A    between atoms: O_7  and  C_8
REMARK    3  A    between atoms: C_8  and  C_9
REMARK    4  A    between atoms: N_11  and  N_12
REMARK    5  A    between atoms: C_13  and  C_15
REMARK    6  A    between atoms: C_15  and  N_16
REMARK    7  A    between atoms: C_20  and  C_23
REMARK                            x       y       z     vdW  Elec       q    Type
REMARK                         _______ _______ _______ _____ _____    ______ ____
ROOT
ATOM      1  N   UNL     1      -3.901  -4.637   0.016  0.00  0.00    -0.234 N 
ATOM      2  C   UNL     1      -4.058  -5.975   0.010  0.00  0.00    +0.246 C 
ATOM      3  O   UNL     1      -3.086  -6.700  -0.003  0.00  0.00    -0.273 OA
ATOM      4  H   UNL     1      -4.678  -4.057   0.027  0.00  0.00    +0.173 HD
ENDROOT
BRANCH   1   7
ATOM      5  C   UNL     1      -2.454  -2.722   0.012  0.00  0.00    +0.120 C 
ATOM      6  N   UNL     1      -3.491  -1.949   0.026  0.00  0.00    -0.387 N 
ATOM      7  N   UNL     1      -2.614  -4.083   0.006  0.00  0.00    -0.251 N 
ATOM      8  H   UNL     1      -4.382  -2.333   0.033  0.00  0.00    +0.157 HD
ATOM      9  H   UNL     1      -1.837  -4.663  -0.005  0.00  0.00    +0.171 HD
ATOM     10  H   UNL     1      -3.377  -0.986   0.030  0.00  0.00    +0.157 HD
BRANCH   5  11
ATOM     11  C   UNL     1      -1.070  -2.126   0.001  0.00  0.00    +0.299 C 
BRANCH  11  12
ATOM     12  O   UNL     1      -1.165  -0.701   0.010  0.00  0.00    -0.485 OA
BRANCH  12  18
ATOM     13  C   UNL     1      -0.017   1.383   0.010  0.00  0.00    +0.047 A 
ATOM     14  C   UNL     1       1.171   2.089   0.002  0.00  0.00    +0.023 A 
ATOM     15  C   UNL     1       2.378   1.414  -0.013  0.00  0.00    +0.041 A 
ATOM     16  C   UNL     1       2.399   0.030  -0.021  0.00  0.00    +0.023 A 
ATOM     17  C   UNL     1       1.214  -0.679  -0.014  0.00  0.00    +0.047 A 
ATOM     18  C   UNL     1       0.002  -0.004   0.002  0.00  0.00    +0.121 A 
ATOM     19 CL   UNL     1       3.869   2.303  -0.024  0.00  0.00    -0.084 Cl
ENDBRANCH  12  18
ENDBRANCH  11  12
ENDBRANCH   5  11
ENDBRANCH   1   7
BRANCH   2  20
ATOM     20  C   UNL     1      -5.442  -6.571   0.021  0.00  0.00    +0.200 C 
BRANCH  20  21
ATOM     21  N   UNL     1      -5.345  -8.033   0.012  0.00  0.00    -0.319 N 
ATOM     22  C   UNL     1      -6.500  -8.807   0.019  0.00  0.00    +0.138 A 
ATOM     23  C   UNL     1      -6.400 -10.196   0.017  0.00  0.00    +0.081 A 
ATOM     24  C   UNL     1      -7.559 -10.953   0.025  0.00  0.00    +0.037 A 
ATOM     25  C   UNL     1      -8.781 -10.294   0.035  0.00  0.00    +0.074 A 
ATOM     26  C   UNL     1      -8.806  -8.915   0.037  0.00  0.00    +0.125 A 
ATOM     27  N   UNL     1      -7.685  -8.217   0.034  0.00  0.00    -0.238 NA
ATOM     28 CL   UNL     1      -4.845 -10.966   0.003  0.00  0.00    -0.080 Cl
ATOM     29  H   UNL     1      -4.474  -8.461   0.001  0.00  0.00    +0.148 HD
BRANCH  25  30
ATOM     30  C   UNL     1     -10.068 -11.079   0.043  0.00  0.00    +0.419 C 
ATOM     31  F   UNL     1     -10.457 -11.323   1.365  0.00  0.00    -0.166 F 
ATOM     32  F   UNL     1     -11.066 -10.345  -0.608  0.00  0.00    -0.166 F 
ATOM     33  F   UNL     1      -9.877 -12.296  -0.620  0.00  0.00    -0.166 F 
ENDBRANCH  25  30
ENDBRANCH  20  21
ENDBRANCH   2  20
TORSDOF 7
