REMARK  Name = ZINC40452802
REMARK  5 active torsions:
REMARK  status: ('A' for Active; 'I' for Inactive)
REMARK    1  A    between atoms: C_1  and  C_2
REMARK    2  A    between atoms: C_4  and  N_17
REMARK    3  A    between atoms: C_7  and  N_8
REMARK    4  A    between atoms: C_13  and  C_15
REMARK    5  A    between atoms: C_15  and  O_16
REMARK                            x       y       z     vdW  Elec       q    Type
REMARK                         _______ _______ _______ _____ _____    ______ ____
ROOT
ATOM      1  C   UNL     1      -0.018   1.503   0.010  0.00  0.00    +0.046 C 
ATOM      2  C   UNL     1       0.002  -0.004   0.002  0.00  0.00    -0.027 A 
ATOM      3  C   UNL     1       0.006  -0.689  -1.198  0.00  0.00    +0.038 A 
ATOM      4  C   UNL     1       0.025  -2.071  -1.206  0.00  0.00    +0.127 A 
ATOM      5  C   UNL     1       0.040  -2.773  -0.014  0.00  0.00    +0.034 A 
ATOM      6  C   UNL     1       0.036  -2.095   1.188  0.00  0.00    +0.025 A 
ATOM      7  C   UNL     1       0.023  -0.706   1.200  0.00  0.00    +0.033 A 
ENDROOT
BRANCH   7   8
ATOM      8  N   UNL     1       0.025  -0.016   2.415  0.00  0.00    -0.324 N 
ATOM      9  C   UNL     1      -1.238   0.331   3.081  0.00  0.00    +0.105 C 
ATOM     10  C   UNL     1      -1.247   1.835   3.368  0.00  0.00    +0.019 C 
ATOM     11  C   UNL     1       0.006   2.207   4.164  0.00  0.00    +0.003 C 
ATOM     12  C   UNL     1       1.253   1.880   3.338  0.00  0.00    +0.025 C 
ATOM     13  C   UNL     1       1.290   0.370   3.054  0.00  0.00    +0.099 C 
BRANCH  13  14
ATOM     14  C   UNL     1       2.457   0.052   2.117  0.00  0.00    +0.178 C 
BRANCH  14  15
ATOM     15  O   UNL     1       2.362   0.865   0.946  0.00  0.00    -0.393 OA
ATOM     16  H   UNL     1       3.071   0.716   0.305  0.00  0.00    +0.209 HD
ENDBRANCH  14  15
ENDBRANCH  13  14
ENDBRANCH   7   8
BRANCH   4  17
ATOM     17  N   UNL     1       0.028  -2.802  -2.493  0.00  0.00    +0.056 N 
ATOM     18  O   UNL     1       0.014  -2.190  -3.536  0.00  0.00    -0.126 OA
ATOM     19  O   UNL     1       0.044  -4.011  -2.502  0.00  0.00    -0.126 OA
ENDBRANCH   4  17
TORSDOF 4
