REMARK  Name = ZINC19795080
REMARK  7 active torsions:
REMARK  status: ('A' for Active; 'I' for Inactive)
REMARK    1  A    between atoms: C_1  and  C_2
REMARK    2  A    between atoms: C_2  and  C_26
REMARK    3  A    between atoms: C_6  and  N_9
REMARK    4  A    between atoms: C_12  and  C_15
REMARK    5  A    between atoms: C_15  and  N_16
REMARK    6  A    between atoms: C_18  and  C_21
REMARK    7  A    between atoms: C_21  and  N_22
REMARK                            x       y       z     vdW  Elec       q    Type
REMARK                         _______ _______ _______ _____ _____    ______ ____
ROOT
ATOM      1  N   UNL     1      -4.832   1.708   3.591  0.00  0.00    +0.382 N 
ATOM      2  C   UNL     1      -5.437   2.248   2.366  0.00  0.00    -0.078 C 
ATOM      3  C   UNL     1      -4.718   1.673   1.144  0.00  0.00    -0.013 C 
ATOM      4  C   UNL     1      -3.234   2.045   1.209  0.00  0.00    +0.007 C 
ATOM      5  C   UNL     1      -2.639   1.512   2.515  0.00  0.00    -0.013 C 
ATOM      6  C   UNL     1      -3.418   2.092   3.698  0.00  0.00    -0.078 C 
ATOM      7  H   UNL     1      -4.878   0.611   3.531  0.00  0.00    -0.081 HD
ENDROOT
BRANCH   1  13
ATOM      8  C   UNL     1      -7.252   1.489   7.101  0.00  0.00    +0.011 C 
ATOM      9  C   UNL     1      -5.784   1.888   7.259  0.00  0.00    -0.036 C 
ATOM     10  C   UNL     1      -5.682   3.407   7.415  0.00  0.00    +0.006 C 
ATOM     11  C   UNL     1      -6.265   4.087   6.175  0.00  0.00    -0.001 C 
ATOM     12  C   UNL     1      -5.482   3.648   4.936  0.00  0.00    -0.015 C 
ATOM     13  C   UNL     1      -5.584   2.130   4.780  0.00  0.00    -0.068 C 
ATOM     14  C   UNL     1      -5.000   1.449   6.020  0.00  0.00    -0.009 C 
ATOM     15  C   UNL     1      -5.200   1.208   8.499  0.00  0.00    +0.011 C 
ENDBRANCH   1  13
BRANCH   4  16
ATOM     16  C   UNL     1      -2.499   1.421   0.021  0.00  0.00    +0.148 C 
BRANCH  16  17
ATOM     17  N   UNL     1      -1.105   1.874   0.017  0.00  0.00    -0.251 N 
ATOM     18  C   UNL     1      -0.013   1.076   0.008  0.00  0.00    +0.135 A 
ATOM     19  C   UNL     1       1.058   1.903   0.002  0.00  0.00    +0.100 A 
ATOM     20  N   UNL     1       0.575   3.151   0.013  0.00  0.00    -0.133 NA
ATOM     21  N   UNL     1      -0.710   3.099   0.024  0.00  0.00    -0.065 NA
BRANCH  19  22
ATOM     22  C   UNL     1       2.510   1.499  -0.013  0.00  0.00    +0.164 C 
BRANCH  22  23
ATOM     23  N   UNL     1       3.001   1.490  -1.393  0.00  0.00    -0.294 N 
ATOM     24  C   UNL     1       4.281   1.157  -1.651  0.00  0.00    +0.297 C 
ATOM     25  O   UNL     1       5.028   0.863  -0.739  0.00  0.00    -0.253 OA
ATOM     26  N   UNL     1       4.732   1.149  -2.921  0.00  0.00    -0.313 N 
ATOM     27  H   UNL     1       2.324   1.756  -2.219  0.00  0.00    +0.151 HD
ATOM     28  H   UNL     1       5.777   0.877  -3.132  0.00  0.00    +0.146 HD
ATOM     29  H   UNL     1       4.055   1.415  -3.747  0.00  0.00    +0.146 HD
ENDBRANCH  22  23
ENDBRANCH  19  22
ENDBRANCH  16  17
ENDBRANCH   4  16
TORSDOF 5
