REMARK  Name = ZINC39012257
REMARK  9 active torsions:
REMARK  status: ('A' for Active; 'I' for Inactive)
REMARK    1  A    between atoms: C_1  and  O_2
REMARK    2  A    between atoms: O_2  and  C_3
REMARK    3  A    between atoms: C_6  and  C_9
REMARK    4  A    between atoms: C_11  and  C_15
REMARK    5  A    between atoms: C_19  and  S_23
REMARK    6  A    between atoms: N_21  and  N_22
REMARK    7  A    between atoms: S_23  and  C_24
REMARK    8  A    between atoms: C_24  and  C_25
REMARK    9  A    between atoms: N_27  and  C_28
REMARK                            x       y       z     vdW  Elec       q    Type
REMARK                         _______ _______ _______ _____ _____    ______ ____
ROOT
ATOM      1  C   UNL     1       4.655  -4.707  -5.665  0.00  0.00    +0.185 C 
ATOM      2  N   UNL     1       5.552  -3.915  -4.782  0.00  0.00    -0.234 NA
ATOM      3  N   UNL     1       6.901  -4.378  -5.120  0.00  0.00    -0.228 NA
ATOM      4  C   UNL     1       6.834  -4.933  -6.487  0.00  0.00    +0.214 C 
ATOM      5  N   UNL     1       5.426  -4.794  -6.933  0.00  0.00    -0.197 NA
ATOM      6  H   UNL     1       5.454  -2.927  -4.960  0.00  0.00    +0.143 HD
ATOM      7  H   UNL     1       7.566  -3.621  -5.068  0.00  0.00    +0.143 HD
ENDROOT
BRANCH   1  10
ATOM      8  C   UNL     1       2.469  -2.502  -4.407  0.00  0.00    +0.091 C 
ATOM      9  C   UNL     1       2.571  -3.835  -4.578  0.00  0.00    +0.034 C 
ATOM     10  C   UNL     1       3.329  -3.977  -5.886  0.00  0.00    +0.187 C 
ATOM     11  N   UNL     1       3.562  -2.581  -6.292  0.00  0.00    -0.176 NA
ATOM     12  N   UNL     1       3.060  -1.845  -5.439  0.00  0.00    -0.154 NA
BRANCH   8  16
ATOM     13  C   UNL     1       0.552  -0.619  -1.109  0.00  0.00    +0.120 A 
ATOM     14  C   UNL     1       1.125   0.153  -2.111  0.00  0.00    +0.046 A 
ATOM     15  C   UNL     1       1.748  -0.455  -3.181  0.00  0.00    +0.013 A 
ATOM     16  C   UNL     1       1.801  -1.845  -3.256  0.00  0.00    +0.002 A 
ATOM     17  C   UNL     1       1.224  -2.618  -2.249  0.00  0.00    +0.013 A 
ATOM     18  C   UNL     1       0.608  -2.004  -1.179  0.00  0.00    +0.046 A 
BRANCH  13  20
ATOM     19  C   UNL     1      -0.081   1.412  -0.048  0.00  0.00    +0.277 C 
ATOM     20  O   UNL     1      -0.060  -0.017  -0.056  0.00  0.00    -0.495 OA
ENDBRANCH  13  20
ENDBRANCH   8  16
ENDBRANCH   1  10
BRANCH   5  21
ATOM     21  N   UNL     1       5.009  -5.944  -7.719  0.00  0.00    -0.264 NA
ATOM     22  H   UNL     1       5.532  -6.003  -8.580  0.00  0.00    +0.137 HD
ATOM     23  H   UNL     1       5.093  -6.796  -7.186  0.00  0.00    +0.137 HD
ENDBRANCH   5  21
BRANCH   4  24
ATOM     24  S   UNL     1       7.934  -4.003  -7.589  0.00  0.00    -0.115 S 
BRANCH  24  25
ATOM     25  C   UNL     1       7.325  -2.297  -7.481  0.00  0.00    +0.168 C 
BRANCH  25  26
ATOM     26  C   UNL     1       8.163  -1.408  -8.362  0.00  0.00    +0.227 C 
ATOM     27  O   UNL     1       9.081  -1.877  -9.000  0.00  0.00    -0.275 OA
ATOM     28  N   UNL     1       7.892  -0.090  -8.441  0.00  0.00    -0.285 N 
ATOM     29  H   UNL     1       7.118   0.275  -7.985  0.00  0.00    +0.155 HD
BRANCH  28  30
ATOM     30  C   UNL     1       8.729   0.753  -9.182  0.00  0.00    +0.035 A 
ATOM     31  C   UNL     1       8.966   2.052  -8.751  0.00  0.00    +0.025 A 
ATOM     32  C   UNL     1       9.792   2.882  -9.483  0.00  0.00    +0.023 A 
ATOM     33  C   UNL     1      10.383   2.421 -10.646  0.00  0.00    +0.059 A 
ATOM     34  C   UNL     1      10.148   1.127 -11.079  0.00  0.00    +0.061 A 
ATOM     35  C   UNL     1       9.327   0.291 -10.347  0.00  0.00    +0.044 A 
ATOM     36 CL   UNL     1      10.890   0.553 -12.540  0.00  0.00    -0.082 Cl
ATOM     37 CL   UNL     1      11.421   3.468 -11.564  0.00  0.00    -0.082 Cl
ENDBRANCH  28  30
ENDBRANCH  25  26
ENDBRANCH  24  25
ENDBRANCH   4  24
TORSDOF 8
