REMARK  Name = ZINC64796023
REMARK  8 active torsions:
REMARK  status: ('A' for Active; 'I' for Inactive)
REMARK    1  A    between atoms: C_1  and  C_2
REMARK    2  A    between atoms: C_2  and  O_3
REMARK    3  A    between atoms: O_3  and  C_4
REMARK    4  A    between atoms: C_6  and  C_11
REMARK    5  A    between atoms: C_9  and  O_10
REMARK    6  A    between atoms: C_20  and  C_29
REMARK    7  A    between atoms: C_21  and  C_22
REMARK    8  A    between atoms: C_25  and  C_28
REMARK                            x       y       z     vdW  Elec       q    Type
REMARK                         _______ _______ _______ _____ _____    ______ ____
ROOT
ATOM      1  C   UNL     1       0.654  -4.954  -0.018  0.00  0.00    +0.066 C 
ATOM      2  C   UNL     1       0.635  -5.857   1.221  0.00  0.00    +0.109 C 
ATOM      3  C   UNL     1       1.565  -7.023   1.040  0.00  0.00    +0.218 C 
ATOM      4  O   UNL     1       2.208  -7.406   1.995  0.00  0.00    -0.275 OA
ATOM      5  N   UNL     1       1.717  -7.660  -0.133  0.00  0.00    -0.284 N 
ATOM      6  C   UNL     1       1.127  -7.099  -1.302  0.00  0.00    +0.053 A 
ATOM      7  C   UNL     1       0.623  -5.827  -1.237  0.00  0.00    +0.020 A 
ATOM      8  S   UNL     1       0.006  -5.497  -2.748  0.00  0.00    -0.084 S 
ATOM      9  C   UNL     1       0.420  -7.028  -3.563  0.00  0.00    +0.110 A 
ATOM     10  C   UNL     1       1.039  -7.748  -2.532  0.00  0.00    +0.025 A 
ATOM     11  H   UNL     1       2.220  -8.488  -0.184  0.00  0.00    +0.155 HD
ENDROOT
BRANCH  10  12
ATOM     12  C   UNL     1       1.571  -9.114  -2.738  0.00  0.00    -0.015 A 
ATOM     13  C   UNL     1       2.941  -9.356  -2.633  0.00  0.00    +0.009 A 
ATOM     14  C   UNL     1       3.430 -10.631  -2.826  0.00  0.00    +0.004 A 
ATOM     15  C   UNL     1       2.566 -11.670  -3.123  0.00  0.00    -0.050 A 
ATOM     16  C   UNL     1       1.206 -11.437  -3.228  0.00  0.00    +0.004 A 
ATOM     17  C   UNL     1       0.704 -10.166  -3.032  0.00  0.00    +0.009 A 
ATOM     18  C   UNL     1       3.107 -13.060  -3.333  0.00  0.00    +0.044 C 
ENDBRANCH  10  12
BRANCH   1  21
ATOM     19  C   UNL     1      -1.498  -1.849   0.006  0.00  0.00    +0.162 A 
ATOM     20  C   UNL     1      -0.389  -2.680  -0.003  0.00  0.00    +0.053 A 
ATOM     21  C   UNL     1      -0.553  -4.052  -0.008  0.00  0.00    -0.035 A 
ATOM     22  C   UNL     1      -1.823  -4.600  -0.005  0.00  0.00    +0.008 A 
ATOM     23  C   UNL     1      -2.934  -3.777   0.004  0.00  0.00    +0.049 A 
ATOM     24  C   UNL     1      -2.776  -2.400   0.016  0.00  0.00    +0.158 A 
BRANCH  24  25
ATOM     25  O   UNL     1      -3.868  -1.589   0.030  0.00  0.00    -0.503 OA
ATOM     26  H   UNL     1      -4.192  -1.350  -0.849  0.00  0.00    +0.292 HD
ENDBRANCH  24  25
BRANCH  19  27
ATOM     27  O   UNL     1      -1.339  -0.499   0.012  0.00  0.00    -0.489 OA
BRANCH  27  29
ATOM     28  C   UNL     1      -0.019   1.526   0.010  0.00  0.00    +0.048 C 
ATOM     29  C   UNL     1       0.002  -0.004   0.002  0.00  0.00    +0.226 C 
ENDBRANCH  27  29
ENDBRANCH  19  27
ENDBRANCH   1  21
BRANCH   9  30
ATOM     30  C   UNL     1       0.185  -7.415  -4.902  0.00  0.00    +0.394 C 
ATOM     31  O   UNL     1      -0.378  -6.646  -5.673  0.00  0.00    -0.240 OA
ATOM     32  O   UNL     1       0.543  -8.521  -5.292  0.00  0.00    -0.240 OA
ENDBRANCH   9  30
TORSDOF 6
