REMARK  Name = ZINC40235309
REMARK  8 active torsions:
REMARK  status: ('A' for Active; 'I' for Inactive)
REMARK    1  A    between atoms: C_1  and  C_2
REMARK    2  A    between atoms: C_2  and  N_3
REMARK    3  A    between atoms: N_3  and  C_4
REMARK    4  A    between atoms: N_3  and  C_11
REMARK    5  A    between atoms: C_8  and  C_10
REMARK    6  A    between atoms: C_14  and  N_19
REMARK    7  A    between atoms: C_16  and  C_17
REMARK    8  A    between atoms: C_17  and  O_18
REMARK                            x       y       z     vdW  Elec       q    Type
REMARK                         _______ _______ _______ _____ _____    ______ ____
ROOT
ATOM      1  C   UNL     1       2.090  -0.703   1.140  0.00  0.00    +0.039 A 
ATOM      2  C   UNL     1       2.966   0.323   1.472  0.00  0.00    +0.026 A 
ATOM      3  C   UNL     1       4.329   0.108   1.423  0.00  0.00    +0.034 A 
ATOM      4  C   UNL     1       4.823  -1.127   1.042  0.00  0.00    +0.127 A 
ATOM      5  C   UNL     1       3.954  -2.150   0.711  0.00  0.00    +0.040 A 
ATOM      6  C   UNL     1       2.590  -1.944   0.764  0.00  0.00    +0.001 A 
ENDROOT
BRANCH   4   7
ATOM      7  N   UNL     1       6.285  -1.353   0.990  0.00  0.00    +0.056 N 
ATOM      8  O   UNL     1       7.046  -0.459   1.279  0.00  0.00    -0.126 OA
ATOM      9  O   UNL     1       6.718  -2.432   0.657  0.00  0.00    -0.126 OA
ENDBRANCH   4   7
BRANCH   1  10
ATOM     10  N   UNL     1       0.711  -0.489   1.189  0.00  0.00    -0.300 N 
BRANCH  10  11
ATOM     11  C   UNL     1       0.007  -0.738   2.370  0.00  0.00    +0.034 A 
ATOM     12  C   UNL     1       0.678  -1.193   3.498  0.00  0.00    +0.023 A 
ATOM     13  C   UNL     1      -0.021  -1.438   4.663  0.00  0.00    +0.002 A 
ATOM     14  C   UNL     1      -1.388  -1.231   4.708  0.00  0.00    +0.003 A 
ATOM     15  C   UNL     1      -2.059  -0.778   3.587  0.00  0.00    -0.049 A 
ATOM     16  C   UNL     1      -1.365  -0.526   2.420  0.00  0.00    +0.026 A 
ATOM     17  C   UNL     1      -3.548  -0.554   3.641  0.00  0.00    +0.044 C 
ENDBRANCH  10  11
BRANCH  10  19
ATOM     18  C   UNL     1      -0.019   1.526   0.010  0.00  0.00    +0.024 C 
ATOM     19  C   UNL     1       0.002  -0.004   0.002  0.00  0.00    +0.107 C 
ENDBRANCH  10  19
ENDBRANCH   1  10
BRANCH   6  20
ATOM     20  C   UNL     1       1.643  -3.062   0.409  0.00  0.00    +0.193 C 
BRANCH  20  21
ATOM     21  O   UNL     1       2.393  -4.227   0.060  0.00  0.00    -0.390 OA
ATOM     22  H   UNL     1       1.847  -4.988  -0.181  0.00  0.00    +0.210 HD
ENDBRANCH  20  21
ENDBRANCH   6  20
TORSDOF 6
