REMARK  Name = ZINC09520497
REMARK  9 active torsions:
REMARK  status: ('A' for Active; 'I' for Inactive)
REMARK    1  A    between atoms: C_1  and  C_2
REMARK    2  A    between atoms: C_2  and  O_3
REMARK    3  A    between atoms: O_3  and  C_4
REMARK    4  A    between atoms: C_4  and  C_6
REMARK    5  A    between atoms: C_10  and  N_11
REMARK    6  A    between atoms: C_12  and  C_14
REMARK    7  A    between atoms: C_14  and  C_16
REMARK    8  A    between atoms: C_14  and  S_17
REMARK    9  A    between atoms: S_17  and  C_18
REMARK                            x       y       z     vdW  Elec       q    Type
REMARK                         _______ _______ _______ _____ _____    ______ ____
ROOT
ATOM      1  N   UNL     1      -0.295  -5.386   0.519  0.00  0.00    -0.278 N 
ATOM      2  C   UNL     1       0.634  -4.507   0.095  0.00  0.00    +0.231 C 
ATOM      3  O   UNL     1       1.746  -4.893  -0.197  0.00  0.00    -0.274 OA
ATOM      4  H   UNL     1      -1.184  -5.077   0.752  0.00  0.00    +0.155 HD
ENDROOT
BRANCH   1   9
ATOM      5  C   UNL     1      -0.789  -7.777   1.041  0.00  0.00    +0.091 A 
ATOM      6  C   UNL     1      -0.214  -9.116   1.053  0.00  0.00    -0.021 A 
ATOM      7  C   UNL     1       1.077  -9.185   0.662  0.00  0.00    -0.004 A 
ATOM      8  S   UNL     1       1.524  -7.516   0.269  0.00  0.00    -0.077 S 
ATOM      9  C   UNL     1       0.021  -6.732   0.623  0.00  0.00    +0.086 A 
ATOM     10  C   UNL     1       1.948 -10.400   0.591  0.00  0.00    +0.043 C 
ATOM     11  C   UNL     1       1.198 -11.518  -0.147  0.00  0.00    +0.005 C 
ATOM     12  C   UNL     1       0.407 -12.325   0.878  0.00  0.00    +0.001 C 
ATOM     13  C   UNL     1      -0.066 -11.417   2.010  0.00  0.00    +0.005 C 
ATOM     14  C   UNL     1      -1.009 -10.345   1.474  0.00  0.00    +0.037 C 
BRANCH   5  15
ATOM     15  C   UNL     1      -2.175  -7.544   1.453  0.00  0.00    +0.342 C 
ATOM     16  O   UNL     1      -3.070  -7.597   0.631  0.00  0.00    -0.245 OA
BRANCH  15  17
ATOM     17  O   UNL     1      -2.458  -7.271   2.743  0.00  0.00    -0.461 OA
BRANCH  17  19
ATOM     18  C   UNL     1      -3.978  -6.758   4.575  0.00  0.00    +0.048 C 
ATOM     19  C   UNL     1      -3.853  -7.051   3.079  0.00  0.00    +0.229 C 
ENDBRANCH  17  19
ENDBRANCH  15  17
ENDBRANCH   5  15
ENDBRANCH   1   9
BRANCH   2  20
ATOM     20  C   UNL     1       0.292  -3.044  -0.018  0.00  0.00    +0.137 C 
ATOM     21  C   UNL     1      -0.479  -2.799  -1.317  0.00  0.00    +0.029 C 
BRANCH  20  22
ATOM     22  S   UNL     1       1.818  -2.064  -0.026  0.00  0.00    -0.073 S 
BRANCH  22  23
ATOM     23  C   UNL     1       1.253  -0.395  -0.012  0.00  0.00    +0.198 A 
ATOM     24  N   UNL     1       0.002  -0.004   0.002  0.00  0.00    -0.120 NA
ATOM     25  N   UNL     1      -0.017   1.397   0.010  0.00  0.00    -0.109 NA
ATOM     26  C   UNL     1       1.224   1.819   0.000  0.00  0.00    +0.237 A 
ATOM     27  N   UNL     1       2.044   0.724  -0.013  0.00  0.00    -0.260 N 
ATOM     28  C   UNL     1       3.421   0.867  -0.022  0.00  0.00    +0.037 A 
ATOM     29  C   UNL     1       3.960   2.093  -0.026  0.00  0.00    +0.037 A 
ATOM     30  C   UNL     1       3.110   3.236  -0.014  0.00  0.00    +0.256 A 
ATOM     31  O   UNL     1       3.597   4.352  -0.016  0.00  0.00    -0.267 OA
ATOM     32  N   UNL     1       1.773   3.090   0.002  0.00  0.00    -0.291 N 
ATOM     33  H   UNL     1       1.197   3.870   0.013  0.00  0.00    +0.172 HD
ATOM     34  C   UNL     1       5.447   2.334  -0.054  0.00  0.00    +0.042 C 
ATOM     35  C   UNL     1       6.206   1.079   0.370  0.00  0.00    +0.005 C 
ATOM     36  C   UNL     1       5.680  -0.102  -0.456  0.00  0.00    +0.006 C 
ATOM     37  C   UNL     1       4.247  -0.392  -0.014  0.00  0.00    +0.054 C 
ENDBRANCH  22  23
ENDBRANCH  20  22
ENDBRANCH   2  20
TORSDOF 7
