REMARK  Name = ZINC05631395
REMARK  6 active torsions:
REMARK  status: ('A' for Active; 'I' for Inactive)
REMARK    1  A    between atoms: C_2  and  C_3
REMARK    2  A    between atoms: C_3  and  C_5
REMARK    3  A    between atoms: C_3  and  N_21
REMARK    4  A    between atoms: C_5  and  C_7
REMARK    5  A    between atoms: C_5  and  N_14
REMARK    6  A    between atoms: N_14  and  C_15
REMARK                            x       y       z     vdW  Elec       q    Type
REMARK                         _______ _______ _______ _____ _____    ______ ____
ROOT
ATOM      1  C   UNL     1       2.330   5.353   0.009  0.00  0.00    +0.129 C 
ENDROOT
BRANCH   1   2
ATOM      2  C   UNL     1       2.212   5.845   1.428  0.00  0.00    -0.025 A 
ATOM      3  C   UNL     1       2.910   5.213   2.440  0.00  0.00    +0.007 A 
ATOM      4  C   UNL     1       2.806   5.668   3.741  0.00  0.00    +0.020 A 
ATOM      5  C   UNL     1       1.994   6.749   4.032  0.00  0.00    +0.041 A 
ATOM      6  C   UNL     1       1.291   7.379   3.020  0.00  0.00    +0.020 A 
ATOM      7  C   UNL     1       1.401   6.926   1.719  0.00  0.00    +0.007 A 
ATOM      8 CL   UNL     1       1.857   7.317   5.667  0.00  0.00    -0.084 Cl
ENDBRANCH   1   2
BRANCH   1   9
ATOM      9  N   UNL     1       2.353   3.888   0.001  0.00  0.00    -0.335 N 
ATOM     10  H   UNL     1       3.201   3.416  -0.009  0.00  0.00    +0.147 HD
BRANCH   9  11
ATOM     11  C   UNL     1       1.155   3.171   0.008  0.00  0.00    +0.028 A 
ATOM     12  C   UNL     1       1.174   1.782   0.000  0.00  0.00    +0.023 A 
ATOM     13  C   UNL     1      -0.013   1.076   0.008  0.00  0.00    +0.002 A 
ATOM     14  C   UNL     1      -1.220   1.750   0.017  0.00  0.00    +0.000 A 
ATOM     15  C   UNL     1      -1.243   3.133   0.031  0.00  0.00    +0.002 A 
ATOM     16  C   UNL     1      -0.060   3.845   0.023  0.00  0.00    +0.023 A 
ENDBRANCH   9  11
ENDBRANCH   1   9
BRANCH   1  17
ATOM     17  C   UNL     1       3.624   5.886  -0.610  0.00  0.00    +0.156 C 
BRANCH  17  18
ATOM     18  N   UNL     1       3.601   7.351  -0.602  0.00  0.00    -0.235 N 
ATOM     19  C   UNL     1       4.496   8.184   0.026  0.00  0.00    +0.090 A 
ATOM     20  C   UNL     1       5.631   7.974   0.803  0.00  0.00    +0.029 A 
ATOM     21  C   UNL     1       6.324   9.044   1.296  0.00  0.00    +0.002 A 
ATOM     22  C   UNL     1       5.906  10.341   1.028  0.00  0.00    +0.002 A 
ATOM     23  C   UNL     1       4.796  10.574   0.270  0.00  0.00    +0.032 A 
ATOM     24  C   UNL     1       4.068   9.494  -0.248  0.00  0.00    +0.113 A 
ATOM     25  N   UNL     1       2.959   9.411  -1.011  0.00  0.00    -0.129 NA
ATOM     26  N   UNL     1       2.665   8.180  -1.238  0.00  0.00    -0.064 NA
ENDBRANCH  17  18
BRANCH  17  28
ATOM     27  C   UNL     1       4.767   4.658  -2.383  0.00  0.00    +0.006 C 
ATOM     28  C   UNL     1       3.743   5.394  -2.029  0.00  0.00    -0.006 C 
ENDBRANCH  17  28
ENDBRANCH   1  17
TORSDOF 6
