REMARK  Name = ZINC04985932
REMARK  7 active torsions:
REMARK  status: ('A' for Active; 'I' for Inactive)
REMARK    1  A    between atoms: C_1  and  C_2
REMARK    2  A    between atoms: C_2  and  C_4
REMARK    3  A    between atoms: C_2  and  C_13
REMARK    4  A    between atoms: C_7  and  N_10
REMARK    5  A    between atoms: C_13  and  O_15
REMARK    6  A    between atoms: O_15  and  N_16
REMARK    7  A    between atoms: C_17  and  C_18
REMARK                            x       y       z     vdW  Elec       q    Type
REMARK                         _______ _______ _______ _____ _____    ______ ____
ROOT
ATOM      1  C   UNL     1       0.731  -0.503   1.223  0.00  0.00    +0.343 C 
ATOM      2  O   UNL     1       0.159  -1.212   2.023  0.00  0.00    -0.248 OA
ENDROOT
BRANCH   1   4
ATOM      3  C   UNL     1      -0.019   1.526   0.010  0.00  0.00    +0.024 C 
ATOM      4  C   UNL     1       0.002  -0.004   0.002  0.00  0.00    +0.127 C 
BRANCH   4   5
ATOM      5  C   UNL     1      -1.412  -0.526   0.013  0.00  0.00    -0.034 A 
ATOM      6  C   UNL     1      -2.259  -0.204   1.056  0.00  0.00    +0.006 A 
ATOM      7  C   UNL     1      -3.556  -0.683   1.066  0.00  0.00    +0.033 A 
ATOM      8  C   UNL     1      -4.006  -1.482   0.032  0.00  0.00    +0.126 A 
ATOM      9  C   UNL     1      -3.159  -1.803  -1.012  0.00  0.00    +0.033 A 
ATOM     10  C   UNL     1      -1.863  -1.321  -1.024  0.00  0.00    +0.006 A 
BRANCH   8  11
ATOM     11  N   UNL     1      -5.394  -1.995   0.043  0.00  0.00    +0.056 N 
ATOM     12  O   UNL     1      -6.135  -1.715   0.957  0.00  0.00    -0.126 OA
ATOM     13  O   UNL     1      -5.787  -2.695  -0.861  0.00  0.00    -0.126 OA
ENDBRANCH   8  11
ENDBRANCH   4   5
ENDBRANCH   1   4
BRANCH   1  14
ATOM     14  O   UNL     1       2.012  -0.163   1.425  0.00  0.00    -0.315 OA
BRANCH  14  15
ATOM     15  N   UNL     1       2.571  -0.701   2.609  0.00  0.00    -0.059 NA
ATOM     16  C   UNL     1       3.809  -0.445   2.919  0.00  0.00    +0.163 C 
ATOM     17  N   UNL     1       4.578   0.353   2.092  0.00  0.00    -0.340 N 
ATOM     18  H   UNL     1       4.195   0.722   1.281  0.00  0.00    +0.144 HD
ATOM     19  H   UNL     1       5.501   0.545   2.324  0.00  0.00    +0.144 HD
BRANCH  16  20
ATOM     20  C   UNL     1       4.394  -1.007   4.158  0.00  0.00    +0.018 A 
ATOM     21  C   UNL     1       3.623  -1.817   4.991  0.00  0.00    +0.011 A 
ATOM     22  C   UNL     1       4.173  -2.339   6.144  0.00  0.00    +0.001 A 
ATOM     23  C   UNL     1       5.487  -2.060   6.474  0.00  0.00    +0.000 A 
ATOM     24  C   UNL     1       6.257  -1.257   5.651  0.00  0.00    +0.001 A 
ATOM     25  C   UNL     1       5.720  -0.734   4.493  0.00  0.00    +0.011 A 
ENDBRANCH  16  20
ENDBRANCH  14  15
ENDBRANCH   1  14
TORSDOF 6
