REMARK  Name = ZINC20421433
REMARK  11 active torsions:
REMARK  status: ('A' for Active; 'I' for Inactive)
REMARK    1  A    between atoms: C_1  and  C_2
REMARK    2  A    between atoms: C_2  and  C_3
REMARK    3  A    between atoms: C_2  and  N_4
REMARK    4  A    between atoms: N_7  and  N_8
REMARK    5  A    between atoms: C_11  and  N_20
REMARK    6  A    between atoms: C_12  and  C_18
REMARK    7  A    between atoms: C_13  and  N_15
REMARK    8  A    between atoms: N_15  and  C_16
REMARK    9  A    between atoms: N_15  and  C_17
REMARK   10  A    between atoms: N_20  and  C_21
REMARK   11  A    between atoms: N_20  and  C_22
REMARK                            x       y       z     vdW  Elec       q    Type
REMARK                         _______ _______ _______ _____ _____    ______ ____
ROOT
ATOM      1  N   UNL     1      -4.522   1.016  -0.642  0.00  0.00    -0.247 N 
ATOM      2  C   UNL     1      -3.544   0.055  -0.436  0.00  0.00    +0.139 A 
ATOM      3  C   UNL     1      -3.908  -1.283  -0.360  0.00  0.00    +0.069 A 
ATOM      4  C   UNL     1      -2.927  -2.245  -0.154  0.00  0.00    +0.053 A 
ATOM      5  C   UNL     1      -1.587  -1.818  -0.029  0.00  0.00    +0.113 A 
ATOM      6  C   UNL     1      -1.304  -0.445  -0.118  0.00  0.00    +0.142 A 
ATOM      7  N   UNL     1      -2.278   0.431  -0.310  0.00  0.00    -0.215 NA
ATOM      8  H   UNL     1      -5.575   0.715  -0.744  0.00  0.00    +0.172 HD
ENDROOT
BRANCH   1  12
ATOM      9  N   UNL     1      -6.410   2.935  -1.046  0.00  0.00    -0.296 N 
ATOM     10  C   UNL     1      -5.120   3.303  -0.921  0.00  0.00    +0.316 C 
ATOM     11  O   UNL     1      -4.813   4.478  -0.990  0.00  0.00    -0.251 OA
ATOM     12  N   UNL     1      -4.169   2.369  -0.721  0.00  0.00    -0.219 N 
ATOM     13  H   UNL     1      -6.687   1.872  -0.984  0.00  0.00    +0.151 HD
ATOM     14  H   UNL     1      -3.115   2.670  -0.620  0.00  0.00    +0.174 HD
BRANCH   9  16
ATOM     15  C   UNL     1      -7.542   4.266  -2.757  0.00  0.00    +0.027 C 
ATOM     16  C   UNL     1      -7.444   3.950  -1.264  0.00  0.00    +0.068 C 
ATOM     17  C   UNL     1      -8.790   3.423  -0.764  0.00  0.00    +0.027 C 
ENDBRANCH   9  16
ENDBRANCH   1  12
BRANCH   6  18
ATOM     18  N   UNL     1       0.002  -0.004   0.002  0.00  0.00    -0.320 N 
ATOM     19  C   UNL     1       0.447   0.665  -1.228  0.00  0.00    +0.130 C 
ATOM     20  C   UNL     1       0.155   0.878   1.167  0.00  0.00    +0.130 C 
ENDBRANCH   6  18
BRANCH   4  21
ATOM     21  N   UNL     1      -3.255  -3.590  -0.072  0.00  0.00    -0.335 N 
ATOM     22  C   UNL     1      -4.184  -3.839   1.038  0.00  0.00    +0.129 C 
ATOM     23  C   UNL     1      -3.811  -4.074  -1.343  0.00  0.00    +0.129 C 
ENDBRANCH   4  21
BRANCH   5  24
ATOM     24  C   UNL     1      -0.537  -2.767   0.185  0.00  0.00    +0.104 C 
ATOM     25  N   UNL     1       0.297  -3.519   0.355  0.00  0.00    -0.191 NA
ENDBRANCH   5  24
TORSDOF 5
