REMARK  Name = ZINC67348582
REMARK  4 active torsions:
REMARK  status: ('A' for Active; 'I' for Inactive)
REMARK    1  A    between atoms: C_1  and  C_2
REMARK    2  A    between atoms: C_5  and  S_8
REMARK    3  A    between atoms: N_6  and  N_7
REMARK    4  A    between atoms: S_8  and  C_9
REMARK                            x       y       z     vdW  Elec       q    Type
REMARK                         _______ _______ _______ _____ _____    ______ ____
ROOT
ATOM      1  C   UNL     1      -0.018   1.503   0.010  0.00  0.00    +0.090 C 
ATOM      2  C   UNL     1       0.002  -0.004   0.002  0.00  0.00    +0.148 A 
ATOM      3  N   UNL     1       0.008  -0.771  -1.052  0.00  0.00    -0.132 NA
ATOM      4  N   UNL     1       0.027  -2.006  -0.699  0.00  0.00    -0.120 NA
ATOM      5  C   UNL     1       0.034  -2.095   0.611  0.00  0.00    +0.216 A 
ATOM      6  N   UNL     1       0.024  -0.820   1.098  0.00  0.00    -0.228 N 
ENDROOT
BRANCH   6   7
ATOM      7  N   UNL     1       0.030  -0.438   2.410  0.00  0.00    -0.295 N 
ATOM      8  H   UNL     1      -0.910  -0.350   2.766  0.00  0.00    +0.163 HD
ATOM      9  H   UNL     1       0.571  -1.080   2.970  0.00  0.00    +0.163 HD
ENDBRANCH   6   7
BRANCH   5  10
ATOM     10  S   UNL     1       0.058  -3.579   1.560  0.00  0.00    -0.009 S 
BRANCH  10  11
ATOM     11  C   UNL     1       0.071  -4.859   0.349  0.00  0.00    +0.196 A 
ATOM     12  N   UNL     1       0.067  -4.534  -0.935  0.00  0.00    -0.229 NA
ATOM     13  C   UNL     1       0.076  -5.470  -1.870  0.00  0.00    +0.130 A 
ATOM     14  C   UNL     1       0.091  -6.804  -1.490  0.00  0.00    +0.054 A 
ATOM     15  C   UNL     1       0.095  -7.109  -0.137  0.00  0.00    +0.130 A 
ATOM     16  N   UNL     1       0.090  -6.124   0.745  0.00  0.00    -0.229 NA
ATOM     17 BR   UNL     1       0.104  -8.178  -2.790  0.00  0.00    -0.047 Br
ENDBRANCH  10  11
ENDBRANCH   5  10
TORSDOF 3
