REMARK  Name = ZINC66675525
REMARK  10 active torsions:
REMARK  status: ('A' for Active; 'I' for Inactive)
REMARK    1  A    between atoms: C_1  and  C_2
REMARK    2  A    between atoms: C_4  and  N_16
REMARK    3  A    between atoms: C_7  and  O_8
REMARK    4  A    between atoms: O_8  and  C_9
REMARK    5  A    between atoms: C_9  and  C_11
REMARK    6  A    between atoms: C_9  and  C_12
REMARK    7  A    between atoms: C_12  and  C_13
REMARK    8  A    between atoms: C_13  and  C_14
REMARK    9  A    between atoms: C_13  and  C_15
REMARK   10  A    between atoms: C_17  and  C_19
REMARK                            x       y       z     vdW  Elec       q    Type
REMARK                         _______ _______ _______ _____ _____    ______ ____
ROOT
ATOM      1  N   UNL     1       0.792  -0.793  -1.934  0.00  0.00    -0.285 N 
ATOM      2  C   UNL     1       0.911  -0.226  -3.151  0.00  0.00    +0.222 C 
ATOM      3  O   UNL     1       0.850   0.980  -3.266  0.00  0.00    -0.275 OA
ATOM      4  H   UNL     1       0.773  -1.759  -1.849  0.00  0.00    +0.155 HD
ENDROOT
BRANCH   2   5
ATOM      5  C   UNL     1       1.120  -1.090  -4.368  0.00  0.00    +0.093 C 
ATOM      6  C   UNL     1       1.224  -0.204  -5.611  0.00  0.00    +0.016 C 
ATOM      7  C   UNL     1       1.404  -1.082  -6.852  0.00  0.00    +0.020 C 
ATOM      8  C   UNL     1       2.702  -1.885  -6.720  0.00  0.00    +0.109 C 
ATOM      9  N   UNL     1       2.671  -2.629  -5.453  0.00  0.00    -0.285 N 
ATOM     10  C   UNL     1       2.414  -1.894  -4.208  0.00  0.00    +0.122 C 
ATOM     11  C   UNL     1       2.875  -3.961  -5.434  0.00  0.00    +0.300 C 
ATOM     12  O   UNL     1       2.751  -4.580  -4.395  0.00  0.00    -0.253 OA
ATOM     13  N   UNL     1       3.216  -4.607  -6.567  0.00  0.00    -0.313 N 
ATOM     14  H   UNL     1       3.388  -4.105  -7.379  0.00  0.00    +0.146 HD
ATOM     15  H   UNL     1       3.288  -5.574  -6.571  0.00  0.00    +0.146 HD
ENDBRANCH   2   5
BRANCH   1  19
ATOM     16  C   UNL     1      -0.891   3.287   0.234  0.00  0.00    +0.047 C 
ATOM     17  C   UNL     1      -0.116   1.996   0.286  0.00  0.00    -0.007 A 
ATOM     18  C   UNL     1      -0.020   1.202  -0.840  0.00  0.00    +0.030 A 
ATOM     19  C   UNL     1       0.695   0.013  -0.792  0.00  0.00    +0.034 A 
ATOM     20  C   UNL     1       1.313  -0.378   0.389  0.00  0.00    +0.027 A 
ATOM     21  C   UNL     1       1.216   0.416   1.514  0.00  0.00    +0.048 A 
ATOM     22  C   UNL     1       0.506   1.607   1.464  0.00  0.00    +0.124 A 
BRANCH  22  23
ATOM     23  O   UNL     1       0.416   2.392   2.571  0.00  0.00    -0.489 OA
BRANCH  23  24
ATOM     24  C   UNL     1       1.041   1.908   3.761  0.00  0.00    +0.171 C 
ATOM     25  C   UNL     1       2.530   2.260   3.734  0.00  0.00    +0.052 C 
BRANCH  24  26
ATOM     26  C   UNL     1       0.385   2.557   4.982  0.00  0.00    +0.047 C 
BRANCH  26  27
ATOM     27  C   UNL     1      -1.073   2.104   5.078  0.00  0.00    -0.014 C 
ATOM     28  C   UNL     1      -1.123   0.598   5.344  0.00  0.00    +0.007 C 
ATOM     29  C   UNL     1      -1.764   2.848   6.223  0.00  0.00    +0.007 C 
ENDBRANCH  26  27
ENDBRANCH  24  26
ENDBRANCH  23  24
ENDBRANCH  22  23
ENDBRANCH   1  19
TORSDOF 6
