REMARK  Name = ZINC37943262
REMARK  5 active torsions:
REMARK  status: ('A' for Active; 'I' for Inactive)
REMARK    1  A    between atoms: C_2  and  C_11
REMARK    2  A    between atoms: C_11  and  C_13
REMARK    3  A    between atoms: C_11  and  N_16
REMARK    4  A    between atoms: N_16  and  C_17
REMARK    5  A    between atoms: C_17  and  C_18
REMARK                            x       y       z     vdW  Elec       q    Type
REMARK                         _______ _______ _______ _____ _____    ______ ____
ROOT
ATOM      1  C   UNL     1       1.147   3.597   0.010  0.00  0.00    +0.047 C 
ENDROOT
BRANCH   1   3
ATOM      2  C   UNL     1      -0.017   1.381   0.010  0.00  0.00    +0.052 A 
ATOM      3  C   UNL     1       1.171   2.090   0.002  0.00  0.00    -0.048 A 
ATOM      4  C   UNL     1       2.379   1.419  -0.013  0.00  0.00    +0.026 A 
ATOM      5  C   UNL     1       2.406   0.036  -0.021  0.00  0.00    +0.087 A 
ATOM      6  C   UNL     1       1.219  -0.680  -0.014  0.00  0.00    +0.184 A 
ATOM      7  C   UNL     1       0.002  -0.004   0.002  0.00  0.00    +0.168 A 
ATOM      8  O   UNL     1      -1.007  -0.923   0.006  0.00  0.00    -0.453 OA
ATOM      9  C   UNL     1      -0.404  -2.159  -0.419  0.00  0.00    +0.466 C 
ATOM     10  O   UNL     1       0.973  -2.023  -0.020  0.00  0.00    -0.451 OA
ATOM     11 CL   UNL     1       3.926  -0.802  -0.041  0.00  0.00    -0.080 Cl
ENDBRANCH   1   3
BRANCH   1  12
ATOM     12  C   UNL     1       1.399   4.095   1.410  0.00  0.00    +0.201 C 
ATOM     13  O   UNL     1       2.354   4.807   1.637  0.00  0.00    -0.277 OA
ATOM     14  N   UNL     1       0.562   3.751   2.409  0.00  0.00    -0.330 N 
ATOM     15  H   UNL     1      -0.202   3.182   2.227  0.00  0.00    +0.145 HD
ATOM     16  H   UNL     1       0.724   4.072   3.310  0.00  0.00    +0.145 HD
ENDBRANCH   1  12
BRANCH   1  17
ATOM     17  N   UNL     1       2.191   4.108  -0.887  0.00  0.00    +0.391 N 
ATOM     18  H   UNL     1       3.099   3.853  -0.527  0.00  0.00    -0.084 HD
ATOM     19  H   UNL     1       2.070   3.708  -1.806  0.00  0.00    -0.084 HD
BRANCH  17  20
ATOM     20  C   UNL     1       2.091   5.571  -0.972  0.00  0.00    -0.049 C 
BRANCH  20  21
ATOM     21  C   UNL     1       3.179   6.103  -1.907  0.00  0.00    +0.101 C 
ATOM     22  C   UNL     1       3.113   7.649  -1.983  0.00  0.00    +0.032 C 
ATOM     23  C   UNL     1       4.575   7.987  -2.385  0.00  0.00    +0.030 C 
ATOM     24  C   UNL     1       5.378   6.891  -1.651  0.00  0.00    +0.160 C 
ATOM     25  O   UNL     1       4.481   5.807  -1.377  0.00  0.00    -0.378 OA
ENDBRANCH  20  21
ENDBRANCH  17  20
ENDBRANCH   1  17
TORSDOF 5
