REMARK  Name = ZINC05385323
REMARK  6 active torsions:
REMARK  status: ('A' for Active; 'I' for Inactive)
REMARK    1  A    between atoms: C_1  and  C_2
REMARK    2  A    between atoms: C_3  and  C_21
REMARK    3  A    between atoms: C_4  and  C_12
REMARK    4  A    between atoms: C_5  and  C_9
REMARK    5  A    between atoms: C_6  and  C_8
REMARK    6  A    between atoms: C_17  and  N_18
REMARK                            x       y       z     vdW  Elec       q    Type
REMARK                         _______ _______ _______ _____ _____    ______ ____
ROOT
ATOM      1  C   UNL     1      -5.117   3.756  -0.829  0.00  0.00    +0.061 C 
ATOM      2  C   UNL     1      -3.786   3.224  -0.362  0.00  0.00    +0.029 C 
ATOM      3  C   UNL     1      -2.782   4.079  -0.109  0.00  0.00    +0.131 C 
ATOM      4  C   UNL     1      -1.442   3.593   0.372  0.00  0.00    +0.075 C 
ATOM      5  C   UNL     1      -1.293   2.119   0.125  0.00  0.00    +0.043 C 
ATOM      6  C   UNL     1      -2.357   1.342  -0.137  0.00  0.00    +0.047 C 
ATOM      7  N   UNL     1      -3.616   1.875  -0.203  0.00  0.00    -0.260 NA
ATOM      8  C   UNL     1      -2.162  -0.135  -0.363  0.00  0.00    +0.066 C 
ENDROOT
BRANCH   4   9
ATOM      9  C   UNL     1      -1.309   3.865   1.848  0.00  0.00    -0.009 A 
ATOM     10  C   UNL     1      -2.268   3.396   2.726  0.00  0.00    +0.006 A 
ATOM     11  C   UNL     1      -2.146   3.645   4.080  0.00  0.00    +0.000 A 
ATOM     12  C   UNL     1      -1.065   4.364   4.556  0.00  0.00    +0.002 A 
ATOM     13  C   UNL     1      -0.107   4.833   3.678  0.00  0.00    +0.033 A 
ATOM     14  C   UNL     1      -0.226   4.579   2.324  0.00  0.00    +0.130 A 
BRANCH  14  15
ATOM     15  N   UNL     1       0.804   5.076   1.385  0.00  0.00    +0.057 N 
ATOM     16  O   UNL     1       1.192   4.366   0.474  0.00  0.00    -0.126 OA
ATOM     17  O   UNL     1       1.264   6.196   1.522  0.00  0.00    -0.126 OA
ENDBRANCH  14  15
ENDBRANCH   4   9
BRANCH   5  18
ATOM     18  C   UNL     1      -0.004   1.535   0.171  0.00  0.00    +0.240 C 
ATOM     19  O   UNL     1       0.759   1.669  -0.768  0.00  0.00    -0.271 OA
ATOM     20  N   UNL     1       0.381   0.835   1.257  0.00  0.00    -0.326 N 
ATOM     21  H   UNL     1       1.266   0.439   1.290  0.00  0.00    +0.145 HD
ATOM     22  H   UNL     1      -0.227   0.728   2.005  0.00  0.00    +0.145 HD
ENDBRANCH   5  18
BRANCH   3  23
ATOM     23  C   UNL     1      -2.991   5.468  -0.292  0.00  0.00    +0.220 C 
ATOM     24  O   UNL     1      -4.073   5.875  -0.676  0.00  0.00    -0.275 OA
ATOM     25  N   UNL     1      -1.993   6.339  -0.042  0.00  0.00    -0.329 N 
ATOM     26  H   UNL     1      -1.132   6.014   0.263  0.00  0.00    +0.145 HD
ATOM     27  H   UNL     1      -2.137   7.290  -0.168  0.00  0.00    +0.145 HD
ENDBRANCH   3  23
TORSDOF 4
