REMARK  Name = ZINC27683633
REMARK  6 active torsions:
REMARK  status: ('A' for Active; 'I' for Inactive)
REMARK    1  A    between atoms: C_1  and  C_2
REMARK    2  A    between atoms: C_2  and  C_3
REMARK    3  A    between atoms: C_2  and  C_4
REMARK    4  A    between atoms: C_7  and  S_10
REMARK    5  A    between atoms: S_10  and  C_11
REMARK    6  A    between atoms: C_11  and  C_12
REMARK                            x       y       z     vdW  Elec       q    Type
REMARK                         _______ _______ _______ _____ _____    ______ ____
ROOT
ATOM      1  C   UNL     1       3.180  -4.350  -0.052  0.00  0.00    +0.146 A 
ATOM      2  N   UNL     1       3.270  -5.011   1.089  0.00  0.00    -0.199 NA
ATOM      3  C   UNL     1       3.414  -6.334   1.084  0.00  0.00    +0.217 A 
ATOM      4  N   UNL     1       3.477  -6.989  -0.070  0.00  0.00    -0.181 NA
ATOM      5  C   UNL     1       3.392  -6.321  -1.215  0.00  0.00    +0.217 A 
ATOM      6  N   UNL     1       3.243  -4.998  -1.202  0.00  0.00    -0.199 NA
ATOM      7  N   UNL     1       3.458  -6.997  -2.417  0.00  0.00    -0.327 N 
ATOM      8  N   UNL     1       3.502  -7.024   2.276  0.00  0.00    -0.327 N 
ATOM      9  H   UNL     1       3.387  -6.443  -3.364  0.00  0.00    +0.145 HD
ATOM     10  H   UNL     1       3.581  -8.090  -2.426  0.00  0.00    +0.145 HD
ATOM     11  H   UNL     1       3.621  -8.117   2.271  0.00  0.00    +0.145 HD
ATOM     12  H   UNL     1       3.454  -6.480   3.231  0.00  0.00    +0.145 HD
ENDROOT
BRANCH   1  13
ATOM     13  C   UNL     1       3.012  -2.852  -0.042  0.00  0.00    +0.150 C 
BRANCH  13  14
ATOM     14  S   UNL     1       1.245  -2.442  -0.024  0.00  0.00    -0.117 S 
BRANCH  14  18
ATOM     15  C   UNL     1       1.171   2.086   0.002  0.00  0.00    -0.045 A 
ATOM     16  C   UNL     1      -0.017   1.377   0.010  0.00  0.00    +0.005 A 
ATOM     17  C   UNL     1       0.002  -0.004   0.002  0.00  0.00    +0.015 A 
ATOM     18  C   UNL     1       1.216  -0.681  -0.013  0.00  0.00    +0.008 A 
ATOM     19  C   UNL     1       2.407   0.035  -0.021  0.00  0.00    +0.015 A 
ATOM     20  C   UNL     1       2.380   1.416  -0.013  0.00  0.00    +0.005 A 
BRANCH  15  22
ATOM     21  C   UNL     1       1.870   4.108   1.255  0.00  0.00    +0.012 C 
ATOM     22  C   UNL     1       1.146   3.593   0.010  0.00  0.00    +0.013 C 
ATOM     23  C   UNL     1       1.847   4.121  -1.243  0.00  0.00    +0.012 C 
ENDBRANCH  15  22
ENDBRANCH  14  18
ENDBRANCH  13  14
ENDBRANCH   1  13
TORSDOF 4
