REMARK  Name = ZINC05414838
REMARK  6 active torsions:
REMARK  status: ('A' for Active; 'I' for Inactive)
REMARK    1  A    between atoms: C_1  and  C_2
REMARK    2  A    between atoms: C_2  and  C_26
REMARK    3  A    between atoms: C_3  and  C_20
REMARK    4  A    between atoms: C_5  and  C_8
REMARK    5  A    between atoms: C_5  and  C_14
REMARK    6  A    between atoms: N_6  and  O_7
REMARK                            x       y       z     vdW  Elec       q    Type
REMARK                         _______ _______ _______ _____ _____    ______ ____
ROOT
ATOM      1  C   UNL     1       3.451   6.112   0.983  0.00  0.00    +0.037 C 
ATOM      2  C   UNL     1       2.789   5.609  -0.302  0.00  0.00    +0.086 C 
ATOM      3  C   UNL     1       2.236   4.216  -0.102  0.00  0.00    +0.068 C 
ATOM      4  N   UNL     1       0.958   4.283   0.070  0.00  0.00    -0.252 NA
ATOM      5  C   UNL     1       0.501   5.676   0.007  0.00  0.00    +0.188 C 
ATOM      6  N   UNL     1       1.601   6.435  -0.634  0.00  0.00    -0.144 NA
ATOM      7  C   UNL     1       3.789   5.625  -1.460  0.00  0.00    +0.037 C 
ENDROOT
BRANCH   5   8
ATOM      8  C   UNL     1      -0.752   5.775  -0.824  0.00  0.00    +0.001 A 
ATOM      9  C   UNL     1      -1.010   6.921  -1.552  0.00  0.00    +0.008 A 
ATOM     10  C   UNL     1      -2.158   7.010  -2.318  0.00  0.00    +0.000 A 
ATOM     11  C   UNL     1      -3.052   5.956  -2.348  0.00  0.00    +0.000 A 
ATOM     12  C   UNL     1      -2.796   4.812  -1.616  0.00  0.00    +0.000 A 
ATOM     13  C   UNL     1      -1.647   4.721  -0.854  0.00  0.00    +0.008 A 
ENDBRANCH   5   8
BRANCH   5  14
ATOM     14  C   UNL     1       0.247   6.203   1.396  0.00  0.00    +0.001 A 
ATOM     15  C   UNL     1       0.369   5.363   2.487  0.00  0.00    +0.008 A 
ATOM     16  C   UNL     1       0.141   5.848   3.761  0.00  0.00    +0.000 A 
ATOM     17  C   UNL     1      -0.220   7.170   3.944  0.00  0.00    +0.000 A 
ATOM     18  C   UNL     1      -0.347   8.008   2.853  0.00  0.00    +0.000 A 
ATOM     19  C   UNL     1      -0.114   7.525   1.579  0.00  0.00    +0.008 A 
ENDBRANCH   5  14
BRANCH   3  20
ATOM     20  C   UNL     1       3.033   2.974  -0.096  0.00  0.00    -0.002 A 
ATOM     21  C   UNL     1       2.412   1.741  -0.308  0.00  0.00    +0.010 A 
ATOM     22  C   UNL     1       3.164   0.584  -0.302  0.00  0.00    +0.001 A 
ATOM     23  C   UNL     1       4.529   0.643  -0.087  0.00  0.00    +0.000 A 
ATOM     24  C   UNL     1       5.151   1.861   0.123  0.00  0.00    +0.001 A 
ATOM     25  C   UNL     1       4.412   3.026   0.120  0.00  0.00    +0.010 A 
ENDBRANCH   3  20
BRANCH   6  26
ATOM     26  O   UNL     1       1.719   7.775  -0.058  0.00  0.00    -0.309 OA
ATOM     27  H   UNL     1       1.745   7.711   0.890  0.00  0.00    +0.237 HD
ENDBRANCH   6  26
TORSDOF 4
