REMARK  Name = ZINC35458873
REMARK  16 active torsions:
REMARK  status: ('A' for Active; 'I' for Inactive)
REMARK    1  A    between atoms: C_1  and  C_2
REMARK    2  A    between atoms: C_2  and  C_3
REMARK    3  A    between atoms: C_2  and  C_4
REMARK    4  A    between atoms: C_2  and  O_41
REMARK    5  A    between atoms: C_8  and  C_11
REMARK    6  A    between atoms: C_11  and  O_13
REMARK    7  A    between atoms: O_13  and  C_14
REMARK    8  A    between atoms: C_14  and  C_15
REMARK    9  A    between atoms: C_17  and  O_40
REMARK   10  A    between atoms: C_19  and  O_39
REMARK   11  A    between atoms: C_21  and  O_38
REMARK   12  A    between atoms: C_23  and  O_26
REMARK   13  A    between atoms: O_26  and  C_27
REMARK   14  A    between atoms: C_28  and  O_37
REMARK   15  A    between atoms: C_30  and  C_34
REMARK   16  A    between atoms: C_32  and  O_33
REMARK                            x       y       z     vdW  Elec       q    Type
REMARK                         _______ _______ _______ _____ _____    ______ ____
ROOT
ATOM      1  C   UNL     1      -6.179  -5.347  -0.038  0.00  0.00    +0.191 C 
ATOM      2  C   UNL     1      -7.690  -5.368  -0.283  0.00  0.00    +0.178 C 
ATOM      3  C   UNL     1      -8.319  -6.489   0.549  0.00  0.00    +0.180 C 
ATOM      4  C   UNL     1      -7.652  -7.818   0.182  0.00  0.00    +0.214 C 
ATOM      5  C   UNL     1      -6.143  -7.703   0.409  0.00  0.00    +0.340 C 
ATOM      6  O   UNL     1      -5.626  -6.622  -0.370  0.00  0.00    -0.330 OA
ENDROOT
BRANCH   4   7
ATOM      7  O   UNL     1      -8.181  -8.861   1.004  0.00  0.00    -0.383 OA
ATOM      8  H   UNL     1      -7.803  -9.733   0.825  0.00  0.00    +0.210 HD
ENDBRANCH   4   7
BRANCH   3   9
ATOM      9  O   UNL     1      -8.121  -6.221   1.939  0.00  0.00    -0.386 OA
ATOM     10  H   UNL     1      -8.495  -6.892   2.526  0.00  0.00    +0.210 HD
ENDBRANCH   3   9
BRANCH   2  11
ATOM     11  O   UNL     1      -8.254  -4.112   0.102  0.00  0.00    -0.386 OA
ATOM     12  H   UNL     1      -9.210  -4.054  -0.027  0.00  0.00    +0.210 HD
ENDBRANCH   2  11
BRANCH   1  13
ATOM     13  C   UNL     1      -5.535  -4.268  -0.912  0.00  0.00    +0.266 C 
BRANCH  13  14
ATOM     14  O   UNL     1      -4.144  -4.170  -0.600  0.00  0.00    -0.459 OA
BRANCH  14  15
ATOM     15  C   UNL     1      -3.426  -3.259  -1.286  0.00  0.00    +0.335 C 
ATOM     16  O   UNL     1      -3.966  -2.567  -2.127  0.00  0.00    -0.245 OA
BRANCH  15  20
ATOM     17  C   UNL     1       0.640  -2.531  -0.225  0.00  0.00    +0.024 C 
ATOM     18  C   UNL     1       0.156  -3.983  -0.126  0.00  0.00    +0.011 C 
ATOM     19  C   UNL     1      -1.366  -3.978   0.029  0.00  0.00    +0.042 C 
ATOM     20  C   UNL     1      -1.990  -3.102  -1.018  0.00  0.00    +0.033 C 
ATOM     21  C   UNL     1      -1.324  -2.202  -1.710  0.00  0.00    -0.016 C 
ATOM     22  C   UNL     1       0.145  -1.938  -1.545  0.00  0.00    +0.034 C 
BRANCH  17  24
ATOM     23  C   UNL     1       2.649  -1.047  -0.295  0.00  0.00    +0.041 C 
ATOM     24  C   UNL     1       2.169  -2.496  -0.187  0.00  0.00    +0.064 C 
ATOM     25  C   UNL     1       2.661  -3.099   1.131  0.00  0.00    +0.041 C 
BRANCH  24  26
ATOM     26  O   UNL     1       2.691  -3.253  -1.281  0.00  0.00    -0.389 OA
ATOM     27  H   UNL     1       3.657  -3.274  -1.320  0.00  0.00    +0.210 HD
ENDBRANCH  24  26
ENDBRANCH  17  24
ENDBRANCH  15  20
ENDBRANCH  14  15
ENDBRANCH  13  14
ENDBRANCH   1  13
BRANCH   5  28
ATOM     28  O   UNL     1      -5.886  -7.457   1.793  0.00  0.00    -0.453 OA
BRANCH  28  29
ATOM     29  C   UNL     1      -4.616  -7.658   2.230  0.00  0.00    +0.206 A 
ATOM     30  C   UNL     1      -4.193  -8.940   2.572  0.00  0.00    +0.163 A 
ATOM     31  C   UNL     1      -2.901  -9.148   3.016  0.00  0.00    +0.064 A 
ATOM     32  C   UNL     1      -2.018  -8.068   3.123  0.00  0.00    +0.070 A 
ATOM     33  C   UNL     1      -2.446  -6.782   2.779  0.00  0.00    +0.064 A 
ATOM     34  C   UNL     1      -3.737  -6.582   2.330  0.00  0.00    +0.163 A 
BRANCH  32  35
ATOM     35  C   UNL     1      -0.641  -8.286   3.597  0.00  0.00    +0.387 C 
ATOM     36  O   UNL     1      -0.268  -9.412   3.898  0.00  0.00    -0.241 OA
ATOM     37  O   UNL     1       0.130  -7.341   3.690  0.00  0.00    -0.241 OA
ENDBRANCH  32  35
BRANCH  34  38
ATOM     38  O   UNL     1      -4.152  -5.332   1.991  0.00  0.00    -0.503 OA
ATOM     39  H   UNL     1      -4.536  -4.832   2.725  0.00  0.00    +0.292 HD
ENDBRANCH  34  38
BRANCH  30  40
ATOM     40  O   UNL     1      -5.052  -9.989   2.467  0.00  0.00    -0.503 OA
ATOM     41  H   UNL     1      -5.036 -10.427   1.605  0.00  0.00    +0.292 HD
ENDBRANCH  30  40
ENDBRANCH  28  29
ENDBRANCH   5  28
TORSDOF 14
