REMARK  Name = ZINC35276026
REMARK  8 active torsions:
REMARK  status: ('A' for Active; 'I' for Inactive)
REMARK    1  A    between atoms: C_1  and  N_2
REMARK    2  A    between atoms: C_6  and  C_7
REMARK    3  A    between atoms: C_9  and  C_21
REMARK    4  A    between atoms: N_10  and  C_12
REMARK    5  A    between atoms: C_15  and  N_18
REMARK    6  A    between atoms: N_23  and  C_24
REMARK    7  A    between atoms: C_24  and  C_25
REMARK    8  A    between atoms: C_25  and  N_26
REMARK                            x       y       z     vdW  Elec       q    Type
REMARK                         _______ _______ _______ _____ _____    ______ ____
ROOT
ATOM      1  C   UNL     1       0.109  -0.468   2.581  0.00  0.00    +0.110 A 
ATOM      2  C   UNL     1       0.309   0.901   2.823  0.00  0.00    +0.064 A 
ATOM      3  C   UNL     1       0.560   1.054   4.169  0.00  0.00    +0.130 A 
ATOM      4  N   UNL     1       0.514  -0.193   4.736  0.00  0.00    -0.227 N 
ATOM      5  N   UNL     1       0.227  -1.117   3.724  0.00  0.00    -0.164 NA
ENDROOT
BRANCH   1  11
ATOM      6  C   UNL     1      -0.456   1.053  -0.056  0.00  0.00    +0.149 C 
ATOM      7  N   UNL     1      -0.440  -0.404   0.101  0.00  0.00    -0.348 N 
ATOM      8  C   UNL     1      -0.664  -1.313  -0.890  0.00  0.00    +0.086 A 
ATOM      9  C   UNL     1      -0.565  -2.553  -0.363  0.00  0.00    +0.020 A 
ATOM     10  C   UNL     1      -0.269  -2.413   1.003  0.00  0.00    +0.029 A 
ATOM     11  C   UNL     1      -0.190  -1.080   1.267  0.00  0.00    +0.069 A 
ENDBRANCH   1  11
BRANCH   4  12
ATOM     12  C   UNL     1       0.715  -0.489   6.089  0.00  0.00    +0.066 A 
ATOM     13  C   UNL     1       0.078   0.263   7.068  0.00  0.00    +0.030 A 
ATOM     14  C   UNL     1       0.279  -0.033   8.402  0.00  0.00    +0.035 A 
ATOM     15  C   UNL     1       1.111  -1.076   8.764  0.00  0.00    +0.126 A 
ATOM     16  C   UNL     1       1.746  -1.827   7.791  0.00  0.00    +0.035 A 
ATOM     17  C   UNL     1       1.546  -1.540   6.455  0.00  0.00    +0.030 A 
BRANCH  15  18
ATOM     18  N   UNL     1       1.324  -1.389  10.195  0.00  0.00    +0.056 N 
ATOM     19  O   UNL     1       0.770  -0.734  11.046  0.00  0.00    -0.126 OA
ATOM     20  O   UNL     1       2.051  -2.301  10.512  0.00  0.00    -0.126 OA
ENDBRANCH  15  18
ENDBRANCH   4  12
BRANCH   3  21
ATOM     21  C   UNL     1       0.828   2.321   4.867  0.00  0.00    +0.262 C 
ATOM     22  O   UNL     1       1.138   2.313   6.043  0.00  0.00    -0.269 OA
ATOM     23  N   UNL     1       0.730   3.490   4.204  0.00  0.00    -0.312 N 
ATOM     24  H   UNL     1       0.412   3.502   3.288  0.00  0.00    +0.149 HD
BRANCH  23  25
ATOM     25  C   UNL     1       1.101   4.742   4.868  0.00  0.00    +0.086 C 
BRANCH  25  26
ATOM     26  C   UNL     1       0.898   5.911   3.902  0.00  0.00    -0.060 C 
BRANCH  26  27
ATOM     27  N   UNL     1       1.271   7.166   4.567  0.00  0.00    +0.381 N 
ATOM     28  C   UNL     1       2.737   7.208   4.797  0.00  0.00    -0.079 C 
ATOM     29  C   UNL     1       3.029   8.722   4.951  0.00  0.00    -0.020 C 
ATOM     30  C   UNL     1       2.073   9.365   3.920  0.00  0.00    -0.020 C 
ATOM     31  C   UNL     1       0.967   8.318   3.690  0.00  0.00    -0.079 C 
ATOM     32  H   UNL     1       0.777   7.256   5.443  0.00  0.00    -0.082 HD
ENDBRANCH  26  27
ENDBRANCH  25  26
ENDBRANCH  23  25
ENDBRANCH   3  21
TORSDOF 7
