REMARK  Name = ZINC44785153
REMARK  6 active torsions:
REMARK  status: ('A' for Active; 'I' for Inactive)
REMARK    1  A    between atoms: C_1  and  C_2
REMARK    2  A    between atoms: C_2  and  C_4
REMARK    3  A    between atoms: C_2  and  N_9
REMARK    4  A    between atoms: C_10  and  C_12
REMARK    5  A    between atoms: C_12  and  C_17
REMARK    6  A    between atoms: N_18  and  O_19
REMARK                            x       y       z     vdW  Elec       q    Type
REMARK                         _______ _______ _______ _____ _____    ______ ____
ROOT
ATOM      1  C   UNL     1       0.870  -1.080   3.531  0.00  0.00    +0.105 C 
ATOM      2  C   UNL     1       1.466  -2.439   3.125  0.00  0.00    +0.024 C 
ATOM      3  C   UNL     1       0.985  -3.463   4.174  0.00  0.00    +0.001 C 
ATOM      4  C   UNL     1      -0.304  -2.832   4.757  0.00  0.00    +0.001 C 
ATOM      5  C   UNL     1       0.048  -1.325   4.813  0.00  0.00    +0.024 C 
ENDROOT
BRANCH   1   6
ATOM      6  C   UNL     1       1.974  -0.093   3.807  0.00  0.00    +0.147 C 
ATOM      7  N   UNL     1       2.105   0.417   4.986  0.00  0.00    -0.076 NA
ATOM      8  N   UNL     1       2.844   0.266   2.801  0.00  0.00    -0.343 N 
ATOM      9  H   UNL     1       2.796  -0.174   1.938  0.00  0.00    +0.144 HD
ATOM     10  H   UNL     1       3.506   0.958   2.956  0.00  0.00    +0.144 HD
BRANCH   7  11
ATOM     11  O   UNL     1       3.143   1.345   5.245  0.00  0.00    -0.408 OA
ATOM     12  H   UNL     1       3.161   1.671   6.156  0.00  0.00    +0.328 HD
ENDBRANCH   7  11
ENDBRANCH   1   6
BRANCH   1  14
ATOM     13  N   UNL     1      -0.613   0.646   2.561  0.00  0.00    -0.305 N 
ATOM     14  C   UNL     1      -0.025  -0.560   2.436  0.00  0.00    +0.227 C 
ATOM     15  O   UNL     1      -0.217  -1.228   1.441  0.00  0.00    -0.275 OA
ATOM     16  H   UNL     1      -0.522   1.146   3.387  0.00  0.00    +0.149 HD
BRANCH  13  18
ATOM     17  C   UNL     1      -2.818   0.664   1.504  0.00  0.00    +0.036 C 
ATOM     18  C   UNL     1      -1.387   1.203   1.449  0.00  0.00    +0.136 C 
BRANCH  18  19
ATOM     19  C   UNL     1      -1.412   2.706   1.556  0.00  0.00    +0.125 A 
ATOM     20  C   UNL     1      -1.312   3.569   0.530  0.00  0.00    +0.046 A 
ATOM     21  C   UNL     1      -1.381   4.870   1.081  0.00  0.00    +0.041 A 
ATOM     22  C   UNL     1      -1.521   4.723   2.411  0.00  0.00    +0.195 A 
ATOM     23  O   UNL     1      -1.545   3.410   2.692  0.00  0.00    -0.466 OA
ENDBRANCH  18  19
ENDBRANCH  13  18
ENDBRANCH   1  14
TORSDOF 5
