REMARK  Name = ZINC00045824
REMARK  7 active torsions:
REMARK  status: ('A' for Active; 'I' for Inactive)
REMARK    1  A    between atoms: C_1  and  C_2
REMARK    2  A    between atoms: C_5  and  C_23
REMARK    3  A    between atoms: C_6  and  N_8
REMARK    4  A    between atoms: C_9  and  C_11
REMARK    5  A    between atoms: C_11  and  C_13
REMARK    6  A    between atoms: C_11  and  O_14
REMARK    7  A    between atoms: O_14  and  C_15
REMARK                            x       y       z     vdW  Elec       q    Type
REMARK                         _______ _______ _______ _____ _____    ______ ____
ROOT
ATOM      1  N   UNL     1       0.195  -0.378   2.468  0.00  0.00    -0.282 N 
ATOM      2  C   UNL     1       0.827  -0.618   1.302  0.00  0.00    +0.258 C 
ATOM      3  O   UNL     1       1.920  -1.142   1.301  0.00  0.00    -0.271 OA
ATOM      4  H   UNL     1      -0.705  -0.017   2.467  0.00  0.00    +0.155 HD
ENDROOT
BRANCH   1  10
ATOM      5  C   UNL     1       3.279  -3.169   5.090  0.00  0.00    +0.044 C 
ATOM      6  C   UNL     1       2.338  -1.996   4.980  0.00  0.00    -0.049 A 
ATOM      7  C   UNL     1       2.109  -1.189   6.079  0.00  0.00    +0.004 A 
ATOM      8  C   UNL     1       1.246  -0.113   5.982  0.00  0.00    +0.005 A 
ATOM      9  C   UNL     1       0.610   0.158   4.786  0.00  0.00    -0.029 A 
ATOM     10  C   UNL     1       0.838  -0.650   3.681  0.00  0.00    +0.037 A 
ATOM     11  C   UNL     1       1.702  -1.734   3.783  0.00  0.00    +0.027 A 
ATOM     12  C   UNL     1      -0.332   1.331   4.682  0.00  0.00    +0.045 C 
ENDBRANCH   1  10
BRANCH   2  13
ATOM     13  C   UNL     1       0.174  -0.234  -0.001  0.00  0.00    +0.256 C 
ATOM     14  C   UNL     1       0.035   1.288  -0.073  0.00  0.00    +0.062 C 
BRANCH  13  15
ATOM     15  O   UNL     1       0.979  -0.692  -1.090  0.00  0.00    -0.478 OA
BRANCH  15  16
ATOM     16  C   UNL     1       0.327  -1.087  -2.215  0.00  0.00    +0.140 A 
ATOM     17  C   UNL     1      -1.045  -0.917  -2.319  0.00  0.00    +0.048 A 
ATOM     18  C   UNL     1      -1.705  -1.315  -3.466  0.00  0.00    +0.023 A 
ATOM     19  C   UNL     1      -1.000  -1.893  -4.506  0.00  0.00    +0.043 A 
ATOM     20  C   UNL     1       0.369  -2.069  -4.404  0.00  0.00    +0.043 A 
ATOM     21  C   UNL     1       1.034  -1.667  -3.260  0.00  0.00    +0.084 A 
ATOM     22 CL   UNL     1       2.751  -1.887  -3.131  0.00  0.00    -0.080 Cl
ATOM     23 CL   UNL     1      -1.832  -2.398  -5.943  0.00  0.00    -0.083 Cl
ENDBRANCH  15  16
ENDBRANCH  13  15
ENDBRANCH   2  13
TORSDOF 4
