REMARK  Name = ZINC34773316
REMARK  8 active torsions:
REMARK  status: ('A' for Active; 'I' for Inactive)
REMARK    1  A    between atoms: C_1  and  C_2
REMARK    2  A    between atoms: C_2  and  N_3
REMARK    3  A    between atoms: N_3  and  C_4
REMARK    4  A    between atoms: C_4  and  C_5
REMARK    5  A    between atoms: N_8  and  C_9
REMARK    6  A    between atoms: C_13  and  C_14
REMARK    7  A    between atoms: C_14  and  O_16
REMARK    8  A    between atoms: O_16  and  C_17
REMARK                            x       y       z     vdW  Elec       q    Type
REMARK                         _______ _______ _______ _____ _____    ______ ____
ROOT
ATOM      1  C   UNL     1      -0.100  -1.290  -4.627  0.00  0.00    +0.059 A 
ATOM      2  C   UNL     1       0.408  -2.013  -5.705  0.00  0.00    -0.015 A 
ATOM      3  C   UNL     1      -0.360  -2.058  -6.829  0.00  0.00    -0.004 A 
ATOM      4  S   UNL     1      -1.732  -1.169  -6.486  0.00  0.00    -0.085 S 
ATOM      5  C   UNL     1      -1.344  -0.695  -4.811  0.00  0.00    +0.118 A 
ATOM      6  C   UNL     1      -0.033  -2.765  -8.112  0.00  0.00    +0.043 C 
ATOM      7  C   UNL     1       1.462  -3.115  -8.106  0.00  0.00    +0.005 C 
ATOM      8  C   UNL     1       1.808  -3.770  -6.766  0.00  0.00    +0.005 C 
ATOM      9  C   UNL     1       1.756  -2.726  -5.650  0.00  0.00    +0.038 C 
ENDROOT
BRANCH   1  13
ATOM     10  N   UNL     1       2.489  -0.471  -2.251  0.00  0.00    -0.286 N 
ATOM     11  C   UNL     1       1.854  -0.686  -3.420  0.00  0.00    +0.306 C 
ATOM     12  O   UNL     1       2.414  -0.438  -4.470  0.00  0.00    -0.252 OA
ATOM     13  N   UNL     1       0.599  -1.175  -3.425  0.00  0.00    -0.268 N 
ATOM     14  H   UNL     1       0.181  -1.448  -2.594  0.00  0.00    +0.156 HD
BRANCH  10  16
ATOM     15  C   UNL     1       4.853  -1.097  -2.280  0.00  0.00    +0.024 C 
ATOM     16  C   UNL     1       3.854   0.061  -2.245  0.00  0.00    +0.106 C 
ENDBRANCH  10  16
BRANCH  10  17
ATOM     17  C   UNL     1       1.814  -0.770  -0.985  0.00  0.00    +0.106 C 
ATOM     18  C   UNL     1       1.055   0.470  -0.507  0.00  0.00    +0.024 C 
ENDBRANCH  10  17
ENDBRANCH   1  13
BRANCH   5  19
ATOM     19  C   UNL     1      -2.103   0.084  -3.906  0.00  0.00    +0.347 C 
ATOM     20  O   UNL     1      -1.629   0.402  -2.831  0.00  0.00    -0.244 OA
BRANCH  19  21
ATOM     21  O   UNL     1      -3.352   0.475  -4.235  0.00  0.00    -0.464 OA
ATOM     22  C   UNL     1      -4.061   1.259  -3.274  0.00  0.00    +0.280 C 
ENDBRANCH  19  21
ENDBRANCH   5  19
TORSDOF 5
