REMARK  Name = ZINC08949309
REMARK  12 active torsions:
REMARK  status: ('A' for Active; 'I' for Inactive)
REMARK    1  A    between atoms: C_1  and  C_2
REMARK    2  A    between atoms: C_2  and  S_3
REMARK    3  A    between atoms: S_3  and  C_4
REMARK    4  A    between atoms: N_10  and  C_13
REMARK    5  A    between atoms: C_13  and  C_14
REMARK    6  A    between atoms: C_14  and  N_15
REMARK    7  A    between atoms: C_16  and  C_18
REMARK    8  A    between atoms: C_18  and  C_23
REMARK    9  A    between atoms: N_30  and  C_31
REMARK   10  A    between atoms: C_31  and  C_32
REMARK   11  A    between atoms: C_32  and  O_33
REMARK   12  A    between atoms: O_33  and  C_34
REMARK                            x       y       z     vdW  Elec       q    Type
REMARK                         _______ _______ _______ _____ _____    ______ ____
ROOT
ATOM      1  C   UNL     1       2.169   0.092  -0.212  0.00  0.00    +0.192 A 
ATOM      2  N   UNL     1       2.185   1.421  -0.211  0.00  0.00    -0.206 NA
ATOM      3  C   UNL     1       1.058   2.120  -0.163  0.00  0.00    +0.134 A 
ATOM      4  C   UNL     1      -0.165   1.422  -0.113  0.00  0.00    +0.078 A 
ATOM      5  C   UNL     1      -1.523   1.805  -0.050  0.00  0.00    +0.148 A 
ATOM      6  N   UNL     1      -2.255   0.728  -0.027  0.00  0.00    -0.177 NA
ATOM      7  N   UNL     1      -1.431  -0.404  -0.063  0.00  0.00    -0.245 N 
ATOM      8  C   UNL     1      -0.134   0.014  -0.117  0.00  0.00    +0.164 A 
ATOM      9  N   UNL     1       1.045  -0.604  -0.167  0.00  0.00    -0.202 NA
ATOM     10  N   UNL     1       1.084   3.501  -0.161  0.00  0.00    -0.326 N 
ATOM     11  H   UNL     1       0.254   4.001  -0.125  0.00  0.00    +0.148 HD
ENDROOT
BRANCH   1  12
ATOM     12  S   UNL     1       3.701  -0.775  -0.278  0.00  0.00    -0.086 S 
BRANCH  12  14
ATOM     13  C   UNL     1       6.288   0.099  -0.383  0.00  0.00    +0.016 C 
ATOM     14  C   UNL     1       4.851   0.622  -0.323  0.00  0.00    +0.074 C 
ENDBRANCH  12  14
ENDBRANCH   1  12
BRANCH   7  15
ATOM     15  C   UNL     1      -1.884  -1.796  -0.048  0.00  0.00    +0.164 C 
BRANCH  15  16
ATOM     16  C   UNL     1      -1.981  -2.285   1.399  0.00  0.00    +0.127 C 
BRANCH  16  17
ATOM     17  N   UNL     1      -2.434  -3.678   1.415  0.00  0.00    -0.313 N 
ATOM     18  C   UNL     1      -2.594  -4.321   2.589  0.00  0.00    +0.224 C 
ATOM     19  O   UNL     1      -2.276  -3.779   3.626  0.00  0.00    -0.275 OA
ATOM     20  H   UNL     1      -2.620  -4.137   0.581  0.00  0.00    +0.149 HD
BRANCH  18  21
ATOM     21  C   UNL     1      -3.167  -5.715   2.612  0.00  0.00    +0.072 C 
ATOM     22  C   UNL     1      -4.545  -5.730   1.927  0.00  0.00    +0.021 C 
ATOM     23  C   UNL     1      -5.561  -6.192   2.992  0.00  0.00    +0.001 C 
ATOM     24  C   UNL     1      -4.884  -5.842   4.340  0.00  0.00    +0.001 C 
ATOM     25  C   UNL     1      -3.394  -6.168   4.069  0.00  0.00    +0.021 C 
BRANCH  21  26
ATOM     26  C   UNL     1      -2.232  -6.669   1.915  0.00  0.00    -0.032 A 
ATOM     27  C   UNL     1      -0.996  -6.230   1.479  0.00  0.00    +0.006 A 
ATOM     28  C   UNL     1      -0.136  -7.106   0.844  0.00  0.00    +0.020 A 
ATOM     29  C   UNL     1      -0.517  -8.419   0.634  0.00  0.00    +0.041 A 
ATOM     30  C   UNL     1      -1.757  -8.856   1.065  0.00  0.00    +0.020 A 
ATOM     31  C   UNL     1      -2.614  -7.981   1.705  0.00  0.00    +0.006 A 
ATOM     32 CL   UNL     1       0.560  -9.518  -0.169  0.00  0.00    -0.084 Cl
ENDBRANCH  21  26
ENDBRANCH  18  21
ENDBRANCH  16  17
ENDBRANCH  15  16
ENDBRANCH   7  15
BRANCH  10  33
ATOM     33  C   UNL     1       2.365   4.210  -0.213  0.00  0.00    +0.131 C 
BRANCH  33  34
ATOM     34  C   UNL     1       2.114   5.719  -0.200  0.00  0.00    +0.178 C 
BRANCH  34  35
ATOM     35  O   UNL     1       1.526   6.093   1.048  0.00  0.00    -0.381 OA
ATOM     36  C   UNL     1       1.249   7.490   1.164  0.00  0.00    +0.194 C 
ENDBRANCH  34  35
ENDBRANCH  33  34
ENDBRANCH  10  33
TORSDOF 10
