REMARK  Name = ZINC66952685
REMARK  9 active torsions:
REMARK  status: ('A' for Active; 'I' for Inactive)
REMARK    1  A    between atoms: C_1  and  C_2
REMARK    2  A    between atoms: C_2  and  C_4
REMARK    3  A    between atoms: C_2  and  O_29
REMARK    4  A    between atoms: N_6  and  C_7
REMARK    5  A    between atoms: C_11  and  N_13
REMARK    6  A    between atoms: N_16  and  C_17
REMARK    7  A    between atoms: C_17  and  C_18
REMARK    8  A    between atoms: C_18  and  O_28
REMARK    9  A    between atoms: O_29  and  C_30
REMARK                            x       y       z     vdW  Elec       q    Type
REMARK                         _______ _______ _______ _____ _____    ______ ____
ROOT
ATOM      1  N   UNL     1       0.693  -1.056   7.256  0.00  0.00    -0.269 N 
ATOM      2  C   UNL     1       1.490  -1.258   8.324  0.00  0.00    +0.304 C 
ATOM      3  O   UNL     1       2.613  -1.699   8.170  0.00  0.00    -0.253 OA
ATOM      4  N   UNL     1       1.042  -0.972   9.563  0.00  0.00    -0.296 N 
ATOM      5  H   UNL     1      -0.225  -0.770   7.383  0.00  0.00    +0.156 HD
ATOM      6  H   UNL     1       0.146  -0.620   9.685  0.00  0.00    +0.150 HD
ENDROOT
BRANCH   1  11
ATOM      7  C   UNL     1       1.265  -0.650   3.642  0.00  0.00    +0.035 A 
ATOM      8  C   UNL     1       2.180  -1.669   3.408  0.00  0.00    +0.023 A 
ATOM      9  C   UNL     1       2.597  -2.478   4.447  0.00  0.00    +0.004 A 
ATOM     10  C   UNL     1       2.106  -2.276   5.723  0.00  0.00    +0.023 A 
ATOM     11  C   UNL     1       1.191  -1.259   5.964  0.00  0.00    +0.037 A 
ATOM     12  C   UNL     1       0.774  -0.442   4.923  0.00  0.00    +0.046 A 
BRANCH   7  15
ATOM     13  C   UNL     1       0.593   1.475   2.808  0.00  0.00    +0.246 C 
ATOM     14  O   UNL     1       0.651   1.922   3.934  0.00  0.00    -0.273 OA
ATOM     15  N   UNL     1       0.843   0.169   2.588  0.00  0.00    -0.283 N 
ATOM     16  H   UNL     1       0.730  -0.204   1.700  0.00  0.00    +0.155 HD
BRANCH  13  18
ATOM     17  C   UNL     1      -1.095   1.943   1.054  0.00  0.00    +0.048 C 
ATOM     18  C   UNL     1       0.242   2.379   1.655  0.00  0.00    +0.200 C 
BRANCH  18  19
ATOM     19  O   UNL     1       0.139   3.726   2.121  0.00  0.00    -0.371 OA
ATOM     20  C   UNL     1       0.481   4.708   1.141  0.00  0.00    +0.195 C 
ENDBRANCH  18  19
ENDBRANCH  13  18
ENDBRANCH   7  15
ENDBRANCH   1  11
BRANCH   4  21
ATOM     21  C   UNL     1       1.908  -1.191  10.724  0.00  0.00    +0.145 C 
BRANCH  21  22
ATOM     22  C   UNL     1       1.123  -0.908  12.006  0.00  0.00    +0.107 C 
ATOM     23  C   UNL     1      -0.093  -1.830  12.065  0.00  0.00    +0.041 C 
ATOM     24  C   UNL     1      -0.741  -1.688  13.448  0.00  0.00    +0.008 C 
ATOM     25  C   UNL     1       0.189  -2.318  14.482  0.00  0.00    +0.035 C 
ATOM     26  C   UNL     1       1.588  -1.779  14.335  0.00  0.00    -0.041 A 
ATOM     27  C   UNL     1       2.018  -1.135  13.196  0.00  0.00    -0.011 A 
ATOM     28  C   UNL     1       3.323  -0.668  13.122  0.00  0.00    +0.007 A 
ATOM     29  C   UNL     1       4.191  -0.840  14.181  0.00  0.00    +0.000 A 
ATOM     30  C   UNL     1       3.758  -1.483  15.326  0.00  0.00    +0.000 A 
ATOM     31  C   UNL     1       2.462  -1.950  15.400  0.00  0.00    +0.004 A 
BRANCH  22  32
ATOM     32  O   UNL     1       0.684   0.451  11.999  0.00  0.00    -0.382 OA
ATOM     33  H   UNL     1       1.402   1.097  11.954  0.00  0.00    +0.211 HD
ENDBRANCH  22  32
ENDBRANCH  21  22
ENDBRANCH   4  21
TORSDOF 7
