REMARK  Name = ZINC13592884
REMARK  5 active torsions:
REMARK  status: ('A' for Active; 'I' for Inactive)
REMARK    1  A    between atoms: C_4  and  C_7
REMARK    2  A    between atoms: N_10  and  C_12
REMARK    3  A    between atoms: C_15  and  N_18
REMARK    4  A    between atoms: C_22  and  O_31
REMARK    5  A    between atoms: C_24  and  C_26
REMARK                            x       y       z     vdW  Elec       q    Type
REMARK                         _______ _______ _______ _____ _____    ______ ____
ROOT
ATOM      1  C   UNL     1       3.781  -1.141  -0.434  0.00  0.00    +0.099 A 
ATOM      2  C   UNL     1       4.026  -2.132   0.513  0.00  0.00    +0.032 A 
ATOM      3  C   UNL     1       5.293  -2.622   0.300  0.00  0.00    +0.164 A 
ATOM      4  N   UNL     1       5.820  -1.944  -0.749  0.00  0.00    -0.214 N 
ATOM      5  N   UNL     1       4.855  -1.028  -1.198  0.00  0.00    -0.164 NA
ATOM      6  N   UNL     1       5.813  -3.623   1.068  0.00  0.00    -0.197 NA
ATOM      7  C   UNL     1       5.018  -4.318   1.825  0.00  0.00    +0.190 C 
ATOM      8  C   UNL     1       3.530  -4.123   1.862  0.00  0.00    +0.108 C 
ATOM      9  C   UNL     1       3.149  -2.657   1.622  0.00  0.00    +0.064 C 
ENDROOT
BRANCH   1  13
ATOM     10  C   UNL     1       0.199   1.119  -0.818  0.00  0.00    +0.000 A 
ATOM     11  C   UNL     1       0.756   0.917   0.432  0.00  0.00    +0.001 A 
ATOM     12  C   UNL     1       1.918   0.184   0.562  0.00  0.00    +0.010 A 
ATOM     13  C   UNL     1       2.531  -0.352  -0.568  0.00  0.00    +0.002 A 
ATOM     14  C   UNL     1       1.966  -0.145  -1.825  0.00  0.00    +0.010 A 
ATOM     15  C   UNL     1       0.803   0.589  -1.944  0.00  0.00    +0.001 A 
ENDBRANCH   1  13
BRANCH   4  16
ATOM     16  C   UNL     1       7.098  -2.128  -1.291  0.00  0.00    +0.068 A 
ATOM     17  C   UNL     1       8.165  -2.455  -0.464  0.00  0.00    +0.030 A 
ATOM     18  C   UNL     1       9.424  -2.635  -1.002  0.00  0.00    +0.035 A 
ATOM     19  C   UNL     1       9.623  -2.490  -2.362  0.00  0.00    +0.126 A 
ATOM     20  C   UNL     1       8.563  -2.165  -3.189  0.00  0.00    +0.035 A 
ATOM     21  C   UNL     1       7.301  -1.989  -2.658  0.00  0.00    +0.030 A 
BRANCH  19  22
ATOM     22  N   UNL     1      10.974  -2.684  -2.936  0.00  0.00    +0.056 N 
ATOM     23  O   UNL     1      11.902  -2.968  -2.214  0.00  0.00    -0.126 OA
ATOM     24  O   UNL     1      11.150  -2.558  -4.125  0.00  0.00    -0.126 OA
ENDBRANCH  19  22
ENDBRANCH   4  16
BRANCH   9  25
ATOM     25  C   UNL     1       1.701  -2.565   1.216  0.00  0.00    -0.032 A 
ATOM     26  C   UNL     1       0.779  -1.948   2.041  0.00  0.00    +0.012 A 
ATOM     27  C   UNL     1      -0.516  -1.882   1.646  0.00  0.00    +0.045 A 
ATOM     28  S   UNL     1      -0.462  -2.709   0.065  0.00  0.00    -0.105 S 
ATOM     29  C   UNL     1       1.284  -3.081   0.034  0.00  0.00    +0.049 A 
ENDBRANCH   9  25
BRANCH   7  30
ATOM     30  O   UNL     1       5.558  -5.265   2.619  0.00  0.00    -0.495 OA
ATOM     31  H   UNL     1       6.519  -5.338   2.546  0.00  0.00    +0.293 HD
ENDBRANCH   7  30
TORSDOF 5
