REMARK  Name = ZINC00199103
REMARK  4 active torsions:
REMARK  status: ('A' for Active; 'I' for Inactive)
REMARK    1  A    between atoms: C_9  and  C_22
REMARK    2  A    between atoms: C_10  and  N_21
REMARK    3  A    between atoms: N_11  and  C_14
REMARK    4  A    between atoms: C_19  and  O_20
REMARK                            x       y       z     vdW  Elec       q    Type
REMARK                         _______ _______ _______ _____ _____    ______ ____
ROOT
ATOM      1  C   UNL     1      -1.246   3.389   0.033  0.00  0.00    +0.002 A 
ATOM      2  C   UNL     1      -0.053   4.110   0.025  0.00  0.00    +0.002 A 
ATOM      3  C   UNL     1       1.149   3.474   0.010  0.00  0.00    +0.030 A 
ATOM      4  C   UNL     1       1.197   2.067   0.002  0.00  0.00    +0.092 A 
ATOM      5  C   UNL     1      -0.016   1.334   0.009  0.00  0.00    +0.090 A 
ATOM      6  C   UNL     1      -1.240   2.029   0.031  0.00  0.00    +0.030 A 
ATOM      7  N   UNL     1       0.002  -0.004   0.002  0.00  0.00    -0.241 NA
ATOM      8  C   UNL     1       1.158  -0.639  -0.013  0.00  0.00    +0.128 A 
ATOM      9  C   UNL     1       1.556  -2.055  -0.025  0.00  0.00    +0.119 A 
ATOM     10  C   UNL     1       2.945  -2.076  -0.039  0.00  0.00    +0.122 A 
ATOM     11  N   UNL     1       3.440  -0.806  -0.037  0.00  0.00    -0.276 N 
ATOM     12  C   UNL     1       2.413   0.118  -0.021  0.00  0.00    +0.167 A 
ATOM     13  N   UNL     1       2.376   1.433  -0.014  0.00  0.00    -0.225 NA
ENDROOT
BRANCH  11  14
ATOM     14  C   UNL     1       4.805  -0.481  -0.050  0.00  0.00    +0.091 A 
ATOM     15  C   UNL     1       5.494  -0.327   1.144  0.00  0.00    +0.030 A 
ATOM     16  C   UNL     1       6.838  -0.007   1.129  0.00  0.00    +0.002 A 
ATOM     17  C   UNL     1       7.500   0.159  -0.073  0.00  0.00    +0.004 A 
ATOM     18  C   UNL     1       6.820   0.006  -1.267  0.00  0.00    +0.047 A 
ATOM     19  C   UNL     1       5.473  -0.319  -1.261  0.00  0.00    +0.141 A 
BRANCH  19  20
ATOM     20  O   UNL     1       4.804  -0.475  -2.434  0.00  0.00    -0.505 OA
ATOM     21  H   UNL     1       4.406   0.340  -2.771  0.00  0.00    +0.292 HD
ENDBRANCH  19  20
ENDBRANCH  11  14
BRANCH  10  22
ATOM     22  N   UNL     1       3.711  -3.216  -0.052  0.00  0.00    -0.343 N 
ATOM     23  H   UNL     1       4.678  -3.149  -0.061  0.00  0.00    +0.144 HD
ATOM     24  H   UNL     1       3.284  -4.087  -0.053  0.00  0.00    +0.144 HD
ENDBRANCH  10  22
BRANCH   9  25
ATOM     25  C   UNL     1       0.682  -3.190  -0.022  0.00  0.00    +0.105 C 
ATOM     26  N   UNL     1      -0.011  -4.090  -0.021  0.00  0.00    -0.191 NA
ENDBRANCH   9  25
TORSDOF 4
