REMARK  Name = ZINC46946054
REMARK  8 active torsions:
REMARK  status: ('A' for Active; 'I' for Inactive)
REMARK    1  A    between atoms: C_1  and  C_2
REMARK    2  A    between atoms: N_5  and  C_8
REMARK    3  A    between atoms: C_8  and  C_9
REMARK    4  A    between atoms: C_8  and  C_25
REMARK    5  A    between atoms: C_9  and  N_10
REMARK    6  A    between atoms: C_11  and  C_13
REMARK    7  A    between atoms: C_25  and  C_26
REMARK    8  A    between atoms: C_25  and  C_27
REMARK                            x       y       z     vdW  Elec       q    Type
REMARK                         _______ _______ _______ _____ _____    ______ ____
ROOT
ATOM      1  N   UNL     1       1.688  -3.626  -2.382  0.00  0.00    -0.312 N 
ATOM      2  C   UNL     1       2.215  -3.723  -3.619  0.00  0.00    +0.260 C 
ATOM      3  O   UNL     1       3.266  -4.312  -3.788  0.00  0.00    -0.269 OA
ATOM      4  H   UNL     1       0.850  -3.157  -2.248  0.00  0.00    +0.149 HD
ENDROOT
BRANCH   2   5
ATOM      5  C   UNL     1       1.518  -3.115  -4.767  0.00  0.00    +0.105 A 
ATOM      6  C   UNL     1       2.064  -3.230  -6.003  0.00  0.00    +0.039 A 
ATOM      7  C   UNL     1       1.379  -2.631  -7.149  0.00  0.00    -0.011 A 
ATOM      8  C   UNL     1       1.897  -2.720  -8.443  0.00  0.00    +0.009 A 
ATOM      9  C   UNL     1       1.213  -2.139  -9.489  0.00  0.00    +0.001 A 
ATOM     10  C   UNL     1       0.018  -1.468  -9.269  0.00  0.00    +0.001 A 
ATOM     11  C   UNL     1      -0.510  -1.367  -8.000  0.00  0.00    +0.014 A 
ATOM     12  C   UNL     1       0.162  -1.948  -6.927  0.00  0.00    +0.046 A 
ATOM     13  C   UNL     1      -0.359  -1.871  -5.554  0.00  0.00    +0.257 A 
ATOM     14  O   UNL     1      -1.404  -1.290  -5.326  0.00  0.00    -0.267 OA
ATOM     15  N   UNL     1       0.328  -2.453  -4.552  0.00  0.00    -0.318 N 
ATOM     16  H   UNL     1      -0.023  -2.401  -3.649  0.00  0.00    +0.169 HD
ENDBRANCH   2   5
BRANCH   1  17
ATOM     17  C   UNL     1       2.381  -4.230  -1.242  0.00  0.00    +0.089 C 
BRANCH  17  18
ATOM     18  C   UNL     1       1.689  -3.810   0.056  0.00  0.00    -0.049 C 
BRANCH  18  23
ATOM     19  C   UNL     1       3.334   1.651   0.064  0.00  0.00    +0.007 C 
ATOM     20  C   UNL     1       3.119   0.186  -0.323  0.00  0.00    -0.018 C 
ATOM     21  C   UNL     1       3.701  -0.722   0.764  0.00  0.00    -0.016 C 
ATOM     22  C   UNL     1       3.413  -2.182   0.410  0.00  0.00    -0.078 C 
ATOM     23  N   UNL     1       1.963  -2.390   0.320  0.00  0.00    +0.383 N 
ATOM     24  C   UNL     1       1.409  -1.577  -0.769  0.00  0.00    -0.078 C 
ATOM     25  C   UNL     1       1.620  -0.093  -0.460  0.00  0.00    -0.016 C 
ATOM     26  H   UNL     1       1.531  -2.123   1.192  0.00  0.00    -0.081 HD
ENDBRANCH  18  23
BRANCH  18  27
ATOM     27  C   UNL     1       2.221  -4.655   1.215  0.00  0.00    -0.029 C 
ATOM     28  C   UNL     1       1.522  -4.241   2.512  0.00  0.00    +0.005 C 
ATOM     29  C   UNL     1       1.944  -6.134   0.937  0.00  0.00    +0.005 C 
ENDBRANCH  18  27
ENDBRANCH  17  18
ENDBRANCH   1  17
TORSDOF 5
