REMARK  Name = ZINC24705339
REMARK  9 active torsions:
REMARK  status: ('A' for Active; 'I' for Inactive)
REMARK    1  A    between atoms: C_1  and  C_2
REMARK    2  A    between atoms: C_5  and  S_8
REMARK    3  A    between atoms: S_8  and  N_11
REMARK    4  A    between atoms: N_11  and  C_12
REMARK    5  A    between atoms: C_12  and  C_13
REMARK    6  A    between atoms: N_15  and  C_16
REMARK    7  A    between atoms: C_16  and  C_17
REMARK    8  A    between atoms: N_19  and  N_20
REMARK    9  A    between atoms: C_21  and  C_23
REMARK                            x       y       z     vdW  Elec       q    Type
REMARK                         _______ _______ _______ _____ _____    ______ ____
ROOT
ATOM      1  C   UNL     1      -2.367   4.896  -4.829  0.00  0.00    +0.201 C 
ENDROOT
BRANCH   1   4
ATOM      2  C   UNL     1      -1.614   3.488  -2.988  0.00  0.00    +0.229 C 
ATOM      3  O   UNL     1      -1.759   2.522  -3.706  0.00  0.00    -0.274 OA
ATOM      4  N   UNL     1      -1.891   4.722  -3.454  0.00  0.00    -0.306 N 
ATOM      5  H   UNL     1      -1.760   5.598  -2.802  0.00  0.00    +0.149 HD
BRANCH   2   6
ATOM      6  C   UNL     1      -1.125   3.309  -1.574  0.00  0.00    +0.201 C 
BRANCH   6   7
ATOM      7  N   UNL     1      -0.897   1.885  -1.312  0.00  0.00    -0.181 NA
ATOM      8  H   UNL     1      -1.442   1.126  -1.892  0.00  0.00    +0.149 HD
BRANCH   7   9
ATOM      9  S   UNL     1      -0.017   1.417   0.010  0.00  0.00    +0.059 S 
ATOM     10  O   UNL     1       0.002  -0.004   0.002  0.00  0.00    -0.153 OA
ATOM     11  O   UNL     1       1.172   2.195   0.003  0.00  0.00    -0.153 OA
BRANCH   9  16
ATOM     12  C   UNL     1      -3.131   3.072   4.906  0.00  0.00    +0.044 C 
ATOM     13  C   UNL     1      -2.353   2.659   3.683  0.00  0.00    -0.050 A 
ATOM     14  C   UNL     1      -2.559   1.412   3.121  0.00  0.00    +0.005 A 
ATOM     15  C   UNL     1      -1.846   1.033   2.000  0.00  0.00    +0.029 A 
ATOM     16  C   UNL     1      -0.927   1.900   1.439  0.00  0.00    +0.105 A 
ATOM     17  C   UNL     1      -0.717   3.145   2.004  0.00  0.00    +0.029 A 
ATOM     18  C   UNL     1      -1.434   3.526   3.123  0.00  0.00    +0.005 A 
ENDBRANCH   9  16
ENDBRANCH   7   9
ENDBRANCH   6   7
ENDBRANCH   2   6
ENDBRANCH   1   4
BRANCH   1  19
ATOM     19  C   UNL     1      -2.601   6.360  -5.098  0.00  0.00    +0.246 C 
ATOM     20  O   UNL     1      -2.391   7.178  -4.227  0.00  0.00    -0.273 OA
ATOM     21  N   UNL     1      -3.043   6.761  -6.306  0.00  0.00    -0.233 N 
ATOM     22  H   UNL     1      -3.234   6.019  -7.096  0.00  0.00    +0.173 HD
BRANCH  21  23
ATOM     23  N   UNL     1      -3.261   8.122  -6.556  0.00  0.00    -0.230 N 
ATOM     24  C   UNL     1      -3.703   8.523  -7.764  0.00  0.00    +0.267 C 
ATOM     25  O   UNL     1      -3.914   7.702  -8.638  0.00  0.00    -0.268 OA
ATOM     26  H   UNL     1      -3.070   8.864  -5.766  0.00  0.00    +0.173 HD
BRANCH  24  27
ATOM     27  C   UNL     1      -3.931   9.947  -8.026  0.00  0.00    +0.076 A 
ATOM     28  C   UNL     1      -4.377  10.562  -9.182  0.00  0.00    +0.024 A 
ATOM     29  C   UNL     1      -4.519  11.944  -9.175  0.00  0.00    -0.036 A 
ATOM     30  C   UNL     1      -4.176  12.582  -8.033  0.00  0.00    -0.006 A 
ATOM     31  S   UNL     1      -3.712  11.343  -6.934  0.00  0.00    -0.088 S 
ATOM     32  C   UNL     1      -4.190  14.075  -7.793  0.00  0.00    +0.043 C 
ATOM     33  C   UNL     1      -5.662  14.521  -7.790  0.00  0.00    +0.005 C 
ATOM     34  C   UNL     1      -6.176  14.638  -9.206  0.00  0.00    +0.001 C 
ATOM     35  C   UNL     1      -6.398  13.346  -9.948  0.00  0.00    +0.005 C 
ATOM     36  C   UNL     1      -5.082  12.700 -10.384  0.00  0.00    +0.036 C 
ENDBRANCH  24  27
ENDBRANCH  21  23
ENDBRANCH   1  19
TORSDOF 8
