REMARK  Name = ZINC19818160
REMARK  6 active torsions:
REMARK  status: ('A' for Active; 'I' for Inactive)
REMARK    1  A    between atoms: C_1  and  O_2
REMARK    2  A    between atoms: O_2  and  C_3
REMARK    3  A    between atoms: C_3  and  C_5
REMARK    4  A    between atoms: C_7  and  C_30
REMARK    5  A    between atoms: N_17  and  C_20
REMARK    6  A    between atoms: C_24  and  C_26
REMARK                            x       y       z     vdW  Elec       q    Type
REMARK                         _______ _______ _______ _____ _____    ______ ____
ROOT
ATOM      1  C   UNL     1       1.092   1.078  11.271  0.00  0.00    +0.213 C 
ATOM      2  C   UNL     1       2.307   0.969  10.339  0.00  0.00    +0.161 C 
ATOM      3  N   UNL     1       1.812   1.064   8.953  0.00  0.00    -0.308 N 
ATOM      4  C   UNL     1       0.987   2.107   8.643  0.00  0.00    +0.175 C 
ATOM      5  N   UNL     1       0.244   2.671   9.582  0.00  0.00    -0.151 NA
ATOM      6  C   UNL     1       0.252   2.253  10.840  0.00  0.00    +0.255 C 
ATOM      7  O   UNL     1      -0.433   2.828  11.663  0.00  0.00    -0.273 OA
ATOM      8  N   UNL     1       0.923   2.565   7.361  0.00  0.00    -0.302 N 
ATOM      9  C   UNL     1       0.038   3.684   7.002  0.00  0.00    +0.126 C 
ATOM     10  C   UNL     1      -0.812   3.264   5.798  0.00  0.00    +0.124 C 
ATOM     11  N   UNL     1       0.070   2.799   4.719  0.00  0.00    -0.327 N 
ATOM     12  C   UNL     1       0.822   1.603   5.123  0.00  0.00    +0.124 C 
ATOM     13  C   UNL     1       1.738   1.954   6.300  0.00  0.00    +0.126 C 
ATOM     14  H   UNL     1       2.109   0.309   8.210  0.00  0.00    +0.149 HD
ENDROOT
BRANCH  11  15
ATOM     15  C   UNL     1      -0.654   2.562   3.548  0.00  0.00    +0.030 A 
ATOM     16  C   UNL     1      -2.027   2.774   3.523  0.00  0.00    +0.023 A 
ATOM     17  C   UNL     1      -2.740   2.539   2.364  0.00  0.00    +0.002 A 
ATOM     18  C   UNL     1      -2.088   2.098   1.227  0.00  0.00    +0.012 A 
ATOM     19  C   UNL     1      -0.722   1.881   1.250  0.00  0.00    +0.057 A 
ATOM     20  C   UNL     1      -0.003   2.114   2.406  0.00  0.00    +0.035 A 
BRANCH  19  21
ATOM     21  C   UNL     1      -0.017   1.395   0.010  0.00  0.00    +0.417 C 
ATOM     22  F   UNL     1       0.002  -0.004   0.002  0.00  0.00    -0.166 F 
ATOM     23  F   UNL     1       1.296   1.879  -0.000  0.00  0.00    -0.166 F 
ATOM     24  F   UNL     1      -0.694   1.858  -1.124  0.00  0.00    -0.166 F 
ENDBRANCH  19  21
ENDBRANCH  11  15
BRANCH   2  25
ATOM     25  C   UNL     1       3.270   2.093  10.621  0.00  0.00    +0.126 A 
ATOM     26  C   UNL     1       4.391   2.003  11.359  0.00  0.00    +0.046 A 
ATOM     27  C   UNL     1       4.985   3.285  11.361  0.00  0.00    +0.041 A 
ATOM     28  C   UNL     1       4.192   4.083  10.623  0.00  0.00    +0.195 A 
ATOM     29  O   UNL     1       3.158   3.354  10.172  0.00  0.00    -0.466 OA
ENDBRANCH   2  25
BRANCH   1  30
ATOM     30  C   UNL     1       1.559   1.284  12.688  0.00  0.00    +0.321 C 
ATOM     31  O   UNL     1       2.742   1.328  12.934  0.00  0.00    -0.250 OA
BRANCH  30  33
ATOM     32  C   UNL     1       1.185   1.615  15.018  0.00  0.00    +0.280 C 
ATOM     33  O   UNL     1       0.663   1.420  13.678  0.00  0.00    -0.467 OA
ENDBRANCH  30  33
ENDBRANCH   1  30
TORSDOF 5
