REMARK  Name = ZINC42105405
REMARK  10 active torsions:
REMARK  status: ('A' for Active; 'I' for Inactive)
REMARK    1  A    between atoms: C_1  and  C_2
REMARK    2  A    between atoms: C_2  and  C_3
REMARK    3  A    between atoms: C_2  and  C_4
REMARK    4  A    between atoms: C_4  and  C_6
REMARK    5  A    between atoms: C_4  and  C_21
REMARK    6  A    between atoms: C_6  and  N_7
REMARK    7  A    between atoms: N_7  and  C_8
REMARK    8  A    between atoms: C_11  and  N_18
REMARK    9  A    between atoms: C_13  and  S_14
REMARK   10  A    between atoms: S_14  and  N_17
REMARK                            x       y       z     vdW  Elec       q    Type
REMARK                         _______ _______ _______ _____ _____    ______ ____
ROOT
ATOM      1  C   UNL     1      -2.606   2.303  -2.043  0.00  0.00    +0.054 A 
ATOM      2  C   UNL     1      -3.238   1.685  -3.115  0.00  0.00    +0.027 A 
ATOM      3  C   UNL     1      -3.791   2.449  -4.123  0.00  0.00    +0.034 A 
ATOM      4  C   UNL     1      -3.716   3.829  -4.067  0.00  0.00    +0.128 A 
ATOM      5  C   UNL     1      -3.088   4.448  -3.002  0.00  0.00    +0.063 A 
ATOM      6  C   UNL     1      -2.538   3.689  -1.987  0.00  0.00    +0.128 A 
ENDROOT
BRANCH   6   7
ATOM      7  S   UNL     1      -1.744   4.479  -0.626  0.00  0.00    +0.058 S 
ATOM      8  O   UNL     1      -0.487   3.837  -0.461  0.00  0.00    -0.153 OA
ATOM      9  O   UNL     1      -1.862   5.878  -0.844  0.00  0.00    -0.153 OA
BRANCH   7  10
ATOM     10  N   UNL     1      -2.633   4.133   0.727  0.00  0.00    -0.203 NA
ATOM     11  H   UNL     1      -3.430   3.584   0.657  0.00  0.00    +0.144 HD
ATOM     12  H   UNL     1      -2.358   4.480   1.590  0.00  0.00    +0.144 HD
ENDBRANCH   7  10
ENDBRANCH   6   7
BRANCH   4  13
ATOM     13  N   UNL     1      -4.310   4.646  -5.149  0.00  0.00    +0.056 N 
ATOM     14  O   UNL     1      -4.859   4.106  -6.081  0.00  0.00    -0.126 OA
ATOM     15  O   UNL     1      -4.246   5.852  -5.101  0.00  0.00    -0.126 OA
ENDBRANCH   4  13
BRANCH   1  16
ATOM     16  N   UNL     1      -2.046   1.533  -1.022  0.00  0.00    -0.342 N 
ATOM     17  H   UNL     1      -1.609   1.966  -0.272  0.00  0.00    +0.146 HD
BRANCH  16  18
ATOM     18  C   UNL     1      -2.119   0.071  -1.083  0.00  0.00    +0.110 C 
BRANCH  18  19
ATOM     19  C   UNL     1      -1.342  -0.528   0.092  0.00  0.00    +0.039 C 
BRANCH  19  20
ATOM     20  C   UNL     1      -2.017  -0.150   1.385  0.00  0.00    -0.043 A 
ATOM     21  C   UNL     1      -3.323  -0.537   1.623  0.00  0.00    +0.004 A 
ATOM     22  C   UNL     1      -3.942  -0.191   2.809  0.00  0.00    +0.000 A 
ATOM     23  C   UNL     1      -3.255   0.542   3.759  0.00  0.00    +0.000 A 
ATOM     24  C   UNL     1      -1.949   0.929   3.522  0.00  0.00    +0.000 A 
ATOM     25  C   UNL     1      -1.328   0.579   2.337  0.00  0.00    +0.004 A 
ENDBRANCH  19  20
BRANCH  19  27
ATOM     26  C   UNL     1      -0.542  -2.438  -1.306  0.00  0.00    +0.008 C 
ATOM     27  C   UNL     1      -1.311  -2.052  -0.041  0.00  0.00    -0.008 C 
ATOM     28  C   UNL     1      -0.618  -2.656   1.181  0.00  0.00    +0.008 C 
ENDBRANCH  19  27
ENDBRANCH  18  19
ENDBRANCH  16  18
ENDBRANCH   1  16
TORSDOF 8
