REMARK  Name = ZINC12324439
REMARK  6 active torsions:
REMARK  status: ('A' for Active; 'I' for Inactive)
REMARK    1  A    between atoms: C_1  and  C_2
REMARK    2  A    between atoms: C_5  and  N_9
REMARK    3  A    between atoms: C_7  and  N_8
REMARK    4  A    between atoms: C_13  and  C_14
REMARK    5  A    between atoms: N_23  and  C_28
REMARK    6  A    between atoms: N_26  and  C_27
REMARK                            x       y       z     vdW  Elec       q    Type
REMARK                         _______ _______ _______ _____ _____    ______ ____
ROOT
ATOM      1  N   UNL     1      -2.345  -0.515   0.806  0.00  0.00    -0.313 N 
ATOM      2  C   UNL     1      -3.345  -1.417   0.540  0.00  0.00    +0.118 A 
ATOM      3  C   UNL     1      -2.933  -2.265  -0.417  0.00  0.00    +0.077 A 
ATOM      4  C   UNL     1      -1.566  -1.855  -0.783  0.00  0.00    +0.089 A 
ATOM      5  C   UNL     1      -1.264  -0.762   0.011  0.00  0.00    +0.068 A 
ATOM      6  C   UNL     1      -0.878  -2.627  -1.819  0.00  0.00    +0.266 A 
ATOM      7  O   UNL     1       0.252  -2.338  -2.164  0.00  0.00    -0.267 OA
ATOM      8  N   UNL     1      -1.529  -3.668  -2.381  0.00  0.00    -0.263 N 
ATOM      9  C   UNL     1      -2.773  -4.012  -2.024  0.00  0.00    +0.332 A 
ATOM     10  O   UNL     1      -3.288  -4.963  -2.579  0.00  0.00    -0.246 OA
ATOM     11  N   UNL     1      -3.484  -3.364  -1.084  0.00  0.00    -0.295 N 
ATOM     12  C   UNL     1      -4.840  -3.811  -0.757  0.00  0.00    +0.154 C 
ATOM     13  C   UNL     1      -0.851  -4.448  -3.419  0.00  0.00    +0.157 C 
ENDROOT
BRANCH   1  18
ATOM     14  C   UNL     1      -2.654   3.648   4.657  0.00  0.00    +0.045 C 
ATOM     15  C   UNL     1      -2.574   2.544   3.635  0.00  0.00    -0.030 A 
ATOM     16  C   UNL     1      -1.483   1.696   3.619  0.00  0.00    +0.007 A 
ATOM     17  C   UNL     1      -1.408   0.679   2.686  0.00  0.00    +0.026 A 
ATOM     18  C   UNL     1      -2.425   0.513   1.755  0.00  0.00    +0.048 A 
ATOM     19  C   UNL     1      -3.522   1.362   1.768  0.00  0.00    +0.049 A 
ATOM     20  C   UNL     1      -3.597   2.379   2.709  0.00  0.00    +0.029 A 
BRANCH  20  21
ATOM     21  N   UNL     1      -4.699   3.237   2.726  0.00  0.00    -0.358 N 
ATOM     22  H   UNL     1      -5.413   3.121   2.079  0.00  0.00    +0.142 HD
ATOM     23  H   UNL     1      -4.751   3.947   3.384  0.00  0.00    +0.142 HD
ENDBRANCH  20  21
ENDBRANCH   1  18
BRANCH   5  24
ATOM     24  C   UNL     1       0.002  -0.004   0.002  0.00  0.00    -0.000 A 
ATOM     25  C   UNL     1      -0.017   1.393   0.010  0.00  0.00    +0.013 A 
ATOM     26  C   UNL     1       1.169   2.096   0.002  0.00  0.00    +0.039 A 
ATOM     27  C   UNL     1       2.379   1.419  -0.013  0.00  0.00    +0.123 A 
ATOM     28  C   UNL     1       2.404   0.033  -0.021  0.00  0.00    +0.039 A 
ATOM     29  C   UNL     1       1.224  -0.681  -0.013  0.00  0.00    +0.013 A 
ATOM     30  F   UNL     1       3.538   2.113  -0.021  0.00  0.00    -0.205 F 
ENDBRANCH   5  24
TORSDOF 3
