REMARK  Name = ZINC56729147
REMARK  11 active torsions:
REMARK  status: ('A' for Active; 'I' for Inactive)
REMARK    1  A    between atoms: C_1  and  C_2
REMARK    2  A    between atoms: C_2  and  C_3
REMARK    3  A    between atoms: C_3  and  C_5
REMARK    4  A    between atoms: C_3  and  N_6
REMARK    5  A    between atoms: C_7  and  C_9
REMARK    6  A    between atoms: C_12  and  N_15
REMARK    7  A    between atoms: N_18  and  C_19
REMARK    8  A    between atoms: C_19  and  C_21
REMARK    9  A    between atoms: C_19  and  C_22
REMARK   10  A    between atoms: C_22  and  C_23
REMARK   11  A    between atoms: C_26  and  O_29
REMARK                            x       y       z     vdW  Elec       q    Type
REMARK                         _______ _______ _______ _____ _____    ______ ____
ROOT
ATOM      1  N   UNL     1      -2.416   1.506  -8.189  0.00  0.00    -0.269 N 
ATOM      2  C   UNL     1      -1.787   1.742  -9.357  0.00  0.00    +0.304 C 
ATOM      3  O   UNL     1      -0.591   1.547  -9.454  0.00  0.00    -0.253 OA
ATOM      4  N   UNL     1      -2.484   2.192 -10.419  0.00  0.00    -0.296 N 
ATOM      5  H   UNL     1      -3.380   1.598  -8.130  0.00  0.00    +0.156 HD
ATOM      6  H   UNL     1      -3.438   2.347 -10.342  0.00  0.00    +0.151 HD
ENDROOT
BRANCH   1  10
ATOM      7  C   UNL     1      -0.221   0.389  -4.830  0.00  0.00    +0.037 A 
ATOM      8  C   UNL     1       0.170  -0.047  -6.099  0.00  0.00    +0.015 A 
ATOM      9  C   UNL     1      -0.558   0.324  -7.207  0.00  0.00    +0.024 A 
ATOM     10  C   UNL     1      -1.681   1.132  -7.064  0.00  0.00    +0.035 A 
ATOM     11  C   UNL     1      -2.072   1.569  -5.803  0.00  0.00    +0.024 A 
ATOM     12  C   UNL     1      -1.353   1.196  -4.690  0.00  0.00    +0.015 A 
BRANCH   7  14
ATOM     13  N   UNL     1       1.648  -0.786  -3.777  0.00  0.00    -0.309 N 
ATOM     14  C   UNL     1       0.557  -0.008  -3.640  0.00  0.00    +0.244 C 
ATOM     15  O   UNL     1       0.213   0.369  -2.536  0.00  0.00    -0.270 OA
ATOM     16  H   UNL     1       1.923  -1.087  -4.657  0.00  0.00    +0.149 HD
BRANCH  13  17
ATOM     17  C   UNL     1       2.420  -1.180  -2.595  0.00  0.00    +0.070 C 
ATOM     18  C   UNL     1       3.428  -0.080  -2.255  0.00  0.00    +0.028 C 
BRANCH  17  20
ATOM     19  C   UNL     1       2.156  -3.612  -3.102  0.00  0.00    +0.005 C 
ATOM     20  C   UNL     1       3.166  -2.484  -2.885  0.00  0.00    +0.018 C 
ENDBRANCH  17  20
ENDBRANCH  13  17
ENDBRANCH   7  14
ENDBRANCH   1  10
BRANCH   4  21
ATOM     21  C   UNL     1      -1.800   2.447 -11.690  0.00  0.00    +0.076 C 
ATOM     22  C   UNL     1      -1.706   1.146 -12.489  0.00  0.00    +0.028 C 
BRANCH  21  23
ATOM     23  C   UNL     1      -2.588   3.484 -12.493  0.00  0.00    +0.057 C 
BRANCH  23  24
ATOM     24  C   UNL     1      -2.576   4.802 -11.762  0.00  0.00    -0.045 A 
ATOM     25  C   UNL     1      -3.569   5.090 -10.844  0.00  0.00    +0.007 A 
ATOM     26  C   UNL     1      -3.561   6.298 -10.173  0.00  0.00    +0.045 A 
ATOM     27  C   UNL     1      -2.554   7.221 -10.420  0.00  0.00    +0.117 A 
ATOM     28  C   UNL     1      -1.559   6.928 -11.341  0.00  0.00    +0.045 A 
ATOM     29  C   UNL     1      -1.569   5.717 -12.006  0.00  0.00    +0.007 A 
BRANCH  27  30
ATOM     30  O   UNL     1      -2.544   8.409  -9.761  0.00  0.00    -0.507 OA
ATOM     31  H   UNL     1      -2.053   8.393  -8.928  0.00  0.00    +0.292 HD
ENDBRANCH  27  30
ENDBRANCH  23  24
ENDBRANCH  21  23
ENDBRANCH   4  21
TORSDOF 8
