REMARK  Name = ZINC39661748
REMARK  8 active torsions:
REMARK  status: ('A' for Active; 'I' for Inactive)
REMARK    1  A    between atoms: C_3  and  O_37
REMARK    2  A    between atoms: C_4  and  O_36
REMARK    3  A    between atoms: C_6  and  C_7
REMARK    4  A    between atoms: C_7  and  C_8
REMARK    5  A    between atoms: C_8  and  N_9
REMARK    6  A    between atoms: C_10  and  C_12
REMARK    7  A    between atoms: C_23  and  C_25
REMARK    8  A    between atoms: C_28  and  C_32
REMARK                            x       y       z     vdW  Elec       q    Type
REMARK                         _______ _______ _______ _____ _____    ______ ____
ROOT
ATOM      1  C   UNL     1      -5.465  -2.694  -2.552  0.00  0.00    +0.100 C 
ATOM      2  C   UNL     1      -5.022  -4.067  -1.997  0.00  0.00    +0.121 C 
ATOM      3  N   UNL     1      -5.727  -5.058  -2.844  0.00  0.00    -0.296 N 
ATOM      4  C   UNL     1      -5.667  -4.485  -4.210  0.00  0.00    +0.115 C 
ATOM      5  C   UNL     1      -5.887  -2.973  -4.004  0.00  0.00    -0.004 C 
ATOM      6  C   UNL     1      -7.359  -2.622  -4.204  0.00  0.00    -0.010 C 
ATOM      7  C   UNL     1      -7.740  -2.854  -5.669  0.00  0.00    -0.082 C 
ATOM      8  N   UNL     1      -6.896  -2.020  -6.534  0.00  0.00    +0.379 N 
ATOM      9  C   UNL     1      -5.491  -2.427  -6.404  0.00  0.00    -0.082 C 
ATOM     10  C   UNL     1      -5.015  -2.177  -4.971  0.00  0.00    -0.010 C 
ATOM     11  C   UNL     1      -6.294  -6.218  -2.459  0.00  0.00    +0.249 C 
ATOM     12  O   UNL     1      -6.757  -6.974  -3.292  0.00  0.00    -0.270 OA
ATOM     13  H   UNL     1      -7.189  -2.128  -7.493  0.00  0.00    -0.086 HD
ATOM     14  H   UNL     1      -6.990  -1.053  -6.263  0.00  0.00    -0.086 HD
ENDROOT
BRANCH  11  15
ATOM     15  C   UNL     1      -6.354  -6.572  -1.026  0.00  0.00    +0.072 A 
ATOM     16  C   UNL     1      -5.311  -6.210  -0.170  0.00  0.00    +0.016 A 
ATOM     17  C   UNL     1      -5.374  -6.542   1.166  0.00  0.00    +0.013 A 
ATOM     18  C   UNL     1      -6.465  -7.234   1.662  0.00  0.00    +0.058 A 
ATOM     19  C   UNL     1      -7.502  -7.597   0.823  0.00  0.00    +0.051 A 
ATOM     20  C   UNL     1      -7.457  -7.265  -0.519  0.00  0.00    +0.136 A 
ATOM     21  F   UNL     1      -8.473  -7.615  -1.338  0.00  0.00    -0.205 F 
BRANCH  18  22
ATOM     22  C   UNL     1      -6.524  -7.593   3.124  0.00  0.00    +0.418 C 
ATOM     23  F   UNL     1      -7.149  -6.562   3.833  0.00  0.00    -0.166 F 
ATOM     24  F   UNL     1      -7.252  -8.778   3.285  0.00  0.00    -0.166 F 
ATOM     25  F   UNL     1      -5.226  -7.774   3.613  0.00  0.00    -0.166 F 
ENDBRANCH  18  22
ENDBRANCH  11  15
BRANCH   1  27
ATOM     26  N   UNL     1      -4.558  -0.399  -2.384  0.00  0.00    -0.315 N 
ATOM     27  C   UNL     1      -4.317  -1.719  -2.517  0.00  0.00    +0.218 C 
ATOM     28  O   UNL     1      -3.177  -2.121  -2.609  0.00  0.00    -0.275 OA
ATOM     29  H   UNL     1      -5.470  -0.078  -2.310  0.00  0.00    +0.149 HD
BRANCH  26  30
ATOM     30  C   UNL     1      -3.442   0.549  -2.350  0.00  0.00    +0.109 C 
BRANCH  30  31
ATOM     31  C   UNL     1      -3.985   1.970  -2.192  0.00  0.00    +0.054 C 
BRANCH  31  37
ATOM     32  C   UNL     1      -2.369   3.502  -3.333  0.00  0.00    +0.007 A 
ATOM     33  C   UNL     1      -1.315   4.398  -3.306  0.00  0.00    +0.049 A 
ATOM     34  C   UNL     1      -0.727   4.739  -2.099  0.00  0.00    +0.158 A 
ATOM     35  C   UNL     1      -1.198   4.179  -0.915  0.00  0.00    +0.158 A 
ATOM     36  C   UNL     1      -2.254   3.282  -0.949  0.00  0.00    +0.052 A 
ATOM     37  C   UNL     1      -2.837   2.946  -2.157  0.00  0.00    -0.042 A 
BRANCH  35  38
ATOM     38  O   UNL     1      -0.624   4.510   0.272  0.00  0.00    -0.503 OA
ATOM     39  H   UNL     1      -1.028   5.275   0.704  0.00  0.00    +0.292 HD
ENDBRANCH  35  38
BRANCH  34  40
ATOM     40  O   UNL     1       0.309   5.619  -2.071  0.00  0.00    -0.503 OA
ATOM     41  H   UNL     1       0.039   6.543  -1.974  0.00  0.00    +0.292 HD
ENDBRANCH  34  40
ENDBRANCH  31  37
ENDBRANCH  30  31
ENDBRANCH  26  30
ENDBRANCH   1  27
TORSDOF 8
