REMARK  Name = ZINC40876938
REMARK  8 active torsions:
REMARK  status: ('A' for Active; 'I' for Inactive)
REMARK    1  A    between atoms: C_1  and  C_2
REMARK    2  A    between atoms: C_2  and  C_3
REMARK    3  A    between atoms: C_2  and  C_4
REMARK    4  A    between atoms: C_6  and  C_9
REMARK    5  A    between atoms: C_12  and  N_16
REMARK    6  A    between atoms: C_20  and  C_23
REMARK    7  A    between atoms: C_28  and  C_31
REMARK    8  A    between atoms: C_28  and  N_34
REMARK                            x       y       z     vdW  Elec       q    Type
REMARK                         _______ _______ _______ _____ _____    ______ ____
ROOT
ATOM      1  N   UNL     1      -5.675  -4.695  -3.600  0.00  0.00    -0.327 N 
ATOM      2  C   UNL     1      -6.682  -4.074  -4.471  0.00  0.00    +0.105 C 
ATOM      3  C   UNL     1      -6.735  -4.845  -5.793  0.00  0.00    +0.020 C 
ATOM      4  C   UNL     1      -6.983  -6.328  -5.504  0.00  0.00    +0.016 C 
ATOM      5  C   UNL     1      -5.831  -6.885  -4.665  0.00  0.00    +0.092 C 
ATOM      6  C   UNL     1      -5.764  -6.138  -3.335  0.00  0.00    +0.118 C 
ENDROOT
BRANCH   5   7
ATOM      7  C   UNL     1      -6.059  -8.353  -4.409  0.00  0.00    +0.220 C 
ATOM      8  O   UNL     1      -6.556  -8.716  -3.364  0.00  0.00    -0.275 OA
ATOM      9  N   UNL     1      -5.711  -9.261  -5.342  0.00  0.00    -0.301 N 
ATOM     10  C   UNL     1      -5.010  -8.848  -6.565  0.00  0.00    +0.107 C 
ATOM     11  C   UNL     1      -5.785  -9.371  -7.778  0.00  0.00    +0.016 C 
ATOM     12  C   UNL     1      -5.976 -10.883  -7.644  0.00  0.00    +0.015 C 
ATOM     13  C   UNL     1      -6.789 -11.187  -6.383  0.00  0.00    +0.016 C 
ATOM     14  C   UNL     1      -6.021 -10.685  -5.152  0.00  0.00    +0.107 C 
BRANCH  12  15
ATOM     15  N   UNL     1      -6.690 -11.393  -8.822  0.00  0.00    +0.389 N 
ATOM     16  C   UNL     1      -5.917 -11.088 -10.031  0.00  0.00    -0.077 C 
ATOM     17  C   UNL     1      -6.694 -11.544 -11.268  0.00  0.00    -0.019 C 
ATOM     18  C   UNL     1      -6.936 -13.054 -11.183  0.00  0.00    -0.004 C 
ATOM     19  C   UNL     1      -7.678 -13.370  -9.881  0.00  0.00    -0.019 C 
ATOM     20  C   UNL     1      -6.864 -12.845  -8.696  0.00  0.00    -0.077 C 
ATOM     21  H   UNL     1      -7.595 -10.951  -8.883  0.00  0.00    -0.080 HD
ENDBRANCH  12  15
BRANCH  12  22
ATOM     22  C   UNL     1      -4.629 -11.552  -7.545  0.00  0.00    +0.200 C 
ATOM     23  O   UNL     1      -3.628 -10.951  -7.873  0.00  0.00    -0.278 OA
ATOM     24  N   UNL     1      -4.537 -12.819  -7.092  0.00  0.00    -0.330 N 
ATOM     25  H   UNL     1      -5.342 -13.324  -6.898  0.00  0.00    +0.145 HD
ATOM     26  H   UNL     1      -3.666 -13.225  -6.961  0.00  0.00    +0.145 HD
ENDBRANCH  12  22
ENDBRANCH   5   7
BRANCH   1  30
ATOM     27  C   UNL     1      -2.614  -2.413  -1.930  0.00  0.00    +0.025 A 
ATOM     28  C   UNL     1      -2.437  -3.015  -3.174  0.00  0.00    +0.013 A 
ATOM     29  C   UNL     1      -3.451  -3.771  -3.725  0.00  0.00    +0.027 A 
ATOM     30  C   UNL     1      -4.650  -3.931  -3.040  0.00  0.00    +0.065 A 
ATOM     31  C   UNL     1      -4.830  -3.330  -1.798  0.00  0.00    +0.145 A 
ATOM     32  C   UNL     1      -3.815  -2.579  -1.241  0.00  0.00    +0.052 A 
ATOM     33  F   UNL     1      -5.996  -3.487  -1.134  0.00  0.00    -0.204 F 
BRANCH  27  36
ATOM     34  C   UNL     1       0.397  -0.617  -1.116  0.00  0.00    +0.230 A 
ATOM     35  N   UNL     1      -0.324  -1.367  -1.899  0.00  0.00    -0.191 NA
ATOM     36  C   UNL     1      -1.524  -1.601  -1.337  0.00  0.00    +0.202 A 
ATOM     37  N   UNL     1      -1.569  -0.991  -0.177  0.00  0.00    -0.056 NA
ATOM     38  O   UNL     1      -0.315  -0.345  -0.014  0.00  0.00    -0.337 OA
BRANCH  34  40
ATOM     39  C   UNL     1       1.824   1.390  -1.409  0.00  0.00    +0.017 C 
ATOM     40  C   UNL     1       1.798  -0.140  -1.398  0.00  0.00    +0.072 C 
ATOM     41  C   UNL     1       2.742  -0.658  -0.311  0.00  0.00    +0.017 C 
ENDBRANCH  34  40
ENDBRANCH  27  36
ENDBRANCH   1  30
TORSDOF 6
