REMARK  Name = ZINC65527862
REMARK  4 active torsions:
REMARK  status: ('A' for Active; 'I' for Inactive)
REMARK    1  A    between atoms: C_1  and  C_2
REMARK    2  A    between atoms: C_10  and  C_12
REMARK    3  A    between atoms: C_22  and  N_24
REMARK    4  A    between atoms: C_25  and  C_27
REMARK                            x       y       z     vdW  Elec       q    Type
REMARK                         _______ _______ _______ _____ _____    ______ ____
ROOT
ATOM      1  C   UNL     1       1.260  -0.673   2.030  0.00  0.00    +0.056 C 
ATOM      2  C   UNL     1       1.065   0.802   2.378  0.00  0.00    +0.106 C 
ATOM      3  C   UNL     1      -0.121   0.957   3.293  0.00  0.00    +0.218 C 
ATOM      4  O   UNL     1      -0.858   1.912   3.165  0.00  0.00    -0.275 OA
ATOM      5  N   UNL     1      -0.370   0.046   4.249  0.00  0.00    -0.285 N 
ATOM      6  C   UNL     1       0.397  -1.118   4.345  0.00  0.00    +0.039 A 
ATOM      7  C   UNL     1       1.213  -1.502   3.288  0.00  0.00    -0.020 A 
ATOM      8  C   UNL     1       1.982  -2.645   3.390  0.00  0.00    +0.007 A 
ATOM      9  C   UNL     1       1.927  -3.420   4.532  0.00  0.00    +0.024 A 
ATOM     10  C   UNL     1       1.094  -3.054   5.581  0.00  0.00    +0.035 A 
ATOM     11  C   UNL     1       0.326  -1.905   5.484  0.00  0.00    +0.047 A 
ATOM     12  H   UNL     1      -1.091   0.199   4.880  0.00  0.00    +0.155 HD
ENDROOT
BRANCH   1  22
ATOM     13  C   UNL     1       1.596  -3.027  -0.173  0.00  0.00    +0.042 C 
ATOM     14  C   UNL     1       0.405  -2.537   0.609  0.00  0.00    -0.041 C 
ATOM     15  C   UNL     1      -0.647  -3.273   1.035  0.00  0.00    +0.002 A 
ATOM     16  C   UNL     1      -0.983  -4.695   0.902  0.00  0.00    +0.048 A 
ATOM     17  C   UNL     1      -2.136  -5.151   1.448  0.00  0.00    +0.124 A 
ATOM     18  C   UNL     1      -3.014  -4.298   2.136  0.00  0.00    +0.040 A 
ATOM     19  C   UNL     1      -2.772  -2.980   2.298  0.00  0.00    +0.029 A 
ATOM     20  C   UNL     1      -1.590  -2.395   1.765  0.00  0.00    +0.043 A 
ATOM     21  N   UNL     1      -1.138  -1.165   1.789  0.00  0.00    -0.377 N 
ATOM     22  C   UNL     1       0.147  -1.124   1.082  0.00  0.00    +0.114 C 
ATOM     23  F   UNL     1      -2.449  -6.460   1.328  0.00  0.00    -0.205 F 
ATOM     24  H   UNL     1      -1.578  -0.408   2.208  0.00  0.00    +0.160 HD
ENDBRANCH   1  22
BRANCH  10  25
ATOM     25  N   UNL     1       1.030  -3.845   6.734  0.00  0.00    -0.286 N 
ATOM     26  C   UNL     1       0.871  -3.265   7.941  0.00  0.00    +0.214 C 
ATOM     27  O   UNL     1       0.699  -2.067   8.020  0.00  0.00    -0.276 OA
ATOM     28  C   UNL     1       0.906  -4.106   9.191  0.00  0.00    +0.109 C 
ATOM     29  H   UNL     1       1.100  -4.809   6.665  0.00  0.00    +0.155 HD
ENDBRANCH  10  25
TORSDOF 2
