REMARK  Name = ZINC66686718
REMARK  11 active torsions:
REMARK  status: ('A' for Active; 'I' for Inactive)
REMARK    1  A    between atoms: C_1  and  C_2
REMARK    2  A    between atoms: C_5  and  N_14
REMARK    3  A    between atoms: C_7  and  C_8
REMARK    4  A    between atoms: N_10  and  C_11
REMARK    5  A    between atoms: C_11  and  C_12
REMARK    6  A    between atoms: C_11  and  C_13
REMARK    7  A    between atoms: N_17  and  C_18
REMARK    8  A    between atoms: C_18  and  C_19
REMARK    9  A    between atoms: C_24  and  N_25
REMARK   10  A    between atoms: N_25  and  C_26
REMARK   11  A    between atoms: N_25  and  C_27
REMARK                            x       y       z     vdW  Elec       q    Type
REMARK                         _______ _______ _______ _____ _____    ______ ____
ROOT
ATOM      1  N   UNL     1      -0.136  -4.019   0.306  0.00  0.00    -0.269 N 
ATOM      2  C   UNL     1      -0.007  -4.766  -0.808  0.00  0.00    +0.304 C 
ATOM      3  O   UNL     1      -0.064  -4.239  -1.903  0.00  0.00    -0.252 OA
ATOM      4  N   UNL     1       0.184  -6.096  -0.710  0.00  0.00    -0.295 N 
ATOM      5  H   UNL     1      -0.164  -4.447   1.176  0.00  0.00    +0.156 HD
ATOM      6  H   UNL     1       0.229  -6.516   0.163  0.00  0.00    +0.151 HD
ENDROOT
BRANCH   1  11
ATOM      7  C   UNL     1      -0.492   1.641  -0.066  0.00  0.00    +0.044 C 
ATOM      8  C   UNL     1      -0.400   0.140   0.029  0.00  0.00    -0.038 A 
ATOM      9  C   UNL     1       0.261  -0.444   1.091  0.00  0.00    +0.006 A 
ATOM     10  C   UNL     1       0.349  -1.821   1.183  0.00  0.00    +0.023 A 
ATOM     11  C   UNL     1      -0.228  -2.626   0.208  0.00  0.00    +0.035 A 
ATOM     12  C   UNL     1      -0.894  -2.049  -0.861  0.00  0.00    +0.036 A 
ATOM     13  C   UNL     1      -0.987  -0.660  -0.952  0.00  0.00    +0.041 A 
BRANCH  13  14
ATOM     14  C   UNL     1      -1.701  -0.036  -2.087  0.00  0.00    +0.245 C 
ATOM     15  O   UNL     1      -1.724   1.173  -2.200  0.00  0.00    -0.270 OA
ATOM     16  N   UNL     1      -2.326  -0.810  -2.996  0.00  0.00    -0.309 N 
ATOM     17  H   UNL     1      -2.308  -1.776  -2.906  0.00  0.00    +0.149 HD
BRANCH  16  18
ATOM     18  C   UNL     1      -3.034  -0.193  -4.121  0.00  0.00    +0.067 C 
ATOM     19  C   UNL     1      -2.045   0.085  -5.255  0.00  0.00    +0.027 C 
ATOM     20  C   UNL     1      -4.126  -1.141  -4.619  0.00  0.00    +0.027 C 
ENDBRANCH  16  18
ENDBRANCH  13  14
ENDBRANCH   1  11
BRANCH   4  21
ATOM     21  C   UNL     1       0.324  -6.908  -1.921  0.00  0.00    +0.144 C 
BRANCH  21  22
ATOM     22  C   UNL     1       0.526  -8.351  -1.538  0.00  0.00    +0.008 A 
ATOM     23  C   UNL     1       1.793  -8.906  -1.539  0.00  0.00    +0.010 A 
ATOM     24  C   UNL     1       1.933 -10.239  -1.179  0.00  0.00    +0.018 A 
ATOM     25  C   UNL     1       0.812 -10.968  -0.834  0.00  0.00    +0.084 A 
ATOM     26  N   UNL     1      -0.385 -10.413  -0.843  0.00  0.00    -0.349 N 
ATOM     27  C   UNL     1      -0.559  -9.143  -1.174  0.00  0.00    +0.103 A 
ATOM     28  H   UNL     1      -1.156 -10.947  -0.596  0.00  0.00    +0.167 HD
BRANCH  27  29
ATOM     29  N   UNL     1      -1.837  -8.597  -1.163  0.00  0.00    -0.323 N 
ATOM     30  C   UNL     1      -2.704  -8.739  -2.336  0.00  0.00    +0.130 C 
ATOM     31  C   UNL     1      -2.317  -7.879   0.020  0.00  0.00    +0.130 C 
ENDBRANCH  27  29
ENDBRANCH  21  22
ENDBRANCH   4  21
TORSDOF 6
