REMARK  Name = ZINC09042442
REMARK  16 active torsions:
REMARK  status: ('A' for Active; 'I' for Inactive)
REMARK    1  A    between atoms: C_1  and  C_2
REMARK    2  A    between atoms: C_2  and  N_66
REMARK    3  A    between atoms: C_3  and  C_4
REMARK    4  A    between atoms: C_3  and  N_66
REMARK    5  A    between atoms: C_5  and  C_6
REMARK    6  A    between atoms: C_5  and  N_66
REMARK    7  A    between atoms: C_6  and  N_7
REMARK    8  A    between atoms: C_8  and  C_29
REMARK    9  A    between atoms: C_11  and  C_12
REMARK   10  A    between atoms: C_11  and  O_24
REMARK   11  A    between atoms: C_13  and  C_23
REMARK   12  A    between atoms: C_14  and  C_19
REMARK   13  A    between atoms: C_17  and  C_18
REMARK   14  A    between atoms: C_19  and  O_21
REMARK   15  A    between atoms: O_21  and  C_22
REMARK   16  A    between atoms: C_32  and  N_35
REMARK                            x       y       z     vdW  Elec       q    Type
REMARK                         _______ _______ _______ _____ _____    ______ ____
ROOT
ATOM      1  N   UNL     1      -1.891  -5.883  -2.936  0.00  0.00    -0.285 N 
ATOM      2  C   UNL     1      -1.862  -5.246  -1.616  0.00  0.00    +0.144 C 
ATOM      3  C   UNL     1      -1.038  -3.987  -1.762  0.00  0.00    +0.071 C 
ATOM      4  C   UNL     1      -0.745  -3.067  -0.772  0.00  0.00    +0.135 C 
ATOM      5  C   UNL     1      -0.627  -3.943  -3.100  0.00  0.00    +0.249 C 
ATOM      6  O   UNL     1       0.062  -3.075  -3.607  0.00  0.00    -0.282 OA
ATOM      7  C   UNL     1      -1.177  -5.137  -3.796  0.00  0.00    +0.288 C 
ATOM      8  O   UNL     1      -1.005  -5.400  -4.969  0.00  0.00    -0.266 OA
ENDROOT
BRANCH   4   9
ATOM      9  C   UNL     1       0.080  -1.892  -1.082  0.00  0.00    +0.041 A 
ATOM     10  C   UNL     1      -0.358  -0.548  -1.143  0.00  0.00    -0.008 A 
ATOM     11  C   UNL     1       0.729   0.212  -1.461  0.00  0.00    +0.128 A 
ATOM     12  N   UNL     1       1.817  -0.623  -1.602  0.00  0.00    -0.352 N 
ATOM     13  H   UNL     1       2.716  -0.340  -1.831  0.00  0.00    +0.166 HD
ATOM     14  C   UNL     1       1.436  -1.889  -1.371  0.00  0.00    +0.024 A 
ATOM     15  C   UNL     1       2.329  -3.102  -1.422  0.00  0.00    +0.064 C 
ATOM     16  C   UNL     1      -1.760  -0.051  -0.901  0.00  0.00    +0.047 C 
BRANCH  11  17
ATOM     17  C   UNL     1       0.737   1.669  -1.630  0.00  0.00    +0.356 C 
ATOM     18  O   UNL     1      -0.291   2.303  -1.489  0.00  0.00    -0.243 OA
BRANCH  17  19
ATOM     19  O   UNL     1       1.884   2.304  -1.947  0.00  0.00    -0.463 OA
ATOM     20  C   UNL     1       1.818   3.747  -2.098  0.00  0.00    +0.280 C 
ENDBRANCH  17  19
ENDBRANCH  11  17
ENDBRANCH   4   9
BRANCH   2  21
ATOM     21  C   UNL     1      -1.223  -6.167  -0.609  0.00  0.00    -0.022 A 
ATOM     22  C   UNL     1      -0.137  -6.942  -0.972  0.00  0.00    +0.008 A 
ATOM     23  C   UNL     1       0.452  -7.783  -0.047  0.00  0.00    +0.033 A 
ATOM     24  C   UNL     1      -0.051  -7.857   1.238  0.00  0.00    +0.126 A 
ATOM     25  C   UNL     1      -1.139  -7.086   1.600  0.00  0.00    +0.033 A 
ATOM     26  C   UNL     1      -1.726  -6.241   0.676  0.00  0.00    +0.008 A 
BRANCH  24  27
ATOM     27  N   UNL     1       0.577  -8.762   2.228  0.00  0.00    +0.056 N 
ATOM     28  O   UNL     1       0.134  -8.827   3.360  0.00  0.00    -0.126 OA
ATOM     29  O   UNL     1       1.536  -9.441   1.909  0.00  0.00    -0.126 OA
ENDBRANCH  24  27
ENDBRANCH   2  21
BRANCH   4  30
ATOM     30  O   UNL     1      -1.218  -3.249   0.480  0.00  0.00    -0.506 OA
ATOM     31  H   UNL     1      -0.913  -2.496   1.064  0.00  0.00    +0.292 HD
ENDBRANCH   4  30
BRANCH   1  32
ATOM     32  C   UNL     1      -2.581  -7.133  -3.264  0.00  0.00    +0.090 C 
BRANCH  32  33
ATOM     33  C   UNL     1      -1.634  -8.313  -3.038  0.00  0.00    -0.060 C 
BRANCH  33  34
ATOM     34  N   UNL     1      -2.303  -9.551  -3.491  0.00  0.00    +0.380 N 
ATOM     35  H   UNL     1      -3.287  -9.525  -3.198  0.00  0.00    -0.082 HD
BRANCH  34  37
ATOM     36  C   UNL     1      -3.128 -10.807  -5.421  0.00  0.00    -0.017 C 
ATOM     37  C   UNL     1      -2.243  -9.646  -4.965  0.00  0.00    -0.082 C 
ENDBRANCH  34  37
BRANCH  34  38
ATOM     38  C   UNL     1      -1.651 -10.729  -2.882  0.00  0.00    -0.082 C 
ATOM     39  C   UNL     1      -2.141 -10.869  -1.440  0.00  0.00    -0.017 C 
ENDBRANCH  34  38
ENDBRANCH  33  34
ENDBRANCH  32  33
ENDBRANCH   1  32
TORSDOF 11
