REMARK  Name = ZINC49559809
REMARK  7 active torsions:
REMARK  status: ('A' for Active; 'I' for Inactive)
REMARK    1  A    between atoms: C_1  and  C_2
REMARK    2  A    between atoms: C_2  and  C_3
REMARK    3  A    between atoms: C_3  and  C_4
REMARK    4  A    between atoms: C_9  and  N_10
REMARK    5  A    between atoms: C_11  and  C_21
REMARK    6  A    between atoms: C_12  and  C_20
REMARK    7  A    between atoms: C_18  and  N_19
REMARK                            x       y       z     vdW  Elec       q    Type
REMARK                         _______ _______ _______ _____ _____    ______ ____
ROOT
ATOM      1  N   UNL     1      -1.461  -2.025  -2.265  0.00  0.00    -0.298 N 
ATOM      2  C   UNL     1      -1.625  -1.632  -3.571  0.00  0.00    +0.026 A 
ATOM      3  C   UNL     1      -2.801  -1.000  -3.711  0.00  0.00    -0.017 A 
ATOM      4  C   UNL     1      -3.437  -0.989  -2.394  0.00  0.00    +0.062 A 
ATOM      5  C   UNL     1      -2.551  -1.652  -1.524  0.00  0.00    +0.151 A 
ATOM      6  N   UNL     1      -2.897  -1.788  -0.245  0.00  0.00    -0.217 NA
ATOM      7  C   UNL     1      -4.042  -1.314   0.195  0.00  0.00    +0.225 A 
ATOM      8  N   UNL     1      -4.904  -0.688  -0.587  0.00  0.00    -0.220 NA
ATOM      9  C   UNL     1      -4.644  -0.496  -1.877  0.00  0.00    +0.129 A 
ATOM     10  C   UNL     1      -3.360  -0.414  -4.982  0.00  0.00    +0.046 C 
ATOM     11  C   UNL     1      -0.633  -1.874  -4.679  0.00  0.00    +0.064 C 
ENDROOT
BRANCH   1  17
ATOM     12  C   UNL     1       0.739  -2.004  -1.265  0.00  0.00    -0.023 A 
ATOM     13  C   UNL     1       1.834  -2.684  -0.768  0.00  0.00    +0.005 A 
ATOM     14  C   UNL     1       1.853  -4.066  -0.775  0.00  0.00    +0.000 A 
ATOM     15  C   UNL     1       0.777  -4.773  -1.279  0.00  0.00    +0.002 A 
ATOM     16  C   UNL     1      -0.321  -4.100  -1.777  0.00  0.00    +0.026 A 
ATOM     17  C   UNL     1      -0.346  -2.711  -1.766  0.00  0.00    +0.051 A 
BRANCH  12  18
ATOM     18  C   UNL     1       0.718  -0.497  -1.257  0.00  0.00    +0.037 C 
BRANCH  18  20
ATOM     19  C   UNL     1      -0.019   1.526   0.010  0.00  0.00    +0.004 C 
ATOM     20  C   UNL     1       0.002  -0.004   0.002  0.00  0.00    +0.001 C 
ENDBRANCH  18  20
ENDBRANCH  12  18
ENDBRANCH   1  17
BRANCH   9  21
ATOM     21  N   UNL     1      -5.550   0.158  -2.693  0.00  0.00    -0.343 N 
ATOM     22  H   UNL     1      -5.354   0.282  -3.635  0.00  0.00    +0.144 HD
ATOM     23  H   UNL     1      -6.381   0.494  -2.323  0.00  0.00    +0.144 HD
ENDBRANCH   9  21
TORSDOF 4
