REMARK  Name = ZINC48863586
REMARK  6 active torsions:
REMARK  status: ('A' for Active; 'I' for Inactive)
REMARK    1  A    between atoms: C_1  and  C_2
REMARK    2  A    between atoms: C_3  and  C_11
REMARK    3  A    between atoms: C_4  and  C_10
REMARK    4  A    between atoms: C_11  and  C_12
REMARK    5  A    between atoms: C_18  and  C_20
REMARK    6  A    between atoms: C_20  and  O_21
REMARK                            x       y       z     vdW  Elec       q    Type
REMARK                         _______ _______ _______ _____ _____    ______ ____
ROOT
ATOM      1  C   UNL     1      -2.488   0.007   0.014  0.00  0.00    +0.134 C 
ENDROOT
BRANCH   1   4
ATOM      2  C   UNL     1      -0.018   1.503   0.010  0.00  0.00    +0.064 C 
ATOM      3  C   UNL     1       0.002  -0.004   0.002  0.00  0.00    +0.023 A 
ATOM      4  C   UNL     1      -1.162  -0.708   0.004  0.00  0.00    +0.001 A 
ATOM      5  C   UNL     1      -1.110  -2.106  -0.004  0.00  0.00    +0.049 A 
ATOM      6  N   UNL     1       0.056  -2.719  -0.013  0.00  0.00    -0.198 NA
ATOM      7  C   UNL     1       1.195  -2.022  -0.015  0.00  0.00    +0.346 A 
ATOM      8  O   UNL     1       2.261  -2.614  -0.023  0.00  0.00    -0.245 OA
ATOM      9  N   UNL     1       1.183  -0.676  -0.013  0.00  0.00    -0.310 N 
ATOM     10  H   UNL     1       2.019  -0.184  -0.019  0.00  0.00    +0.170 HD
ATOM     11  C   UNL     1      -2.386  -2.908  -0.002  0.00  0.00    +0.066 C 
ENDBRANCH   1   4
BRANCH   1  12
ATOM     12  C   UNL     1      -2.996   0.145  -1.398  0.00  0.00    +0.220 C 
ATOM     13  O   UNL     1      -2.345  -0.295  -2.322  0.00  0.00    -0.275 OA
ATOM     14  N   UNL     1      -4.173   0.757  -1.634  0.00  0.00    -0.296 N 
ATOM     15  C   UNL     1      -5.059   1.340  -0.610  0.00  0.00    +0.108 C 
ATOM     16  C   UNL     1      -6.467   1.337  -1.255  0.00  0.00    +0.021 C 
ATOM     17  C   UNL     1      -6.133   1.674  -2.733  0.00  0.00    +0.026 C 
ATOM     18  C   UNL     1      -4.784   0.959  -2.956  0.00  0.00    +0.101 C 
BRANCH  18  19
ATOM     19  C   UNL     1      -3.870   1.826  -3.824  0.00  0.00    +0.178 C 
BRANCH  19  20
ATOM     20  O   UNL     1      -3.771   3.133  -3.255  0.00  0.00    -0.393 OA
ATOM     21  H   UNL     1      -3.206   3.738  -3.755  0.00  0.00    +0.209 HD
ENDBRANCH  19  20
ENDBRANCH  18  19
ENDBRANCH   1  12
TORSDOF 4
