REMARK  Name = ZINC00940744
REMARK  4 active torsions:
REMARK  status: ('A' for Active; 'I' for Inactive)
REMARK    1  A    between atoms: C_1  and  C_2
REMARK    2  A    between atoms: C_3  and  C_24
REMARK    3  A    between atoms: C_4  and  C_17
REMARK    4  A    between atoms: C_10  and  C_12
REMARK                            x       y       z     vdW  Elec       q    Type
REMARK                         _______ _______ _______ _____ _____    ______ ____
ROOT
ATOM      1  C   UNL     1      -0.443   1.579  -0.323  0.00  0.00    +0.064 C 
ATOM      2  C   UNL     1      -0.251   0.092  -0.169  0.00  0.00    +0.026 C 
ATOM      3  C   UNL     1      -1.352  -0.718  -0.135  0.00  0.00    +0.059 C 
ATOM      4  C   UNL     1      -1.111  -2.209   0.021  0.00  0.00    +0.166 C 
ATOM      5  N   UNL     1       0.292  -2.630   0.120  0.00  0.00    -0.209 N 
ATOM      6  C   UNL     1       1.279  -1.673   0.068  0.00  0.00    +0.215 C 
ATOM      7  N   UNL     1       0.978  -0.389  -0.075  0.00  0.00    -0.330 N 
ATOM      8  N   UNL     1       2.457  -2.301   0.179  0.00  0.00    -0.197 NA
ATOM      9  C   UNL     1       2.273  -3.606   0.300  0.00  0.00    +0.153 C 
ATOM     10  N   UNL     1       0.924  -3.867   0.269  0.00  0.00    -0.244 N 
ATOM     11  H   UNL     1       1.712   0.243  -0.111  0.00  0.00    +0.168 HD
ATOM     12  H   UNL     1       0.497  -4.735   0.337  0.00  0.00    +0.172 HD
ENDROOT
BRANCH   4  13
ATOM     13  C   UNL     1      -1.825  -2.673   1.264  0.00  0.00    +0.014 A 
ATOM     14  C   UNL     1      -2.203  -1.756   2.227  0.00  0.00    +0.009 A 
ATOM     15  C   UNL     1      -2.858  -2.181   3.368  0.00  0.00    +0.001 A 
ATOM     16  C   UNL     1      -3.137  -3.523   3.547  0.00  0.00    +0.003 A 
ATOM     17  C   UNL     1      -2.761  -4.441   2.585  0.00  0.00    +0.039 A 
ATOM     18  C   UNL     1      -2.109  -4.016   1.440  0.00  0.00    +0.129 A 
ATOM     19  F   UNL     1      -1.745  -4.913   0.497  0.00  0.00    -0.205 F 
ENDBRANCH   4  13
BRANCH   9  20
ATOM     20  C   UNL     1       3.331  -4.606   0.442  0.00  0.00    +0.053 A 
ATOM     21  C   UNL     1       4.708  -4.423   0.487  0.00  0.00    +0.019 A 
ATOM     22  C   UNL     1       5.455  -5.566   0.629  0.00  0.00    +0.008 A 
ATOM     23  C   UNL     1       4.822  -6.763   0.713  0.00  0.00    +0.046 A 
ATOM     24  S   UNL     1       3.191  -6.375   0.610  0.00  0.00    -0.094 S 
ENDBRANCH   9  20
BRANCH   3  25
ATOM     25  C   UNL     1      -2.652  -0.193  -0.241  0.00  0.00    +0.241 C 
ATOM     26  O   UNL     1      -2.822   1.014  -0.257  0.00  0.00    -0.271 OA
ATOM     27  N   UNL     1      -3.709  -1.024  -0.324  0.00  0.00    -0.325 N 
ATOM     28  H   UNL     1      -3.582  -1.982  -0.239  0.00  0.00    +0.145 HD
ATOM     29  H   UNL     1      -4.599  -0.665  -0.469  0.00  0.00    +0.145 HD
ENDBRANCH   3  25
TORSDOF 3
