REMARK  Name = ZINC66632417
REMARK  7 active torsions:
REMARK  status: ('A' for Active; 'I' for Inactive)
REMARK    1  A    between atoms: C_1  and  O_2
REMARK    2  A    between atoms: O_2  and  C_3
REMARK    3  A    between atoms: C_3  and  C_4
REMARK    4  A    between atoms: C_4  and  N_5
REMARK    5  A    between atoms: N_8  and  N_9
REMARK    6  A    between atoms: C_10  and  C_12
REMARK    7  A    between atoms: C_24  and  C_26
REMARK                            x       y       z     vdW  Elec       q    Type
REMARK                         _______ _______ _______ _____ _____    ______ ____
ROOT
ATOM      1  C   UNL     1       4.245  -3.010  -4.173  0.00  0.00    +0.164 C 
ATOM      2  C   UNL     1       5.595  -2.700  -3.469  0.00  0.00    +0.037 C 
ATOM      3  C   UNL     1       6.507  -2.385  -4.664  0.00  0.00    +0.012 C 
ATOM      4  C   UNL     1       7.988  -2.632  -4.431  0.00  0.00    +0.005 C 
ATOM      5  C   UNL     1       8.708  -2.386  -5.767  0.00  0.00    +0.000 C 
ATOM      6  C   UNL     1       8.166  -3.292  -6.869  0.00  0.00    +0.002 C 
ATOM      7  C   UNL     1       6.643  -3.146  -7.016  0.00  0.00    +0.023 C 
ATOM      8  C   UNL     1       6.012  -3.451  -5.678  0.00  0.00    +0.080 C 
ATOM      9  N   UNL     1       4.559  -3.398  -5.569  0.00  0.00    -0.283 N 
ATOM     10  C   UNL     1       3.668  -3.652  -6.548  0.00  0.00    +0.247 C 
ATOM     11  O   UNL     1       4.055  -3.884  -7.677  0.00  0.00    -0.270 OA
ENDROOT
BRANCH  10  12
ATOM     12  C   UNL     1       2.220  -3.649  -6.250  0.00  0.00    +0.037 A 
ATOM     13  C   UNL     1       1.670  -2.639  -5.459  0.00  0.00    +0.013 A 
ATOM     14  C   UNL     1       0.318  -2.642  -5.184  0.00  0.00    +0.001 A 
ATOM     15  C   UNL     1      -0.492  -3.643  -5.691  0.00  0.00    +0.000 A 
ATOM     16  C   UNL     1       0.047  -4.647  -6.475  0.00  0.00    +0.001 A 
ATOM     17  C   UNL     1       1.396  -4.652  -6.763  0.00  0.00    +0.013 A 
ENDBRANCH  10  12
BRANCH   1  19
ATOM     18  N   UNL     1       2.851  -3.912  -2.340  0.00  0.00    -0.232 N 
ATOM     19  C   UNL     1       3.548  -4.146  -3.469  0.00  0.00    +0.250 C 
ATOM     20  O   UNL     1       3.614  -5.270  -3.919  0.00  0.00    -0.272 OA
ATOM     21  H   UNL     1       2.798  -3.012  -1.980  0.00  0.00    +0.173 HD
BRANCH  18  25
ATOM     22  N   UNL     1       1.431  -3.484  -0.056  0.00  0.00    -0.296 N 
ATOM     23  C   UNL     1       1.505  -4.733  -0.556  0.00  0.00    +0.316 C 
ATOM     24  O   UNL     1       0.942  -5.649   0.011  0.00  0.00    -0.251 OA
ATOM     25  N   UNL     1       2.202  -4.967  -1.686  0.00  0.00    -0.218 N 
ATOM     26  H   UNL     1       1.880  -2.753  -0.509  0.00  0.00    +0.150 HD
ATOM     27  H   UNL     1       2.255  -5.867  -2.046  0.00  0.00    +0.174 HD
BRANCH  22  28
ATOM     28  C   UNL     1       0.673  -3.229   1.171  0.00  0.00    +0.134 C 
BRANCH  28  29
ATOM     29  C   UNL     1       0.750  -1.741   1.518  0.00  0.00    +0.178 C 
BRANCH  29  31
ATOM     30  C   UNL     1       0.105   0.429   0.733  0.00  0.00    +0.194 C 
ATOM     31  O   UNL     1       0.091  -0.981   0.503  0.00  0.00    -0.381 OA
ENDBRANCH  29  31
ENDBRANCH  28  29
ENDBRANCH  22  28
ENDBRANCH  18  25
ENDBRANCH   1  19
TORSDOF 6
