REMARK  Name = ZINC37418710
REMARK  2 active torsions:
REMARK  status: ('A' for Active; 'I' for Inactive)
REMARK    1  A    between atoms: C_6  and  C_10
REMARK    2  A    between atoms: C_10  and  N_11
REMARK                            x       y       z     vdW  Elec       q    Type
REMARK                         _______ _______ _______ _____ _____    ______ ____
ROOT
ATOM      1  C   UNL     1      -0.016   1.356   0.009  0.00  0.00    +0.005 A 
ATOM      2  C   UNL     1       1.194   2.068   0.002  0.00  0.00    +0.018 A 
ATOM      3  C   UNL     1       2.372   1.409  -0.013  0.00  0.00    +0.092 A 
ATOM      4  N   UNL     1       2.405   0.045  -0.021  0.00  0.00    -0.306 N 
ATOM      5  C   UNL     1       3.434  -0.856  -0.037  0.00  0.00    +0.117 A 
ATOM      6  C   UNL     1       2.885  -2.090  -0.039  0.00  0.00    +0.081 A 
ATOM      7  N   UNL     1       1.556  -1.965  -0.025  0.00  0.00    -0.231 NA
ATOM      8  C   UNL     1       1.240  -0.678  -0.014  0.00  0.00    +0.138 A 
ATOM      9  C   UNL     1       0.002  -0.004   0.002  0.00  0.00    +0.047 A 
ENDROOT
BRANCH   6  10
ATOM     10  C   UNL     1       3.645  -3.391  -0.054  0.00  0.00    +0.200 C 
BRANCH  10  11
ATOM     11  N   UNL     1       3.219  -4.220   1.076  0.00  0.00    -0.264 N 
ATOM     12  C   UNL     1       2.756  -5.485   1.002  0.00  0.00    +0.110 A 
ATOM     13  C   UNL     1       2.472  -5.897   2.258  0.00  0.00    +0.064 A 
ATOM     14  C   UNL     1       2.774  -4.844   3.136  0.00  0.00    +0.138 A 
ATOM     15  N   UNL     1       3.228  -3.839   2.424  0.00  0.00    -0.156 NA
ATOM     16  N   UNL     1       2.623  -4.864   4.528  0.00  0.00    -0.342 N 
ATOM     17  H   UNL     1       2.282  -5.658   4.967  0.00  0.00    +0.144 HD
ATOM     18  H   UNL     1       2.860  -4.083   5.053  0.00  0.00    +0.144 HD
ENDBRANCH  10  11
ENDBRANCH   6  10
TORSDOF 2
