REMARK  Name = ZINC36066174
REMARK  13 active torsions:
REMARK  status: ('A' for Active; 'I' for Inactive)
REMARK    1  A    between atoms: C_1  and  C_2
REMARK    2  A    between atoms: C_7  and  N_12
REMARK    3  A    between atoms: C_9  and  C_11
REMARK    4  A    between atoms: C_13  and  C_15
REMARK    5  A    between atoms: C_23  and  C_35
REMARK    6  A    between atoms: N_29  and  C_30
REMARK    7  A    between atoms: C_30  and  C_31
REMARK    8  A    between atoms: C_31  and  C_32
REMARK    9  A    between atoms: C_32  and  O_33
REMARK   10  A    between atoms: O_33  and  C_34
REMARK   11  A    between atoms: N_37  and  C_38
REMARK   12  A    between atoms: C_41  and  O_44
REMARK   13  A    between atoms: O_44  and  C_45
REMARK                            x       y       z     vdW  Elec       q    Type
REMARK                         _______ _______ _______ _____ _____    ______ ____
ROOT
ATOM      1  C   UNL     1       2.003  -4.310   3.301  0.00  0.00    +0.198 C 
ATOM      2  C   UNL     1       3.333  -4.996   3.247  0.00  0.00    +0.127 C 
ATOM      3  C   UNL     1       3.340  -6.195   2.317  0.00  0.00    +0.009 C 
ATOM      4  C   UNL     1       4.570  -6.684   2.369  0.00  0.00    +0.004 C 
ATOM      5  C   UNL     1       5.303  -5.806   3.391  0.00  0.00    +0.155 C 
ATOM      6  O   UNL     1       4.644  -4.489   3.170  0.00  0.00    -0.358 OA
ATOM      7  C   UNL     1       4.673  -6.288   4.755  0.00  0.00    +0.123 C 
ATOM      8  C   UNL     1       3.354  -5.515   4.740  0.00  0.00    +0.128 C 
ATOM      9  C   UNL     1       1.996  -6.081   4.841  0.00  0.00    +0.223 C 
ATOM     10  O   UNL     1       1.665  -7.053   5.486  0.00  0.00    -0.275 OA
ATOM     11  N   UNL     1       1.177  -5.295   4.066  0.00  0.00    -0.286 N 
ENDROOT
BRANCH   1  13
ATOM     12  N   UNL     1       1.655  -2.935   1.274  0.00  0.00    -0.311 N 
ATOM     13  C   UNL     1       1.447  -4.102   1.915  0.00  0.00    +0.237 C 
ATOM     14  O   UNL     1       0.813  -4.985   1.378  0.00  0.00    -0.274 OA
ATOM     15  H   UNL     1       2.162  -2.229   1.704  0.00  0.00    +0.149 HD
BRANCH  12  21
ATOM     16  C   UNL     1       0.168   0.471  -1.986  0.00  0.00    +0.008 C 
ATOM     17  C   UNL     1       0.359  -1.025  -1.733  0.00  0.00    -0.009 C 
ATOM     18  C   UNL     1       1.334  -1.597  -2.764  0.00  0.00    +0.003 C 
ATOM     19  C   UNL     1       1.526  -3.093  -2.510  0.00  0.00    +0.002 C 
ATOM     20  C   UNL     1       2.090  -3.304  -1.104  0.00  0.00    +0.022 C 
ATOM     21  C   UNL     1       1.115  -2.733  -0.072  0.00  0.00    +0.076 C 
ATOM     22  C   UNL     1       0.923  -1.236  -0.326  0.00  0.00    +0.009 C 
ATOM     23  C   UNL     1      -0.052  -0.665   0.705  0.00  0.00    +0.009 C 
ENDBRANCH  12  21
ENDBRANCH   1  13
BRANCH   7  24
ATOM     24  C   UNL     1       4.448  -7.778   4.750  0.00  0.00    +0.224 C 
ATOM     25  O   UNL     1       3.325  -8.223   4.868  0.00  0.00    -0.275 OA
ATOM     26  N   UNL     1       5.494  -8.617   4.615  0.00  0.00    -0.285 N 
ATOM     27  H   UNL     1       6.381  -8.263   4.445  0.00  0.00    +0.155 HD
BRANCH  26  28
ATOM     28  C   UNL     1       5.301 -10.001   4.719  0.00  0.00    +0.034 A 
ATOM     29  C   UNL     1       6.079 -10.870   3.966  0.00  0.00    +0.027 A 
ATOM     30  C   UNL     1       5.888 -12.233   4.069  0.00  0.00    +0.047 A 
ATOM     31  C   UNL     1       4.919 -12.735   4.925  0.00  0.00    +0.120 A 
ATOM     32  C   UNL     1       4.140 -11.868   5.677  0.00  0.00    +0.047 A 
ATOM     33  C   UNL     1       4.334 -10.504   5.579  0.00  0.00    +0.027 A 
BRANCH  31  34
ATOM     34  O   UNL     1       4.731 -14.078   5.026  0.00  0.00    -0.495 OA
ATOM     35  C   UNL     1       3.716 -14.525   5.926  0.00  0.00    +0.277 C 
ENDBRANCH  31  34
ENDBRANCH  26  28
ENDBRANCH   7  24
BRANCH  11  36
ATOM     36  C   UNL     1      -0.283  -5.406   3.999  0.00  0.00    +0.111 C 
BRANCH  36  37
ATOM     37  C   UNL     1      -0.908  -4.605   5.142  0.00  0.00    +0.047 C 
BRANCH  37  38
ATOM     38  C   UNL     1      -2.428  -4.782   5.118  0.00  0.00    +0.161 C 
BRANCH  38  39
ATOM     39  O   UNL     1      -3.012  -4.034   6.186  0.00  0.00    -0.383 OA
ATOM     40  C   UNL     1      -4.436  -4.132   6.253  0.00  0.00    +0.193 C 
ENDBRANCH  38  39
ENDBRANCH  37  38
ENDBRANCH  36  37
ENDBRANCH  11  36
TORSDOF 9
