REMARK  Name = ZINC65172196
REMARK  9 active torsions:
REMARK  status: ('A' for Active; 'I' for Inactive)
REMARK    1  A    between atoms: C_1  and  C_2
REMARK    2  A    between atoms: C_2  and  C_3
REMARK    3  A    between atoms: C_3  and  N_4
REMARK    4  A    between atoms: C_5  and  C_7
REMARK    5  A    between atoms: C_7  and  C_8
REMARK    6  A    between atoms: N_12  and  C_20
REMARK    7  A    between atoms: C_20  and  C_21
REMARK    8  A    between atoms: C_21  and  C_22
REMARK    9  A    between atoms: C_21  and  C_23
REMARK                            x       y       z     vdW  Elec       q    Type
REMARK                         _______ _______ _______ _____ _____    ______ ____
ROOT
ATOM      1  C   UNL     1       2.058  -4.623  -3.552  0.00  0.00    +0.148 C 
ATOM      2  C   UNL     1       2.180  -6.124  -3.509  0.00  0.00    +0.234 C 
ATOM      3  O   UNL     1       3.229  -6.607  -3.138  0.00  0.00    -0.274 OA
ATOM      4  N   UNL     1       1.194  -6.944  -3.857  0.00  0.00    -0.268 N 
ATOM      5  C   UNL     1      -0.027  -6.581  -4.415  0.00  0.00    +0.068 A 
ATOM      6  C   UNL     1      -1.079  -7.492  -4.410  0.00  0.00    +0.027 A 
ATOM      7  C   UNL     1      -2.293  -7.110  -4.961  0.00  0.00    +0.022 A 
ATOM      8  C   UNL     1      -2.429  -5.845  -5.496  0.00  0.00    +0.112 A 
ATOM      9  N   UNL     1      -1.416  -4.997  -5.493  0.00  0.00    -0.247 NA
ATOM     10  C   UNL     1      -0.241  -5.323  -4.983  0.00  0.00    +0.119 A 
ATOM     11  S   UNL     1       1.095  -4.159  -5.024  0.00  0.00    -0.091 S 
ENDROOT
BRANCH   1  12
ATOM     12  C   UNL     1       1.341  -4.130  -2.293  0.00  0.00    +0.119 C 
BRANCH  12  14
ATOM     13  N   UNL     1       0.738  -1.962  -1.265  0.00  0.00    -0.315 N 
ATOM     14  C   UNL     1       1.321  -2.623  -2.285  0.00  0.00    +0.215 C 
ATOM     15  O   UNL     1       1.829  -2.004  -3.196  0.00  0.00    -0.276 OA
ATOM     16  H   UNL     1       0.332  -2.457  -0.536  0.00  0.00    +0.149 HD
BRANCH  13  17
ATOM     17  C   UNL     1       0.718  -0.497  -1.257  0.00  0.00    +0.104 C 
BRANCH  17  19
ATOM     18  C   UNL     1      -0.019   1.526   0.010  0.00  0.00    +0.005 C 
ATOM     19  C   UNL     1       0.002  -0.004   0.002  0.00  0.00    +0.015 C 
ENDBRANCH  17  19
ENDBRANCH  13  17
ENDBRANCH  12  14
ENDBRANCH   1  12
BRANCH   4  20
ATOM     20  C   UNL     1       1.416  -8.375  -3.632  0.00  0.00    +0.116 C 
BRANCH  20  21
ATOM     21  C   UNL     1       0.926  -8.753  -2.233  0.00  0.00    +0.001 C 
ATOM     22  C   UNL     1       1.043 -10.266  -2.044  0.00  0.00    +0.009 C 
ATOM     23  C   UNL     1       1.782  -8.040  -1.184  0.00  0.00    +0.009 C 
ENDBRANCH  20  21
ENDBRANCH   4  20
TORSDOF 6
