REMARK  Name = ZINC35520432
REMARK  8 active torsions:
REMARK  status: ('A' for Active; 'I' for Inactive)
REMARK    1  A    between atoms: C_1  and  C_2
REMARK    2  A    between atoms: C_2  and  C_3
REMARK    3  A    between atoms: C_3  and  O_4
REMARK    4  A    between atoms: O_4  and  C_5
REMARK    5  A    between atoms: C_8  and  C_11
REMARK    6  A    between atoms: C_11  and  C_12
REMARK    7  A    between atoms: C_13  and  C_30
REMARK    8  A    between atoms: C_34  and  O_36
REMARK                            x       y       z     vdW  Elec       q    Type
REMARK                         _______ _______ _______ _____ _____    ______ ____
ROOT
ATOM      1  C   UNL     1      -6.545  -6.052  -0.000  0.00  0.00    +0.077 C 
ATOM      2  C   UNL     1      -5.416  -7.056   0.001  0.00  0.00    +0.152 C 
ATOM      3  N   UNL     1      -6.045  -8.379  -0.083  0.00  0.00    -0.232 N 
ATOM      4  C   UNL     1      -7.378  -8.201  -0.129  0.00  0.00    +0.293 C 
ATOM      5  O   UNL     1      -8.199  -9.094  -0.201  0.00  0.00    -0.266 OA
ATOM      6  C   UNL     1      -7.697  -6.760  -0.073  0.00  0.00    +0.250 C 
ATOM      7  O   UNL     1      -8.942  -6.231  -0.093  0.00  0.00    -0.282 OA
ATOM      8  C   UNL     1      -5.385  -9.595  -0.111  0.00  0.00    +0.169 A 
ATOM      9  N   UNL     1      -4.095  -9.832  -0.064  0.00  0.00    -0.224 NA
ATOM     10  C   UNL     1      -3.584 -11.082  -0.100  0.00  0.00    +0.080 A 
ATOM     11  C   UNL     1      -2.226 -11.472  -0.058  0.00  0.00    +0.030 A 
ATOM     12  C   UNL     1      -1.875 -12.796  -0.104  0.00  0.00    +0.022 A 
ATOM     13  C   UNL     1      -2.833 -13.797  -0.195  0.00  0.00    +0.042 A 
ATOM     14  C   UNL     1      -4.172 -13.452  -0.237  0.00  0.00    +0.037 A 
ATOM     15  C   UNL     1      -4.532 -12.128  -0.191  0.00  0.00    +0.042 A 
ATOM     16  S   UNL     1      -6.072 -11.242  -0.212  0.00  0.00    -0.052 S 
ATOM     17 CL   UNL     1      -2.356 -15.465  -0.253  0.00  0.00    -0.084 Cl
ENDROOT
BRANCH   2  18
ATOM     18  C   UNL     1      -4.621  -6.941   1.275  0.00  0.00    -0.019 A 
ATOM     19  C   UNL     1      -5.061  -7.573   2.424  0.00  0.00    +0.006 A 
ATOM     20  C   UNL     1      -4.333  -7.468   3.595  0.00  0.00    +0.004 A 
ATOM     21  C   UNL     1      -3.165  -6.732   3.621  0.00  0.00    +0.045 A 
ATOM     22  C   UNL     1      -2.721  -6.097   2.470  0.00  0.00    +0.117 A 
ATOM     23  C   UNL     1      -3.450  -6.208   1.294  0.00  0.00    +0.051 A 
BRANCH  22  24
ATOM     24  O   UNL     1      -1.572  -5.372   2.492  0.00  0.00    -0.507 OA
ATOM     25  H   UNL     1      -0.780  -5.883   2.278  0.00  0.00    +0.292 HD
ENDBRANCH  22  24
ENDBRANCH   2  18
BRANCH   1  26
ATOM     26  C   UNL     1      -6.418  -4.593   0.070  0.00  0.00    +0.195 C 
ATOM     27  O   UNL     1      -6.810  -3.995   1.055  0.00  0.00    -0.287 OA
BRANCH  26  31
ATOM     28  C   UNL     1      -4.682  -2.454  -3.162  0.00  0.00    +0.121 A 
ATOM     29  C   UNL     1      -5.204  -1.763  -2.074  0.00  0.00    +0.046 A 
ATOM     30  C   UNL     1      -5.767  -2.453  -1.024  0.00  0.00    +0.015 A 
ATOM     31  C   UNL     1      -5.815  -3.850  -1.053  0.00  0.00    +0.022 A 
ATOM     32  C   UNL     1      -5.290  -4.541  -2.150  0.00  0.00    +0.015 A 
ATOM     33  C   UNL     1      -4.733  -3.843  -3.197  0.00  0.00    +0.046 A 
BRANCH  28  34
ATOM     34  O   UNL     1      -4.127  -1.771  -4.194  0.00  0.00    -0.492 OA
BRANCH  34  35
ATOM     35  C   UNL     1      -4.107  -0.345  -4.093  0.00  0.00    +0.229 C 
BRANCH  35  37
ATOM     36  C   UNL     1      -3.428   1.772  -5.232  0.00  0.00    +0.007 C 
ATOM     37  C   UNL     1      -3.448   0.246  -5.341  0.00  0.00    +0.038 C 
ENDBRANCH  35  37
ENDBRANCH  34  35
ENDBRANCH  28  34
ENDBRANCH  26  31
ENDBRANCH   1  26
TORSDOF 7
