REMARK  Name = ZINC61891260
REMARK  7 active torsions:
REMARK  status: ('A' for Active; 'I' for Inactive)
REMARK    1  A    between atoms: C_1  and  C_2
REMARK    2  A    between atoms: C_2  and  C_4
REMARK    3  A    between atoms: C_2  and  N_12
REMARK    4  A    between atoms: C_6  and  O_11
REMARK    5  A    between atoms: C_9  and  O_10
REMARK    6  A    between atoms: N_12  and  C_13
REMARK    7  A    between atoms: C_18  and  C_20
REMARK                            x       y       z     vdW  Elec       q    Type
REMARK                         _______ _______ _______ _____ _____    ______ ____
ROOT
ATOM      1  C   UNL     1      -0.019   1.526   0.010  0.00  0.00    +0.029 C 
ATOM      2  C   UNL     1       0.002  -0.004   0.002  0.00  0.00    +0.085 C 
ENDROOT
BRANCH   2   3
ATOM      3  C   UNL     1       0.731  -0.503   1.223  0.00  0.00    +0.014 A 
ATOM      4  C   UNL     1       0.018  -0.951   2.318  0.00  0.00    +0.054 A 
ATOM      5  C   UNL     1       0.689  -1.410   3.442  0.00  0.00    +0.117 A 
ATOM      6  C   UNL     1       2.075  -1.421   3.465  0.00  0.00    +0.049 A 
ATOM      7  C   UNL     1       2.788  -0.974   2.370  0.00  0.00    +0.049 A 
ATOM      8  C   UNL     1       2.117  -0.519   1.245  0.00  0.00    +0.122 A 
BRANCH   8   9
ATOM      9  O   UNL     1       2.819  -0.084   0.164  0.00  0.00    -0.506 OA
ATOM     10  H   UNL     1       3.026   0.860   0.184  0.00  0.00    +0.292 HD
ENDBRANCH   8   9
BRANCH   5  11
ATOM     11  O   UNL     1      -0.013  -1.850   4.520  0.00  0.00    -0.507 OA
ATOM     12  H   UNL     1      -0.217  -2.795   4.498  0.00  0.00    +0.292 HD
ENDBRANCH   5  11
ENDBRANCH   2   3
BRANCH   2  13
ATOM     13  N   UNL     1      -1.376  -0.512   0.012  0.00  0.00    -0.305 NA
ATOM     14  H   UNL     1      -1.426  -1.413   0.464  0.00  0.00    +0.123 HD
BRANCH  13  15
ATOM     15  C   UNL     1      -1.924  -0.575  -1.349  0.00  0.00    +0.071 C 
ATOM     16  C   UNL     1      -2.556   0.780  -1.727  0.00  0.00    +0.020 C 
ATOM     17  C   UNL     1      -3.804   0.398  -2.562  0.00  0.00    +0.003 C 
ATOM     18  C   UNL     1      -4.330  -0.862  -1.831  0.00  0.00    +0.020 C 
ATOM     19  C   UNL     1      -3.052  -1.621  -1.415  0.00  0.00    +0.108 C 
BRANCH  19  20
ATOM     20  C   UNL     1      -3.241  -2.243  -0.095  0.00  0.00    +0.067 C 
ATOM     21  N   UNL     1      -3.387  -2.723   0.924  0.00  0.00    -0.196 NA
ENDBRANCH  19  20
ENDBRANCH  13  15
ENDBRANCH   2  13
TORSDOF 6
