REMARK  Name = ZINC08872275
REMARK  11 active torsions:
REMARK  status: ('A' for Active; 'I' for Inactive)
REMARK    1  A    between atoms: N_19  and  N_20
REMARK    2  A    between atoms: C_21  and  C_22
REMARK    3  A    between atoms: C_22  and  C_24
REMARK    4  A    between atoms: C_22  and  O_35
REMARK    5  A    between atoms: C_24  and  C_26
REMARK    6  A    between atoms: C_24  and  O_34
REMARK    7  A    between atoms: C_26  and  C_28
REMARK    8  A    between atoms: C_26  and  O_33
REMARK    9  A    between atoms: C_28  and  C_30
REMARK   10  A    between atoms: C_28  and  O_32
REMARK   11  A    between atoms: C_30  and  O_31
REMARK                            x       y       z     vdW  Elec       q    Type
REMARK                         _______ _______ _______ _____ _____    ______ ____
ROOT
ATOM      1  C   UNL     1      -0.764   3.110   1.262  0.00  0.00    +0.003 C 
ATOM      2  C   UNL     1      -0.729   1.579   1.267  0.00  0.00    +0.019 C 
ATOM      3  C   UNL     1      -0.013   1.086   0.008  0.00  0.00    +0.108 C 
ATOM      4  N   UNL     1      -0.723   1.572  -1.182  0.00  0.00    -0.299 N 
ATOM      5  C   UNL     1      -0.729   3.040  -1.234  0.00  0.00    +0.108 C 
ATOM      6  C   UNL     1      -1.466   3.591  -0.011  0.00  0.00    +0.019 C 
ATOM      7  C   UNL     1      -0.180   1.039  -2.334  0.00  0.00    +0.224 A 
ATOM      8  N   UNL     1       0.851   0.203  -2.258  0.00  0.00    -0.180 NA
ATOM      9  C   UNL     1       1.373  -0.310  -3.367  0.00  0.00    +0.241 A 
ATOM     10  N   UNL     1       0.864   0.012  -4.553  0.00  0.00    -0.180 NA
ATOM     11  C   UNL     1      -0.166   0.848  -4.628  0.00  0.00    +0.224 A 
ATOM     12  N   UNL     1      -0.692   1.357  -3.519  0.00  0.00    -0.181 NA
ATOM     13  N   UNL     1      -0.695   1.182  -5.859  0.00  0.00    -0.299 N 
ATOM     14  C   UNL     1      -2.132   0.885  -5.913  0.00  0.00    +0.108 C 
ATOM     15  C   UNL     1      -2.712   1.400  -7.232  0.00  0.00    +0.019 C 
ATOM     16  C   UNL     1      -1.988   0.725  -8.400  0.00  0.00    +0.003 C 
ATOM     17  C   UNL     1      -0.487   1.010  -8.293  0.00  0.00    +0.019 C 
ATOM     18  C   UNL     1       0.028   0.506  -6.943  0.00  0.00    +0.108 C 
ATOM     19  N   UNL     1       2.445  -1.179  -3.289  0.00  0.00    -0.205 N 
ATOM     20  H   UNL     1       2.816  -1.414  -2.424  0.00  0.00    +0.177 HD
ENDROOT
BRANCH  19  21
ATOM     21  N   UNL     1       2.995  -1.720  -4.458  0.00  0.00    -0.190 NA
ATOM     22  C   UNL     1       3.988  -2.524  -4.385  0.00  0.00    +0.137 C 
BRANCH  22  23
ATOM     23  C   UNL     1       4.580  -3.107  -5.642  0.00  0.00    +0.188 C 
BRANCH  23  24
ATOM     24  O   UNL     1       3.866  -2.613  -6.778  0.00  0.00    -0.384 OA
ATOM     25  H   UNL     1       2.925  -2.834  -6.777  0.00  0.00    +0.210 HD
ENDBRANCH  23  24
BRANCH  23  26
ATOM     26  C   UNL     1       4.475  -4.632  -5.597  0.00  0.00    +0.179 C 
BRANCH  26  27
ATOM     27  O   UNL     1       3.114  -5.009  -5.380  0.00  0.00    -0.386 OA
ATOM     28  H   UNL     1       2.506  -4.702  -6.067  0.00  0.00    +0.210 HD
ENDBRANCH  26  27
BRANCH  26  29
ATOM     29  C   UNL     1       4.961  -5.217  -6.925  0.00  0.00    +0.176 C 
BRANCH  29  30
ATOM     30  O   UNL     1       4.230  -4.627  -8.001  0.00  0.00    -0.386 OA
ATOM     31  H   UNL     1       3.275  -4.776  -7.956  0.00  0.00    +0.210 HD
ENDBRANCH  29  30
BRANCH  29  32
ATOM     32  C   UNL     1       4.740  -6.731  -6.927  0.00  0.00    +0.171 C 
BRANCH  32  33
ATOM     33  O   UNL     1       5.471  -7.321  -5.850  0.00  0.00    -0.387 OA
ATOM     34  H   UNL     1       6.426  -7.172  -5.895  0.00  0.00    +0.210 HD
ENDBRANCH  32  33
BRANCH  32  35
ATOM     35  C   UNL     1       5.226  -7.315  -8.255  0.00  0.00    +0.189 C 
BRANCH  35  36
ATOM     36  O   UNL     1       4.914  -8.709  -8.304  0.00  0.00    -0.392 OA
ATOM     37  H   UNL     1       5.194  -9.146  -9.120  0.00  0.00    +0.210 HD
ENDBRANCH  35  36
ENDBRANCH  32  35
ENDBRANCH  29  32
ENDBRANCH  26  29
ENDBRANCH  23  26
ENDBRANCH  22  23
ENDBRANCH  19  21
TORSDOF 11
