REMARK  Name = ZINC16960608
REMARK  7 active torsions:
REMARK  status: ('A' for Active; 'I' for Inactive)
REMARK    1  A    between atoms: C_1  and  O_2
REMARK    2  A    between atoms: O_2  and  C_3
REMARK    3  A    between atoms: C_7  and  N_9
REMARK    4  A    between atoms: C_10  and  C_28
REMARK    5  A    between atoms: C_13  and  S_14
REMARK    6  A    between atoms: S_14  and  C_15
REMARK    7  A    between atoms: C_15  and  C_16
REMARK                            x       y       z     vdW  Elec       q    Type
REMARK                         _______ _______ _______ _____ _____    ______ ____
ROOT
ATOM      1  N   UNL     1       1.399  -4.031   2.279  0.00  0.00    -0.270 N 
ATOM      2  C   UNL     1       2.530  -4.817   2.246  0.00  0.00    +0.171 A 
ATOM      3  N   UNL     1       2.133  -6.065   2.346  0.00  0.00    -0.128 NA
ATOM      4  N   UNL     1       0.853  -6.114   2.439  0.00  0.00    -0.122 NA
ATOM      5  C   UNL     1       0.349  -4.903   2.410  0.00  0.00    +0.197 A 
ENDROOT
BRANCH   2   6
ATOM      6  C   UNL     1       3.923  -4.346   2.120  0.00  0.00    +0.045 A 
ATOM      7  C   UNL     1       4.338  -3.056   2.021  0.00  0.00    +0.095 A 
ATOM      8  N   UNL     1       5.698  -3.016   1.921  0.00  0.00    -0.360 N 
ATOM      9  H   UNL     1       6.225  -2.206   1.840  0.00  0.00    +0.165 HD
ATOM     10  C   UNL     1       6.216  -4.293   1.952  0.00  0.00    +0.047 A 
ATOM     11  C   UNL     1       5.135  -5.182   2.083  0.00  0.00    +0.010 A 
ATOM     12  C   UNL     1       5.364  -6.555   2.147  0.00  0.00    +0.011 A 
ATOM     13  C   UNL     1       6.654  -7.034   2.085  0.00  0.00    +0.001 A 
ATOM     14  C   UNL     1       7.722  -6.158   1.959  0.00  0.00    +0.002 A 
ATOM     15  C   UNL     1       7.510  -4.798   1.886  0.00  0.00    +0.026 A 
ENDBRANCH   2   6
BRANCH   1  20
ATOM     16  C   UNL     1       0.656  -0.641   1.046  0.00  0.00    +0.122 A 
ATOM     17  C   UNL     1       1.213   0.131   2.056  0.00  0.00    +0.046 A 
ATOM     18  C   UNL     1       1.829  -0.477   3.133  0.00  0.00    +0.006 A 
ATOM     19  C   UNL     1       1.891  -1.855   3.209  0.00  0.00    +0.026 A 
ATOM     20  C   UNL     1       1.335  -2.633   2.202  0.00  0.00    +0.054 A 
ATOM     21  C   UNL     1       0.711  -2.024   1.123  0.00  0.00    +0.072 A 
BRANCH  16  23
ATOM     22  C   UNL     1       0.031   1.386  -0.026  0.00  0.00    +0.277 C 
ATOM     23  O   UNL     1       0.051  -0.042  -0.013  0.00  0.00    -0.495 OA
ENDBRANCH  16  23
ENDBRANCH   1  20
BRANCH   5  24
ATOM     24  S   UNL     1      -1.357  -4.477   2.514  0.00  0.00    -0.076 S 
BRANCH  24  25
ATOM     25  C   UNL     1      -2.200  -6.075   2.672  0.00  0.00    +0.173 C 
BRANCH  25  26
ATOM     26  C   UNL     1      -3.687  -5.852   2.772  0.00  0.00    +0.230 C 
ATOM     27  O   UNL     1      -4.128  -4.723   2.831  0.00  0.00    -0.274 OA
ATOM     28  N   UNL     1      -4.527  -6.906   2.795  0.00  0.00    -0.270 N 
ATOM     29  C   UNL     1      -4.003  -8.278   2.811  0.00  0.00    +0.114 C 
ATOM     30  C   UNL     1      -4.816  -9.102   1.805  0.00  0.00    +0.024 C 
ATOM     31  C   UNL     1      -6.272  -9.151   2.268  0.00  0.00    +0.038 C 
ATOM     32  C   UNL     1      -6.782  -7.763   2.554  0.00  0.00    -0.026 A 
ATOM     33  C   UNL     1      -5.915  -6.710   2.811  0.00  0.00    +0.039 A 
ATOM     34  C   UNL     1      -6.417  -5.443   3.081  0.00  0.00    +0.024 A 
ATOM     35  C   UNL     1      -7.781  -5.230   3.098  0.00  0.00    +0.002 A 
ATOM     36  C   UNL     1      -8.646  -6.278   2.846  0.00  0.00    +0.000 A 
ATOM     37  C   UNL     1      -8.148  -7.540   2.566  0.00  0.00    +0.005 A 
ENDBRANCH  25  26
ENDBRANCH  24  25
ENDBRANCH   5  24
TORSDOF 6
