REMARK  Name = ZINC12463639
REMARK  6 active torsions:
REMARK  status: ('A' for Active; 'I' for Inactive)
REMARK    1  A    between atoms: C_1  and  N_2
REMARK    2  A    between atoms: N_2  and  C_3
REMARK    3  A    between atoms: C_6  and  C_11
REMARK    4  A    between atoms: C_11  and  O_12
REMARK    5  A    between atoms: O_12  and  C_13
REMARK    6  A    between atoms: C_13  and  C_15
REMARK                            x       y       z     vdW  Elec       q    Type
REMARK                         _______ _______ _______ _____ _____    ______ ____
ROOT
ATOM      1  C   UNL     1      -3.797   1.596   0.035  0.00  0.00    +0.346 C 
ATOM      2  O   UNL     1      -4.088   2.777   0.045  0.00  0.00    -0.244 OA
ENDROOT
BRANCH   1   3
ATOM      3  C   UNL     1      -2.392   1.191   0.023  0.00  0.00    +0.097 A 
ATOM      4  C   UNL     1      -1.254   1.987   0.019  0.00  0.00    +0.030 A 
ATOM      5  C   UNL     1      -0.017   1.399   0.010  0.00  0.00    +0.005 A 
ATOM      6  C   UNL     1       0.002  -0.004   0.002  0.00  0.00    +0.030 A 
ATOM      7  S   UNL     1      -1.699  -0.459   0.007  0.00  0.00    -0.081 S 
ATOM      8  C   UNL     1       1.243  -0.767  -0.005  0.00  0.00    +0.031 A 
ATOM      9  C   UNL     1       1.321  -2.124  -0.279  0.00  0.00    +0.012 A 
ATOM     10  C   UNL     1       2.552  -2.752  -0.277  0.00  0.00    +0.001 A 
ATOM     11  C   UNL     1       3.701  -2.030  -0.004  0.00  0.00    +0.004 A 
ATOM     12  C   UNL     1       3.634  -0.678   0.278  0.00  0.00    +0.046 A 
ATOM     13  C   UNL     1       2.412  -0.030   0.289  0.00  0.00    +0.129 A 
ATOM     14  O   UNL     1       2.314   1.282   0.603  0.00  0.00    -0.487 OA
ATOM     15  C   UNL     1       1.327   2.119   0.001  0.00  0.00    +0.265 C 
ENDBRANCH   1   3
BRANCH   1  16
ATOM     16  O   UNL     1      -4.769   0.661   0.034  0.00  0.00    -0.453 OA
BRANCH  16  17
ATOM     17  C   UNL     1      -6.119   1.129   0.046  0.00  0.00    +0.308 C 
BRANCH  17  23
ATOM     18  C   UNL     1      -9.659  -3.268  -2.314  0.00  0.00    +0.132 C 
ATOM     19  N   UNL     1      -8.745  -2.124  -2.308  0.00  0.00    -0.306 N 
ATOM     20  C   UNL     1      -8.294  -1.539  -3.574  0.00  0.00    +0.132 C 
ATOM     21  C   UNL     1      -8.308  -1.596  -1.110  0.00  0.00    +0.222 A 
ATOM     22  N   UNL     1      -7.482  -0.552  -1.104  0.00  0.00    -0.196 NA
ATOM     23  C   UNL     1      -7.059  -0.049   0.043  0.00  0.00    +0.173 A 
ATOM     24  N   UNL     1      -7.463  -0.573   1.187  0.00  0.00    -0.196 NA
ATOM     25  C   UNL     1      -8.293  -1.613   1.189  0.00  0.00    +0.217 A 
ATOM     26  N   UNL     1      -8.716  -2.125   0.038  0.00  0.00    -0.181 NA
ATOM     27  N   UNL     1      -8.714  -2.159   2.384  0.00  0.00    -0.327 N 
ATOM     28  H   UNL     1      -8.405  -1.785   3.224  0.00  0.00    +0.145 HD
ATOM     29  H   UNL     1      -9.319  -2.917   2.384  0.00  0.00    +0.145 HD
ENDBRANCH  17  23
ENDBRANCH  16  17
ENDBRANCH   1  16
TORSDOF 4
