REMARK  Name = ZINC39362036
REMARK  11 active torsions:
REMARK  status: ('A' for Active; 'I' for Inactive)
REMARK    1  A    between atoms: C_1  and  C_2
REMARK    2  A    between atoms: C_5  and  N_9
REMARK    3  A    between atoms: C_6  and  C_8
REMARK    4  A    between atoms: C_10  and  C_12
REMARK    5  A    between atoms: C_12  and  S_13
REMARK    6  A    between atoms: S_13  and  C_14
REMARK    7  A    between atoms: C_17  and  C_28
REMARK    8  A    between atoms: N_19  and  C_20
REMARK    9  A    between atoms: C_24  and  O_26
REMARK   10  A    between atoms: O_26  and  C_27
REMARK   11  A    between atoms: C_28  and  C_29
REMARK                            x       y       z     vdW  Elec       q    Type
REMARK                         _______ _______ _______ _____ _____    ______ ____
ROOT
ATOM      1  C   UNL     1      -0.359  -8.692  -2.728  0.00  0.00    +0.180 C 
ATOM      2  N   UNL     1      -0.346  -9.311  -1.596  0.00  0.00    -0.162 NA
ATOM      3  N   UNL     1      -0.436 -10.698  -1.770  0.00  0.00    -0.246 N 
ATOM      4  C   UNL     1      -0.513 -10.926  -3.223  0.00  0.00    +0.187 C 
ATOM      5  N   UNL     1      -0.463  -9.570  -3.797  0.00  0.00    -0.258 N 
ATOM      6  H   UNL     1      -0.446 -11.373  -1.073  0.00  0.00    +0.170 HD
ENDROOT
BRANCH   5   7
ATOM      7  C   UNL     1      -0.509  -9.235  -5.152  0.00  0.00    +0.041 A 
ATOM      8  C   UNL     1       0.593  -8.647  -5.762  0.00  0.00    +0.024 A 
ATOM      9  C   UNL     1       0.547  -8.316  -7.102  0.00  0.00    +0.005 A 
ATOM     10  C   UNL     1      -0.594  -8.568  -7.840  0.00  0.00    +0.046 A 
ATOM     11  C   UNL     1      -1.698  -9.154  -7.237  0.00  0.00    +0.122 A 
ATOM     12  C   UNL     1      -1.655  -9.492  -5.894  0.00  0.00    +0.069 A 
BRANCH  11  13
ATOM     13  O   UNL     1      -2.820  -9.400  -7.964  0.00  0.00    -0.495 OA
ATOM     14  C   UNL     1      -2.792  -9.029  -9.344  0.00  0.00    +0.277 C 
ENDBRANCH  11  13
ENDBRANCH   5   7
BRANCH   1  15
ATOM     15  S   UNL     1      -0.262  -6.940  -2.895  0.00  0.00    -0.079 S 
BRANCH  15  16
ATOM     16  C   UNL     1      -0.143  -6.342  -1.187  0.00  0.00    +0.173 C 
BRANCH  16  18
ATOM     17  N   UNL     1       0.044  -4.169  -0.020  0.00  0.00    -0.285 N 
ATOM     18  C   UNL     1      -0.053  -4.838  -1.186  0.00  0.00    +0.227 C 
ATOM     19  O   UNL     1      -0.068  -4.229  -2.235  0.00  0.00    -0.275 OA
ATOM     20  H   UNL     1       0.121  -4.657   0.814  0.00  0.00    +0.155 HD
BRANCH  17  25
ATOM     21  C   UNL     1      -0.001   1.504   0.006  0.00  0.00    +0.044 C 
ATOM     22  C   UNL     1       0.011  -0.003  -0.001  0.00  0.00    -0.050 A 
ATOM     23  C   UNL     1       0.610  -0.683  -1.045  0.00  0.00    +0.005 A 
ATOM     24  C   UNL     1       0.623  -2.064  -1.054  0.00  0.00    +0.024 A 
ATOM     25  C   UNL     1       0.033  -2.770  -0.013  0.00  0.00    +0.036 A 
ATOM     26  C   UNL     1      -0.568  -2.083   1.034  0.00  0.00    -0.029 A 
ATOM     27  C   UNL     1      -0.573  -0.702   1.040  0.00  0.00    +0.008 A 
ATOM     28  C   UNL     1      -1.209  -2.845   2.165  0.00  0.00    +0.045 C 
ENDBRANCH  17  25
ENDBRANCH  16  18
ENDBRANCH  15  16
ENDBRANCH   1  15
BRANCH   4  29
ATOM     29  C   UNL     1       0.676 -11.762  -3.699  0.00  0.00    +0.097 C 
BRANCH  29  30
ATOM     30  C   UNL     1       0.580 -13.149  -3.116  0.00  0.00    +0.029 A 
ATOM     31  N   UNL     1       1.065 -13.403  -1.863  0.00  0.00    -0.311 N 
ATOM     32  C   UNL     1       0.984 -14.638  -1.333  0.00  0.00    +0.327 A 
ATOM     33  O   UNL     1       1.421 -14.841  -0.217  0.00  0.00    -0.247 OA
ATOM     34  N   UNL     1       0.424 -15.650  -2.022  0.00  0.00    -0.275 N 
ATOM     35  C   UNL     1      -0.066 -15.440  -3.260  0.00  0.00    +0.254 A 
ATOM     36  O   UNL     1      -0.573 -16.355  -3.884  0.00  0.00    -0.268 OA
ATOM     37  C   UNL     1       0.009 -14.145  -3.827  0.00  0.00    +0.091 A 
ATOM     38  H   UNL     1       0.373 -16.534  -1.625  0.00  0.00    +0.173 HD
ATOM     39  H   UNL     1       1.472 -12.687  -1.351  0.00  0.00    +0.170 HD
ENDBRANCH  29  30
ENDBRANCH   4  29
TORSDOF 8
