REMARK  Name = ZINC47220200
REMARK  5 active torsions:
REMARK  status: ('A' for Active; 'I' for Inactive)
REMARK    1  A    between atoms: C_1  and  C_2
REMARK    2  A    between atoms: C_9  and  C_11
REMARK    3  A    between atoms: C_11  and  S_12
REMARK    4  A    between atoms: S_12  and  C_13
REMARK    5  A    between atoms: C_16  and  N_19
REMARK                            x       y       z     vdW  Elec       q    Type
REMARK                         _______ _______ _______ _____ _____    ______ ____
ROOT
ATOM      1  C   UNL     1       0.048  -2.720  -2.594  0.00  0.00    +0.044 C 
ATOM      2  C   UNL     1       0.036  -2.036  -1.251  0.00  0.00    -0.046 A 
ATOM      3  C   UNL     1       0.012  -0.651  -1.160  0.00  0.00    +0.023 A 
ATOM      4  C   UNL     1       0.001  -0.055   0.086  0.00  0.00    +0.113 A 
ATOM      5  N   UNL     1       0.014  -0.785   1.185  0.00  0.00    -0.240 NA
ATOM      6  C   UNL     1       0.037  -2.107   1.139  0.00  0.00    +0.125 A 
ATOM      7  C   UNL     1       0.043  -2.774  -0.081  0.00  0.00    +0.047 A 
ATOM      8  N   UNL     1       0.050  -2.839   2.326  0.00  0.00    -0.270 N 
ATOM      9  C   UNL     1       0.149  -2.202   3.509  0.00  0.00    +0.228 C 
ATOM     10  O   UNL     1       0.133  -0.990   3.549  0.00  0.00    -0.275 OA
ATOM     11  H   UNL     1      -0.012  -3.807   2.300  0.00  0.00    +0.156 HD
ENDROOT
BRANCH   9  12
ATOM     12  C   UNL     1       0.279  -2.995   4.784  0.00  0.00    +0.170 C 
BRANCH  12  13
ATOM     13  S   UNL     1       0.390  -1.860   6.194  0.00  0.00    -0.116 S 
BRANCH  13  14
ATOM     14  C   UNL     1       0.535  -2.926   7.590  0.00  0.00    +0.008 A 
ATOM     15  C   UNL     1       0.547  -4.305   7.414  0.00  0.00    +0.017 A 
ATOM     16  C   UNL     1       0.660  -5.137   8.510  0.00  0.00    +0.034 A 
ATOM     17  C   UNL     1       0.763  -4.601   9.781  0.00  0.00    +0.126 A 
ATOM     18  C   UNL     1       0.751  -3.229   9.959  0.00  0.00    +0.034 A 
ATOM     19  C   UNL     1       0.644  -2.390   8.867  0.00  0.00    +0.017 A 
BRANCH  17  20
ATOM     20  N   UNL     1       0.885  -5.497  10.953  0.00  0.00    +0.056 N 
ATOM     21  O   UNL     1       0.895  -6.696  10.799  0.00  0.00    -0.126 OA
ATOM     22  O   UNL     1       0.974  -5.029  12.064  0.00  0.00    -0.126 OA
ENDBRANCH  17  20
ENDBRANCH  13  14
ENDBRANCH  12  13
ENDBRANCH   9  12
TORSDOF 4
