REMARK  Name = ZINC38564731
REMARK  7 active torsions:
REMARK  status: ('A' for Active; 'I' for Inactive)
REMARK    1  A    between atoms: C_1  and  C_2
REMARK    2  A    between atoms: C_5  and  C_8
REMARK    3  A    between atoms: C_10  and  C_22
REMARK    4  A    between atoms: N_24  and  C_25
REMARK    5  A    between atoms: C_25  and  C_26
REMARK    6  A    between atoms: C_26  and  C_27
REMARK    7  A    between atoms: C_26  and  C_28
REMARK                            x       y       z     vdW  Elec       q    Type
REMARK                         _______ _______ _______ _____ _____    ______ ____
ROOT
ATOM      1  C   UNL     1       0.059  -4.243  -0.021  0.00  0.00    +0.076 C 
ATOM      2  N   UNL     1      -0.031  -4.903  -1.153  0.00  0.00    -0.244 NA
ATOM      3  C   UNL     1       0.120  -6.231  -1.269  0.00  0.00    +0.126 C 
ATOM      4  C   UNL     1       0.672  -6.991  -0.236  0.00  0.00    +0.039 C 
ATOM      5  C   UNL     1       0.860  -6.332   0.971  0.00  0.00    -0.008 C 
ATOM      6  C   UNL     1       1.623  -6.568   2.083  0.00  0.00    +0.004 A 
ATOM      7  C   UNL     1       2.319  -7.716   2.529  0.00  0.00    +0.010 A 
ATOM      8  C   UNL     1       3.038  -7.592   3.681  0.00  0.00    +0.001 A 
ATOM      9  C   UNL     1       3.111  -6.409   4.417  0.00  0.00    +0.002 A 
ATOM     10  C   UNL     1       2.455  -5.267   4.071  0.00  0.00    +0.026 A 
ATOM     11  C   UNL     1       1.663  -5.315   2.889  0.00  0.00    +0.044 A 
ATOM     12  N   UNL     1       0.889  -4.400   2.360  0.00  0.00    -0.372 N 
ATOM     13  C   UNL     1       0.187  -5.002   1.252  0.00  0.00    +0.160 C 
ATOM     14  H   UNL     1       0.805  -3.481   2.659  0.00  0.00    +0.161 HD
ENDROOT
BRANCH   1  19
ATOM     15  C   UNL     1      -0.016   1.503   0.011  0.00  0.00    +0.044 C 
ATOM     16  C   UNL     1       0.004  -0.004   0.002  0.00  0.00    -0.050 A 
ATOM     17  C   UNL     1      -0.415  -0.704   1.121  0.00  0.00    +0.004 A 
ATOM     18  C   UNL     1      -0.400  -2.082   1.122  0.00  0.00    +0.010 A 
ATOM     19  C   UNL     1       0.040  -2.774  -0.013  0.00  0.00    -0.001 A 
ATOM     20  C   UNL     1       0.461  -2.058  -1.141  0.00  0.00    +0.010 A 
ATOM     21  C   UNL     1       0.435  -0.680  -1.126  0.00  0.00    +0.004 A 
ENDBRANCH   1  19
BRANCH   3  22
ATOM     22  C   UNL     1      -0.308  -6.904  -2.516  0.00  0.00    +0.262 C 
ATOM     23  O   UNL     1      -0.177  -8.107  -2.633  0.00  0.00    -0.269 OA
ATOM     24  N   UNL     1      -0.844  -6.183  -3.521  0.00  0.00    -0.310 N 
ATOM     25  H   UNL     1      -0.949  -5.223  -3.427  0.00  0.00    +0.149 HD
BRANCH  24  26
ATOM     26  C   UNL     1      -1.268  -6.849  -4.755  0.00  0.00    +0.107 C 
BRANCH  26  27
ATOM     27  C   UNL     1      -1.836  -5.811  -5.725  0.00  0.00    -0.000 C 
ATOM     28  C   UNL     1      -0.727  -4.846  -6.146  0.00  0.00    +0.009 C 
ATOM     29  C   UNL     1      -2.393  -6.520  -6.961  0.00  0.00    +0.009 C 
ENDBRANCH  26  27
ENDBRANCH  24  26
ENDBRANCH   3  22
TORSDOF 4
