REMARK  Name = ZINC62828359
REMARK  5 active torsions:
REMARK  status: ('A' for Active; 'I' for Inactive)
REMARK    1  A    between atoms: C_4  and  N_9
REMARK    2  A    between atoms: C_5  and  C_6
REMARK    3  A    between atoms: N_12  and  C_13
REMARK    4  A    between atoms: C_13  and  C_14
REMARK    5  A    between atoms: C_14  and  N_15
REMARK                            x       y       z     vdW  Elec       q    Type
REMARK                         _______ _______ _______ _____ _____    ______ ____
ROOT
ATOM      1  N   UNL     1       1.571  -1.948   0.133  0.00  0.00    -0.263 N 
ATOM      2  C   UNL     1       2.853  -2.365   0.127  0.00  0.00    +0.304 C 
ATOM      3  O   UNL     1       3.756  -1.555   0.199  0.00  0.00    -0.252 OA
ATOM      4  N   UNL     1       3.132  -3.681   0.039  0.00  0.00    -0.301 N 
ATOM      5  H   UNL     1       0.850  -2.594   0.075  0.00  0.00    +0.157 HD
ATOM      6  H   UNL     1       2.411  -4.327  -0.019  0.00  0.00    +0.150 HD
ENDROOT
BRANCH   1  10
ATOM      7  C   UNL     1       0.022   1.456   0.344  0.00  0.00    +0.024 A 
ATOM      8  C   UNL     1       1.227   2.050   0.407  0.00  0.00    +0.048 A 
ATOM      9  S   UNL     1       2.364   0.683   0.332  0.00  0.00    -0.081 S 
ATOM     10  C   UNL     1       1.284  -0.596   0.224  0.00  0.00    +0.087 A 
ATOM     11  C   UNL     1       0.034   0.013   0.244  0.00  0.00    +0.092 A 
BRANCH  11  12
ATOM     12  C   UNL     1      -1.165  -0.740   0.171  0.00  0.00    +0.389 C 
ATOM     13  O   UNL     1      -2.249  -0.170   0.191  0.00  0.00    -0.241 OA
ATOM     14  O   UNL     1      -1.117  -1.961   0.087  0.00  0.00    -0.241 OA
ENDBRANCH  11  12
ENDBRANCH   1  10
BRANCH   4  15
ATOM     15  C   UNL     1       4.525  -4.135   0.031  0.00  0.00    +0.087 C 
BRANCH  15  16
ATOM     16  C   UNL     1       4.564  -5.660  -0.075  0.00  0.00    -0.060 C 
BRANCH  16  17
ATOM     17  N   UNL     1       5.956  -6.107  -0.212  0.00  0.00    +0.381 N 
ATOM     18  C   UNL     1       5.962  -7.543  -0.553  0.00  0.00    -0.079 C 
ATOM     19  C   UNL     1       7.254  -7.855  -1.267  0.00  0.00    -0.019 C 
ATOM     20  C   UNL     1       8.314  -8.408  -0.296  0.00  0.00    -0.002 C 
ATOM     21  C   UNL     1       8.305  -7.656   1.050  0.00  0.00    -0.002 C 
ATOM     22  C   UNL     1       8.137  -6.168   0.876  0.00  0.00    -0.019 C 
ATOM     23  C   UNL     1       6.638  -5.816   0.971  0.00  0.00    -0.079 C 
ATOM     24  H   UNL     1       6.387  -5.595  -0.968  0.00  0.00    -0.082 HD
ENDBRANCH  16  17
ENDBRANCH  15  16
ENDBRANCH   4  15
TORSDOF 5
