REMARK  Name = ZINC63383452
REMARK  7 active torsions:
REMARK  status: ('A' for Active; 'I' for Inactive)
REMARK    1  A    between atoms: C_1  and  C_2
REMARK    2  A    between atoms: C_5  and  C_8
REMARK    3  A    between atoms: C_8  and  N_9
REMARK    4  A    between atoms: C_10  and  C_12
REMARK    5  A    between atoms: C_12  and  C_14
REMARK    6  A    between atoms: C_12  and  N_15
REMARK    7  A    between atoms: C_16  and  C_18
REMARK                            x       y       z     vdW  Elec       q    Type
REMARK                         _______ _______ _______ _____ _____    ______ ____
ROOT
ATOM      1  C   UNL     1       4.245 -10.186   0.416  0.00  0.00    +0.167 C 
ATOM      2  C   UNL     1       3.073 -10.724   1.261  0.00  0.00    +0.065 C 
ATOM      3  C   UNL     1       3.463 -10.572   2.711  0.00  0.00    -0.034 C 
ATOM      4  C   UNL     1       2.827  -9.994   3.725  0.00  0.00    -0.001 A 
ATOM      5  C   UNL     1       1.490  -9.386   3.823  0.00  0.00    +0.010 A 
ATOM      6  C   UNL     1       1.158  -8.860   5.032  0.00  0.00    +0.001 A 
ATOM      7  C   UNL     1       2.011  -8.878   6.139  0.00  0.00    +0.002 A 
ATOM      8  C   UNL     1       3.253  -9.423   6.141  0.00  0.00    +0.026 A 
ATOM      9  C   UNL     1       3.712 -10.014   4.928  0.00  0.00    +0.043 A 
ATOM     10  N   UNL     1       4.833 -10.615   4.658  0.00  0.00    -0.375 N 
ATOM     11  C   UNL     1       4.778 -11.095   3.276  0.00  0.00    +0.131 C 
ATOM     12  C   UNL     1       5.892 -10.482   2.420  0.00  0.00    +0.134 C 
ATOM     13  N   UNL     1       5.504 -10.666   1.000  0.00  0.00    -0.276 N 
ATOM     14  C   UNL     1       6.476 -11.347   0.366  0.00  0.00    +0.248 C 
ATOM     15  O   UNL     1       6.491 -11.592  -0.824  0.00  0.00    -0.270 OA
ATOM     16  C   UNL     1       7.514 -11.748   1.318  0.00  0.00    +0.042 A 
ATOM     17  C   UNL     1       7.176 -11.224   2.605  0.00  0.00    -0.013 A 
ATOM     18  C   UNL     1       7.962 -11.433   3.716  0.00  0.00    +0.006 A 
ATOM     19  C   UNL     1       9.122 -12.183   3.537  0.00  0.00    +0.000 A 
ATOM     20  C   UNL     1       9.474 -12.694   2.304  0.00  0.00    +0.001 A 
ATOM     21  C   UNL     1       8.678 -12.500   1.136  0.00  0.00    +0.013 A 
ATOM     22  H   UNL     1       5.578 -10.726   5.268  0.00  0.00    +0.160 HD
ENDROOT
BRANCH   1  24
ATOM     23  N   UNL     1       3.156  -8.016  -0.059  0.00  0.00    -0.303 N 
ATOM     24  C   UNL     1       4.225  -8.679   0.425  0.00  0.00    +0.234 C 
ATOM     25  O   UNL     1       5.172  -8.063   0.867  0.00  0.00    -0.274 OA
ATOM     26  H   UNL     1       2.399  -8.509  -0.412  0.00  0.00    +0.149 HD
BRANCH  23  27
ATOM     27  C   UNL     1       3.137  -6.551  -0.051  0.00  0.00    +0.156 C 
ATOM     28  C   UNL     1       3.845  -6.025  -1.301  0.00  0.00    +0.038 C 
BRANCH  27  30
ATOM     29  N   UNL     1       1.447  -4.746  -0.032  0.00  0.00    -0.310 N 
ATOM     30  C   UNL     1       1.710  -6.067  -0.040  0.00  0.00    +0.233 C 
ATOM     31  O   UNL     1       0.799  -6.867  -0.040  0.00  0.00    -0.274 OA
ATOM     32  H   UNL     1       2.176  -4.106  -0.032  0.00  0.00    +0.149 HD
BRANCH  29  33
ATOM     33  C   UNL     1       0.059  -4.275  -0.021  0.00  0.00    +0.139 C 
BRANCH  33  38
ATOM     34  C   UNL     1      -0.018   1.503   0.010  0.00  0.00    +0.044 C 
ATOM     35  C   UNL     1       0.002  -0.004   0.002  0.00  0.00    -0.050 A 
ATOM     36  C   UNL     1       0.006  -0.689  -1.199  0.00  0.00    +0.003 A 
ATOM     37  C   UNL     1       0.025  -2.071  -1.206  0.00  0.00    +0.005 A 
ATOM     38  C   UNL     1       0.040  -2.768  -0.013  0.00  0.00    -0.030 A 
ATOM     39  C   UNL     1       0.037  -2.084   1.188  0.00  0.00    +0.005 A 
ATOM     40  C   UNL     1       0.023  -0.702   1.195  0.00  0.00    +0.003 A 
ENDBRANCH  33  38
ENDBRANCH  29  33
ENDBRANCH  27  30
ENDBRANCH  23  27
ENDBRANCH   1  24
TORSDOF 5
