REMARK  Name = ZINC33252852
REMARK  7 active torsions:
REMARK  status: ('A' for Active; 'I' for Inactive)
REMARK    1  A    between atoms: C_1  and  C_2
REMARK    2  A    between atoms: C_4  and  C_25
REMARK    3  A    between atoms: C_8  and  C_13
REMARK    4  A    between atoms: C_10  and  C_12
REMARK    5  A    between atoms: N_15  and  C_16
REMARK    6  A    between atoms: C_16  and  C_17
REMARK    7  A    between atoms: C_17  and  C_18
REMARK                            x       y       z     vdW  Elec       q    Type
REMARK                         _______ _______ _______ _____ _____    ______ ____
ROOT
ATOM      1  C   UNL     1       2.482  -0.113  -6.593  0.00  0.00    +0.044 C 
ATOM      2  C   UNL     1       1.190   0.633  -6.378  0.00  0.00    -0.049 A 
ATOM      3  C   UNL     1       0.482   1.113  -7.478  0.00  0.00    +0.008 A 
ATOM      4  C   UNL     1      -0.687   1.790  -7.319  0.00  0.00    -0.024 A 
ATOM      5  C   UNL     1      -1.194   2.013  -6.025  0.00  0.00    +0.075 A 
ATOM      6  C   UNL     1      -0.471   1.523  -4.910  0.00  0.00    +0.013 A 
ATOM      7  C   UNL     1       0.730   0.830  -5.111  0.00  0.00    +0.014 A 
ATOM      8  C   UNL     1      -0.984   1.748  -3.607  0.00  0.00    +0.048 A 
ATOM      9  C   UNL     1      -2.183   2.440  -3.494  0.00  0.00    +0.036 A 
ATOM     10  C   UNL     1      -2.826   2.892  -4.644  0.00  0.00    +0.040 A 
ATOM     11  N   UNL     1      -2.339   2.675  -5.840  0.00  0.00    -0.252 NA
ATOM     12  C   UNL     1      -4.123   3.647  -4.507  0.00  0.00    +0.065 C 
ATOM     13  C   UNL     1      -1.437   2.300  -8.523  0.00  0.00    +0.046 C 
ENDROOT
BRANCH   8  14
ATOM     14  C   UNL     1      -0.268   1.258  -2.409  0.00  0.00    +0.245 C 
ATOM     15  O   UNL     1       0.723   0.565  -2.534  0.00  0.00    -0.270 OA
ATOM     16  N   UNL     1      -0.715   1.580  -1.179  0.00  0.00    -0.311 N 
ATOM     17  H   UNL     1      -1.611   2.208  -1.066  0.00  0.00    +0.149 HD
BRANCH  16  18
ATOM     18  C   UNL     1      -0.006   1.095   0.008  0.00  0.00    +0.109 C 
BRANCH  18  19
ATOM     19  C   UNL     1      -0.714   1.600   1.267  0.00  0.00    +0.054 C 
BRANCH  19  20
ATOM     20  C   UNL     1       0.014   1.101   2.488  0.00  0.00    -0.046 A 
ATOM     21  C   UNL     1      -0.341  -0.107   3.059  0.00  0.00    +0.005 A 
ATOM     22  C   UNL     1       0.331  -0.568   4.175  0.00  0.00    +0.020 A 
ATOM     23  C   UNL     1       1.352   0.185   4.728  0.00  0.00    +0.041 A 
ATOM     24  C   UNL     1       1.703   1.396   4.159  0.00  0.00    +0.020 A 
ATOM     25  C   UNL     1       1.034   1.853   3.039  0.00  0.00    +0.005 A 
ATOM     26 CL   UNL     1       2.192  -0.391   6.134  0.00  0.00    -0.084 Cl
ENDBRANCH  19  20
ENDBRANCH  18  19
ENDBRANCH  16  18
ENDBRANCH   8  14
TORSDOF 4
