REMARK  Name = ZINC64309584
REMARK  9 active torsions:
REMARK  status: ('A' for Active; 'I' for Inactive)
REMARK    1  A    between atoms: C_1  and  C_2
REMARK    2  A    between atoms: C_6  and  C_8
REMARK    3  A    between atoms: C_6  and  N_21
REMARK    4  A    between atoms: C_8  and  N_9
REMARK    5  A    between atoms: C_10  and  C_12
REMARK    6  A    between atoms: C_15  and  S_17
REMARK    7  A    between atoms: S_17  and  N_20
REMARK    8  A    between atoms: N_21  and  C_22
REMARK    9  A    between atoms: N_21  and  C_23
REMARK                            x       y       z     vdW  Elec       q    Type
REMARK                         _______ _______ _______ _____ _____    ______ ____
ROOT
ATOM      1  N   UNL     1       3.005  -2.111   2.094  0.00  0.00    -0.310 N 
ATOM      2  C   UNL     1       3.967  -2.473   2.966  0.00  0.00    +0.279 C 
ATOM      3  O   UNL     1       3.680  -3.124   3.953  0.00  0.00    -0.267 OA
ATOM      4  H   UNL     1       3.234  -1.593   1.307  0.00  0.00    +0.149 HD
ENDROOT
BRANCH   2   5
ATOM      5  C   UNL     1       5.360  -2.083   2.724  0.00  0.00    +0.192 A 
ATOM      6  C   UNL     1       6.428  -2.386   3.520  0.00  0.00    +0.057 A 
ATOM      7  C   UNL     1       7.558  -1.818   2.912  0.00  0.00    +0.072 A 
ATOM      8  C   UNL     1       7.136  -1.200   1.787  0.00  0.00    +0.258 A 
ATOM      9  O   UNL     1       5.812  -1.366   1.675  0.00  0.00    -0.432 OA
BRANCH   8  10
ATOM     10  S   UNL     1       8.160  -0.324   0.651  0.00  0.00    +0.089 S 
ATOM     11  O   UNL     1       7.319   0.599  -0.026  0.00  0.00    -0.150 OA
ATOM     12  O   UNL     1       9.312   0.085   1.376  0.00  0.00    -0.150 OA
BRANCH  10  13
ATOM     13  N   UNL     1       8.676  -1.414  -0.483  0.00  0.00    -0.201 NA
ATOM     14  H   UNL     1       8.398  -2.342  -0.427  0.00  0.00    +0.144 HD
ATOM     15  H   UNL     1       9.258  -1.125  -1.204  0.00  0.00    +0.144 HD
ENDBRANCH  10  13
ENDBRANCH   8  10
ENDBRANCH   2   5
BRANCH   1  16
ATOM     16  C   UNL     1       1.614  -2.501   2.336  0.00  0.00    +0.092 C 
BRANCH  16  22
ATOM     17  C   UNL     1       0.003   1.414  -0.320  0.00  0.00    +0.007 C 
ATOM     18  C   UNL     1      -0.056  -0.109  -0.177  0.00  0.00    -0.015 C 
ATOM     19  C   UNL     1       0.468  -0.762  -1.458  0.00  0.00    +0.003 C 
ATOM     20  C   UNL     1       0.409  -2.284  -1.315  0.00  0.00    -0.001 C 
ATOM     21  C   UNL     1       1.273  -2.719  -0.130  0.00  0.00    -0.010 C 
ATOM     22  C   UNL     1       0.749  -2.066   1.151  0.00  0.00    -0.050 C 
ATOM     23  C   UNL     1       0.808  -0.544   1.008  0.00  0.00    -0.007 C 
BRANCH  22  24
ATOM     24  N   UNL     1      -0.641  -2.483   1.379  0.00  0.00    +0.381 N 
ATOM     25  C   UNL     1      -0.701  -3.946   1.491  0.00  0.00    -0.096 C 
ATOM     26  C   UNL     1      -1.136  -1.876   2.622  0.00  0.00    -0.096 C 
ATOM     27  H   UNL     1      -1.214  -2.181   0.606  0.00  0.00    -0.082 HD
ENDBRANCH  22  24
ENDBRANCH  16  22
ENDBRANCH   1  16
TORSDOF 6
