REMARK  Name = ZINC36923447
REMARK  3 active torsions:
REMARK  status: ('A' for Active; 'I' for Inactive)
REMARK    1  A    between atoms: C_5  and  O_7
REMARK    2  A    between atoms: C_10  and  N_12
REMARK    3  A    between atoms: N_12  and  C_13
REMARK                            x       y       z     vdW  Elec       q    Type
REMARK                         _______ _______ _______ _____ _____    ______ ____
ROOT
ATOM      1  N   UNL     1       3.914   3.062  -0.972  0.00  0.00    -0.334 N 
ATOM      2  H   UNL     1       4.233   2.899  -1.873  0.00  0.00    +0.147 HD
ENDROOT
BRANCH   1   3
ATOM      3  C   UNL     1       3.510   4.346  -0.596  0.00  0.00    +0.073 A 
ATOM      4  C   UNL     1       3.220   5.282  -1.565  0.00  0.00    +0.064 A 
ATOM      5  C   UNL     1       2.815   6.566  -1.231  0.00  0.00    +0.023 A 
ATOM      6  C   UNL     1       2.700   6.917   0.101  0.00  0.00    +0.019 A 
ATOM      7  C   UNL     1       2.986   5.992   1.076  0.00  0.00    +0.041 A 
ATOM      8  C   UNL     1       3.396   4.673   0.781  0.00  0.00    +0.100 A 
ATOM      9  N   UNL     1       3.633   3.882   1.849  0.00  0.00    -0.246 NA
ATOM     10  C   UNL     1       3.493   4.297   3.079  0.00  0.00    +0.157 A 
ATOM     11  S   UNL     1       2.979   5.994   2.853  0.00  0.00    -0.075 S 
ATOM     12 CL   UNL     1       3.364   4.844  -3.238  0.00  0.00    -0.082 Cl
ENDBRANCH   1   3
BRANCH   1  21
ATOM     13  C   UNL     1       0.046   1.517   0.407  0.00  0.00    +0.004 A 
ATOM     14  C   UNL     1       1.249   2.184   0.276  0.00  0.00    +0.006 A 
ATOM     15  C   UNL     1       2.432   1.475   0.150  0.00  0.00    -0.021 A 
ATOM     16  C   UNL     1       2.410   0.093   0.156  0.00  0.00    -0.001 A 
ATOM     17  C   UNL     1       1.201  -0.578   0.288  0.00  0.00    +0.120 A 
ATOM     18  C   UNL     1       0.019   0.136   0.413  0.00  0.00    +0.046 A 
ATOM     19  C   UNL     1       3.818  -0.442   0.005  0.00  0.00    +0.041 C 
ATOM     20  C   UNL     1       4.646   0.746  -0.530  0.00  0.00    +0.032 C 
ATOM     21  C   UNL     1       3.856   1.964  -0.005  0.00  0.00    +0.101 C 
BRANCH  17  22
ATOM     22  O   UNL     1       1.177  -1.937   0.294  0.00  0.00    -0.506 OA
ATOM     23  H   UNL     1       1.264  -2.328   1.173  0.00  0.00    +0.292 HD
ENDBRANCH  17  22
ENDBRANCH   1  21
TORSDOF 3
