REMARK  Name = ZINC49066518
REMARK  3 active torsions:
REMARK  status: ('A' for Active; 'I' for Inactive)
REMARK    1  A    between atoms: C_1  and  C_2
REMARK    2  A    between atoms: N_13  and  C_15
REMARK    3  A    between atoms: C_15  and  C_16
REMARK                            x       y       z     vdW  Elec       q    Type
REMARK                         _______ _______ _______ _____ _____    ______ ____
ROOT
ATOM      1  C   UNL     1       3.740  -2.288  -1.615  0.00  0.00    +0.059 A 
ATOM      2  C   UNL     1       3.384  -2.730  -2.888  0.00  0.00    +0.025 A 
ATOM      3  C   UNL     1       3.626  -4.023  -3.252  0.00  0.00    +0.012 A 
ATOM      4  C   UNL     1       4.238  -4.875  -2.312  0.00  0.00    +0.001 A 
ATOM      5  C   UNL     1       4.521  -6.215  -2.613  0.00  0.00    +0.014 A 
ATOM      6  C   UNL     1       5.115  -7.013  -1.680  0.00  0.00    -0.042 A 
ATOM      7  C   UNL     1       5.447  -6.509  -0.421  0.00  0.00    -0.041 A 
ATOM      8  C   UNL     1       5.182  -5.210  -0.098  0.00  0.00    +0.032 A 
ATOM      9  C   UNL     1       4.573  -4.360  -1.035  0.00  0.00    +0.072 A 
ATOM     10  N   UNL     1       4.313  -3.082  -0.744  0.00  0.00    -0.250 NA
ATOM     11  C   UNL     1       6.093  -7.602   0.409  0.00  0.00    +0.056 C 
ATOM     12  C   UNL     1       5.754  -8.907  -0.317  0.00  0.00    +0.083 C 
ATOM     13  C   UNL     1       5.519  -8.472  -1.766  0.00  0.00    +0.056 C 
ATOM     14  C   UNL     1       4.556  -9.588   0.272  0.00  0.00    +0.008 A 
ATOM     15  C   UNL     1       3.244  -9.217   0.472  0.00  0.00    +0.009 A 
ATOM     16  C   UNL     1       2.381 -10.130   1.065  0.00  0.00    +0.020 A 
ATOM     17  C   UNL     1       2.869 -11.370   1.429  0.00  0.00    +0.113 A 
ATOM     18  N   UNL     1       4.128 -11.695   1.225  0.00  0.00    -0.240 NA
ATOM     19  C   UNL     1       4.990 -10.854   0.662  0.00  0.00    +0.129 A 
ATOM     20  N   UNL     1       6.343 -11.009   0.366  0.00  0.00    -0.269 N 
ATOM     21  C   UNL     1       6.869  -9.910  -0.210  0.00  0.00    +0.230 C 
ATOM     22  O   UNL     1       8.017  -9.760  -0.572  0.00  0.00    -0.274 OA
ATOM     23  H   UNL     1       6.848 -11.815   0.554  0.00  0.00    +0.156 HD
ENDROOT
BRANCH   1  24
ATOM     24  C   UNL     1       3.464  -0.856  -1.232  0.00  0.00    +0.160 C 
BRANCH  24  37
ATOM     25  C   UNL     1      -0.019   1.526   0.010  0.00  0.00    +0.018 C 
ATOM     26  C   UNL     1       0.002  -0.004   0.002  0.00  0.00    +0.020 C 
ATOM     27  C   UNL     1      -1.409  -0.594   0.045  0.00  0.00    +0.109 C 
ATOM     28  C   UNL     1      -1.960  -0.466   1.444  0.00  0.00    +0.218 C 
ATOM     29  O   UNL     1      -3.139  -0.214   1.575  0.00  0.00    -0.275 OA
ATOM     30  N   UNL     1      -1.212  -0.617   2.558  0.00  0.00    -0.285 N 
ATOM     31  C   UNL     1       0.159  -0.831   2.444  0.00  0.00    +0.039 A 
ATOM     32  C   UNL     1       0.720  -0.572   1.202  0.00  0.00    +0.003 A 
ATOM     33  C   UNL     1       2.020  -0.894   0.851  0.00  0.00    +0.036 A 
ATOM     34  C   UNL     1       2.885  -1.347   1.852  0.00  0.00    +0.023 A 
ATOM     35  C   UNL     1       2.358  -1.497   3.129  0.00  0.00    +0.004 A 
ATOM     36  C   UNL     1       1.028  -1.254   3.432  0.00  0.00    +0.024 A 
ATOM     37  N   UNL     1       2.187  -0.779  -0.520  0.00  0.00    -0.323 N 
ATOM     38  C   UNL     1       0.859  -0.563  -1.149  0.00  0.00    +0.117 C 
ATOM     39  H   UNL     1      -1.627  -0.577   3.434  0.00  0.00    +0.155 HD
ENDBRANCH  24  37
ENDBRANCH   1  24
TORSDOF 2
