REMARK  Name = ZINC43225893
REMARK  10 active torsions:
REMARK  status: ('A' for Active; 'I' for Inactive)
REMARK    1  A    between atoms: C_1  and  C_2
REMARK    2  A    between atoms: C_3  and  C_33
REMARK    3  A    between atoms: C_5  and  C_26
REMARK    4  A    between atoms: N_6  and  C_7
REMARK    5  A    between atoms: C_7  and  C_9
REMARK    6  A    between atoms: C_7  and  C_17
REMARK    7  A    between atoms: C_9  and  C_10
REMARK    8  A    between atoms: C_13  and  O_16
REMARK    9  A    between atoms: N_19  and  C_20
REMARK   10  A    between atoms: C_20  and  C_21
REMARK                            x       y       z     vdW  Elec       q    Type
REMARK                         _______ _______ _______ _____ _____    ______ ____
ROOT
ATOM      1  C   UNL     1       0.215  -0.439   2.504  0.00  0.00    +0.177 C 
ENDROOT
BRANCH   1   7
ATOM      2  C   UNL     1       0.118   1.498   0.113  0.00  0.00    +0.064 C 
ATOM      3  C   UNL     1       0.063  -0.007   0.047  0.00  0.00    +0.029 A 
ATOM      4  C   UNL     1      -0.035  -0.762  -1.102  0.00  0.00    +0.058 A 
ATOM      5  C   UNL     1      -0.057  -2.123  -0.702  0.00  0.00    +0.041 A 
ATOM      6  C   UNL     1       0.027  -2.141   0.652  0.00  0.00    +0.051 A 
ATOM      7  N   UNL     1       0.106  -0.846   1.101  0.00  0.00    -0.331 N 
BRANCH   6   8
ATOM      8  C   UNL     1       0.038  -3.352   1.502  0.00  0.00    -0.000 A 
ATOM      9  C   UNL     1      -0.486  -3.306   2.795  0.00  0.00    +0.010 A 
ATOM     10  C   UNL     1      -0.473  -4.439   3.582  0.00  0.00    +0.002 A 
ATOM     11  C   UNL     1       0.057  -5.619   3.093  0.00  0.00    +0.020 A 
ATOM     12  C   UNL     1       0.578  -5.672   1.812  0.00  0.00    +0.042 A 
ATOM     13  C   UNL     1       0.566  -4.547   1.011  0.00  0.00    +0.030 A 
ATOM     14 CL   UNL     1       1.243  -7.158   1.207  0.00  0.00    -0.084 Cl
ENDBRANCH   6   8
BRANCH   4  15
ATOM     15  C   UNL     1      -0.105  -0.252  -2.483  0.00  0.00    +0.243 C 
ATOM     16  O   UNL     1      -0.077   0.946  -2.691  0.00  0.00    -0.270 OA
ATOM     17  N   UNL     1      -0.199  -1.114  -3.515  0.00  0.00    -0.325 N 
ATOM     18  H   UNL     1      -0.221  -2.069  -3.349  0.00  0.00    +0.145 HD
ATOM     19  H   UNL     1      -0.245  -0.778  -4.424  0.00  0.00    +0.145 HD
ENDBRANCH   4  15
ENDBRANCH   1   7
BRANCH   1  20
ATOM     20  C   UNL     1      -1.020   0.325   2.904  0.00  0.00    +0.237 C 
ATOM     21  O   UNL     1      -0.926   1.470   3.293  0.00  0.00    -0.274 OA
ATOM     22  N   UNL     1      -2.230  -0.264   2.829  0.00  0.00    -0.309 N 
ATOM     23  H   UNL     1      -2.306  -1.179   2.518  0.00  0.00    +0.149 HD
BRANCH  22  24
ATOM     24  C   UNL     1      -3.432   0.479   3.218  0.00  0.00    +0.146 C 
BRANCH  24  25
ATOM     25  C   UNL     1      -4.644  -0.399   3.043  0.00  0.00    +0.007 A 
ATOM     26  C   UNL     1      -5.227  -1.237   3.934  0.00  0.00    +0.013 A 
ATOM     27  C   UNL     1      -6.346  -1.952   3.550  0.00  0.00    +0.008 A 
ATOM     28  C   UNL     1      -6.827  -1.793   2.292  0.00  0.00    +0.045 A 
ATOM     29  S   UNL     1      -5.689  -0.599   1.609  0.00  0.00    -0.100 S 
ENDBRANCH  24  25
ENDBRANCH  22  24
ENDBRANCH   1  20
BRANCH   1  30
ATOM     30  C   UNL     1       1.446   0.452   2.682  0.00  0.00    +0.069 C 
BRANCH  30  31
ATOM     31  C   UNL     1       2.691  -0.349   2.400  0.00  0.00    -0.045 A 
ATOM     32  C   UNL     1       3.318  -1.033   3.425  0.00  0.00    +0.007 A 
ATOM     33  C   UNL     1       4.460  -1.768   3.169  0.00  0.00    +0.045 A 
ATOM     34  C   UNL     1       4.978  -1.818   1.883  0.00  0.00    +0.117 A 
ATOM     35  C   UNL     1       4.346  -1.131   0.857  0.00  0.00    +0.045 A 
ATOM     36  C   UNL     1       3.202  -0.402   1.116  0.00  0.00    +0.007 A 
BRANCH  34  37
ATOM     37  O   UNL     1       6.101  -2.540   1.629  0.00  0.00    -0.507 OA
ATOM     38  H   UNL     1       5.931  -3.459   1.385  0.00  0.00    +0.292 HD
ENDBRANCH  34  37
ENDBRANCH  30  31
ENDBRANCH   1  30
TORSDOF 9
