REMARK  Name = ZINC66714286
REMARK  8 active torsions:
REMARK  status: ('A' for Active; 'I' for Inactive)
REMARK    1  A    between atoms: C_1  and  C_2
REMARK    2  A    between atoms: C_5  and  N_11
REMARK    3  A    between atoms: C_7  and  C_8
REMARK    4  A    between atoms: C_12  and  C_14
REMARK    5  A    between atoms: C_14  and  S_15
REMARK    6  A    between atoms: S_15  and  C_16
REMARK    7  A    between atoms: C_18  and  C_23
REMARK    8  A    between atoms: C_20  and  C_22
REMARK                            x       y       z     vdW  Elec       q    Type
REMARK                         _______ _______ _______ _____ _____    ______ ____
ROOT
ATOM      1  N   UNL     1      -0.039  -3.976  -0.283  0.00  0.00    -0.285 N 
ATOM      2  C   UNL     1      -0.130  -4.590  -1.480  0.00  0.00    +0.227 C 
ATOM      3  O   UNL     1      -0.272  -3.933  -2.489  0.00  0.00    -0.275 OA
ATOM      4  H   UNL     1       0.002  -4.503   0.530  0.00  0.00    +0.155 HD
ENDROOT
BRANCH   1   9
ATOM      5  C   UNL     1       0.084   1.700  -0.027  0.00  0.00    +0.044 C 
ATOM      6  C   UNL     1       0.053   0.194  -0.092  0.00  0.00    -0.038 A 
ATOM      7  C   UNL     1      -0.712  -0.440  -1.050  0.00  0.00    +0.006 A 
ATOM      8  C   UNL     1      -0.743  -1.820  -1.114  0.00  0.00    +0.023 A 
ATOM      9  C   UNL     1      -0.004  -2.579  -0.215  0.00  0.00    +0.034 A 
ATOM     10  C   UNL     1       0.768  -1.952   0.751  0.00  0.00    +0.036 A 
ATOM     11  C   UNL     1       0.804  -0.559   0.812  0.00  0.00    +0.041 A 
BRANCH  11  12
ATOM     12  C   UNL     1       1.629   0.118   1.835  0.00  0.00    +0.242 C 
ATOM     13  O   UNL     1       1.606   1.329   1.931  0.00  0.00    -0.270 OA
ATOM     14  N   UNL     1       2.408  -0.609   2.662  0.00  0.00    -0.325 N 
ATOM     15  H   UNL     1       2.426  -1.576   2.586  0.00  0.00    +0.145 HD
ATOM     16  H   UNL     1       2.949  -0.165   3.333  0.00  0.00    +0.145 HD
ENDBRANCH  11  12
ENDBRANCH   1   9
BRANCH   2  17
ATOM     17  C   UNL     1      -0.054  -6.093  -1.564  0.00  0.00    +0.173 C 
BRANCH  17  18
ATOM     18  S   UNL     1      -0.206  -6.610  -3.296  0.00  0.00    -0.077 S 
BRANCH  18  19
ATOM     19  C   UNL     1      -0.101  -8.368  -3.226  0.00  0.00    +0.189 A 
ATOM     20  N   UNL     1       0.050  -8.961  -2.050  0.00  0.00    -0.227 NA
ATOM     21  C   UNL     1       0.132 -10.278  -1.964  0.00  0.00    +0.043 A 
ATOM     22  C   UNL     1       0.059 -11.038  -3.121  0.00  0.00    +0.046 A 
ATOM     23  C   UNL     1      -0.099 -10.386  -4.333  0.00  0.00    +0.043 A 
ATOM     24  N   UNL     1      -0.179  -9.066  -4.351  0.00  0.00    -0.227 NA
ATOM     25  C   UNL     1      -0.182 -11.171  -5.617  0.00  0.00    +0.066 C 
ATOM     26  C   UNL     1       0.303 -10.945  -0.623  0.00  0.00    +0.066 C 
ENDBRANCH  18  19
ENDBRANCH  17  18
ENDBRANCH   2  17
TORSDOF 5
