REMARK  Name = ZINC40526292
REMARK  2 active torsions:
REMARK  status: ('A' for Active; 'I' for Inactive)
REMARK    1  A    between atoms: C_4  and  N_20
REMARK    2  A    between atoms: C_6  and  N_7
REMARK                            x       y       z     vdW  Elec       q    Type
REMARK                         _______ _______ _______ _____ _____    ______ ____
ROOT
ATOM      1  N   UNL     1      -1.205  -0.721  -0.035  0.00  0.00    -0.269 N 
ATOM      2  C   UNL     1      -2.373  -0.069   0.127  0.00  0.00    +0.306 C 
ATOM      3  O   UNL     1      -2.391   1.145   0.175  0.00  0.00    -0.252 OA
ATOM      4  N   UNL     1      -3.523  -0.764   0.236  0.00  0.00    -0.285 N 
ATOM      5  C   UNL     1      -3.505  -2.229   0.345  0.00  0.00    +0.114 C 
ATOM      6  C   UNL     1      -4.410  -2.817  -0.742  0.00  0.00    +0.084 C 
ATOM      7  C   UNL     1      -5.803  -2.192  -0.632  0.00  0.00    +0.173 C 
ATOM      8  C   UNL     1      -5.713  -0.679  -0.838  0.00  0.00    +0.084 C 
ATOM      9  C   UNL     1      -4.818  -0.071   0.254  0.00  0.00    +0.114 C 
ATOM     10  O   UNL     1      -6.664  -2.762  -1.626  0.00  0.00    -0.346 OA
ATOM     11  C   UNL     1      -7.765  -3.384  -0.933  0.00  0.00    +0.191 C 
ATOM     12  C   UNL     1      -7.765  -2.666   0.440  0.00  0.00    +0.191 C 
ATOM     13  O   UNL     1      -6.349  -2.466   0.668  0.00  0.00    -0.346 OA
ATOM     14  H   UNL     1      -1.202  -1.675  -0.209  0.00  0.00    +0.156 HD
ENDROOT
BRANCH   1  20
ATOM     15  C   UNL     1       0.031   1.350  -0.175  0.00  0.00    +0.025 A 
ATOM     16  C   UNL     1       1.225   2.039  -0.093  0.00  0.00    +0.024 A 
ATOM     17  C   UNL     1       2.394   1.365   0.211  0.00  0.00    +0.071 A 
ATOM     18  C   UNL     1       2.371  -0.001   0.432  0.00  0.00    +0.146 A 
ATOM     19  C   UNL     1       1.180  -0.695   0.351  0.00  0.00    +0.057 A 
ATOM     20  C   UNL     1       0.004  -0.020   0.047  0.00  0.00    +0.037 A 
ATOM     21 CL   UNL     1       3.894   2.234   0.313  0.00  0.00    -0.081 Cl
BRANCH  18  22
ATOM     22  N   UNL     1       3.624  -0.719   0.756  0.00  0.00    +0.058 N 
ATOM     23  O   UNL     1       3.604  -1.912   0.950  0.00  0.00    -0.126 OA
ATOM     24  O   UNL     1       4.668  -0.113   0.827  0.00  0.00    -0.126 OA
ENDBRANCH  18  22
ENDBRANCH   1  20
TORSDOF 2
