REMARK  Name = ZINC05175749
REMARK  9 active torsions:
REMARK  status: ('A' for Active; 'I' for Inactive)
REMARK    1  A    between atoms: C_1  and  C_2
REMARK    2  A    between atoms: C_6  and  O_21
REMARK    3  A    between atoms: C_7  and  C_20
REMARK    4  A    between atoms: C_12  and  C_13
REMARK    5  A    between atoms: C_13  and  C_14
REMARK    6  A    between atoms: O_21  and  C_22
REMARK    7  A    between atoms: C_22  and  C_23
REMARK    8  A    between atoms: C_23  and  C_26
REMARK    9  A    between atoms: N_24  and  O_25
REMARK                            x       y       z     vdW  Elec       q    Type
REMARK                         _______ _______ _______ _____ _____    ______ ____
ROOT
ATOM      1  C   UNL     1       9.472   5.521  -0.334  0.00  0.00    +0.045 C 
ATOM      2  C   UNL     1       9.097   4.071  -0.164  0.00  0.00    -0.030 A 
ATOM      3  C   UNL     1       7.693   3.659  -0.112  0.00  0.00    +0.021 A 
ATOM      4  C   UNL     1       6.661   4.598  -0.219  0.00  0.00    +0.015 A 
ATOM      5  C   UNL     1       5.361   4.187  -0.166  0.00  0.00    +0.047 A 
ATOM      6  C   UNL     1       5.054   2.837  -0.007  0.00  0.00    +0.127 A 
ATOM      7  C   UNL     1       6.062   1.894   0.105  0.00  0.00    +0.034 A 
ATOM      8  C   UNL     1       7.389   2.294   0.048  0.00  0.00    +0.146 A 
ATOM      9  O   UNL     1       8.387   1.391   0.152  0.00  0.00    -0.422 OA
ATOM     10  C   UNL     1       9.676   1.762   0.104  0.00  0.00    +0.341 A 
ATOM     11  O   UNL     1      10.543   0.912   0.202  0.00  0.00    -0.245 OA
ATOM     12  C   UNL     1      10.053   3.112  -0.054  0.00  0.00    +0.045 A 
ATOM     13  C   UNL     1       5.719   0.437   0.283  0.00  0.00    +0.051 C 
ENDROOT
BRANCH  12  14
ATOM     14  C   UNL     1      11.511   3.489  -0.102  0.00  0.00    +0.077 C 
BRANCH  14  15
ATOM     15  C   UNL     1      12.000   3.779   1.294  0.00  0.00    -0.043 A 
ATOM     16  C   UNL     1      11.928   5.064   1.798  0.00  0.00    +0.004 A 
ATOM     17  C   UNL     1      12.372   5.330   3.080  0.00  0.00    +0.000 A 
ATOM     18  C   UNL     1      12.898   4.312   3.854  0.00  0.00    +0.000 A 
ATOM     19  C   UNL     1      12.976   3.028   3.347  0.00  0.00    +0.000 A 
ATOM     20  C   UNL     1      12.527   2.762   2.067  0.00  0.00    +0.004 A 
ENDBRANCH  14  15
ENDBRANCH  12  14
BRANCH   6  21
ATOM     21  O   UNL     1       3.756   2.443   0.043  0.00  0.00    -0.485 OA
BRANCH  21  22
ATOM     22  C   UNL     1       2.763   3.465  -0.073  0.00  0.00    +0.288 C 
BRANCH  22  23
ATOM     23  C   UNL     1       1.392   2.844   0.004  0.00  0.00    +0.124 C 
ATOM     24  N   UNL     1       1.269   1.566   0.154  0.00  0.00    -0.088 NA
BRANCH  23  25
ATOM     25  C   UNL     1       0.190   3.696  -0.091  0.00  0.00    +0.003 A 
ATOM     26  C   UNL     1      -0.969   3.207  -0.697  0.00  0.00    +0.010 A 
ATOM     27  C   UNL     1      -2.090   4.007  -0.779  0.00  0.00    +0.001 A 
ATOM     28  C   UNL     1      -2.065   5.294  -0.271  0.00  0.00    +0.000 A 
ATOM     29  C   UNL     1      -0.918   5.786   0.326  0.00  0.00    +0.001 A 
ATOM     30  C   UNL     1       0.209   4.995   0.418  0.00  0.00    +0.010 A 
ENDBRANCH  23  25
BRANCH  24  31
ATOM     31  O   UNL     1      -0.012   0.997   0.357  0.00  0.00    -0.409 OA
ATOM     32  H   UNL     1      -0.004   0.035   0.459  0.00  0.00    +0.328 HD
ENDBRANCH  24  31
ENDBRANCH  22  23
ENDBRANCH  21  22
ENDBRANCH   6  21
TORSDOF 7
