REMARK  Name = ZINC09153928
REMARK  7 active torsions:
REMARK  status: ('A' for Active; 'I' for Inactive)
REMARK    1  A    between atoms: C_1  and  C_2
REMARK    2  A    between atoms: C_4  and  O_7
REMARK    3  A    between atoms: O_7  and  C_8
REMARK    4  A    between atoms: C_8  and  C_9
REMARK    5  A    between atoms: N_11  and  C_12
REMARK    6  A    between atoms: C_12  and  C_14
REMARK    7  A    between atoms: C_12  and  C_15
REMARK                            x       y       z     vdW  Elec       q    Type
REMARK                         _______ _______ _______ _____ _____    ______ ____
ROOT
ATOM      1  C   UNL     1      -3.126   2.206  -4.374  0.00  0.00    +0.251 C 
ATOM      2  O   UNL     1      -2.861   3.227  -4.973  0.00  0.00    -0.272 OA
ATOM      3  N   UNL     1      -2.157   1.539  -3.717  0.00  0.00    -0.309 N 
ATOM      4  H   UNL     1      -2.369   0.723  -3.237  0.00  0.00    +0.149 HD
ENDROOT
BRANCH   3   5
ATOM      5  C   UNL     1      -0.782   2.046  -3.727  0.00  0.00    +0.076 C 
ATOM      6  C   UNL     1      -0.066   1.553  -4.986  0.00  0.00    +0.028 C 
BRANCH   5   7
ATOM      7  C   UNL     1      -0.043   1.539  -2.488  0.00  0.00    -0.010 C 
ATOM      8  C   UNL     1      -0.759   2.033  -1.229  0.00  0.00    +0.012 C 
ATOM      9  C   UNL     1      -0.019   1.526   0.010  0.00  0.00    -0.010 C 
ATOM     10  C   UNL     1       1.417   2.055  -0.000  0.00  0.00    +0.007 C 
ATOM     11  C   UNL     1       2.133   1.562  -1.259  0.00  0.00    -0.010 C 
ATOM     12  C   UNL     1       1.393   2.069  -2.499  0.00  0.00    +0.012 C 
ATOM     13  C   UNL     1       2.154   0.032  -1.268  0.00  0.00    +0.007 C 
ATOM     14  C   UNL     1       0.718  -0.497  -1.257  0.00  0.00    -0.010 C 
ATOM     15  C   UNL     1       0.002  -0.004   0.002  0.00  0.00    +0.007 C 
ATOM     16  C   UNL     1      -0.022   0.009  -2.496  0.00  0.00    +0.012 C 
ENDBRANCH   5   7
ENDBRANCH   3   5
BRANCH   1  17
ATOM     17  C   UNL     1      -4.540   1.685  -4.363  0.00  0.00    +0.326 C 
BRANCH  17  18
ATOM     18  O   UNL     1      -5.376   2.559  -5.123  0.00  0.00    -0.465 OA
BRANCH  18  22
ATOM     19  C   UNL     1     -10.203   2.518  -6.215  0.00  0.00    +0.089 C 
ATOM     20  C   UNL     1      -8.820   2.216  -5.698  0.00  0.00    +0.138 A 
ATOM     21  C   UNL     1      -7.700   2.945  -5.910  0.00  0.00    +0.114 A 
ATOM     22  C   UNL     1      -6.690   2.231  -5.214  0.00  0.00    +0.255 A 
ATOM     23  N   UNL     1      -7.277   1.191  -4.684  0.00  0.00    -0.040 NA
ATOM     24  O   UNL     1      -8.459   1.172  -4.939  0.00  0.00    -0.356 OA
ENDBRANCH  18  22
ENDBRANCH  17  18
ENDBRANCH   1  17
TORSDOF 5
