REMARK  Name = ZINC03452755
REMARK  11 active torsions:
REMARK  status: ('A' for Active; 'I' for Inactive)
REMARK    1  A    between atoms: C_1  and  C_2
REMARK    2  A    between atoms: C_2  and  N_3
REMARK    3  A    between atoms: C_4  and  C_31
REMARK    4  A    between atoms: C_7  and  S_8
REMARK    5  A    between atoms: S_8  and  C_9
REMARK    6  A    between atoms: C_9  and  C_10
REMARK    7  A    between atoms: N_12  and  C_13
REMARK    8  A    between atoms: N_12  and  C_14
REMARK    9  A    between atoms: C_15  and  N_30
REMARK   10  A    between atoms: N_16  and  C_23
REMARK   11  A    between atoms: C_23  and  C_24
REMARK                            x       y       z     vdW  Elec       q    Type
REMARK                         _______ _______ _______ _____ _____    ______ ____
ROOT
ATOM      1  C   UNL     1       1.030   3.094   0.010  0.00  0.00    +0.139 A 
ATOM      2  C   UNL     1       0.261   2.984  -1.130  0.00  0.00    +0.128 A 
ATOM      3  N   UNL     1      -0.901   2.250  -1.088  0.00  0.00    -0.276 N 
ATOM      4  C   UNL     1      -1.282   1.642   0.050  0.00  0.00    +0.331 A 
ATOM      5  O   UNL     1      -2.311   0.994   0.065  0.00  0.00    -0.246 OA
ATOM      6  N   UNL     1      -0.548   1.742   1.172  0.00  0.00    -0.273 N 
ATOM      7  H   UNL     1      -0.857   1.287   2.007  0.00  0.00    +0.173 HD
ATOM      8  C   UNL     1       0.599   2.449   1.185  0.00  0.00    +0.277 A 
ATOM      9  O   UNL     1       1.259   2.530   2.207  0.00  0.00    -0.266 OA
ENDROOT
BRANCH   1  12
ATOM     10  C   UNL     1       3.412   3.216   0.172  0.00  0.00    +0.230 C 
ATOM     11  O   UNL     1       3.455   2.006   0.249  0.00  0.00    -0.274 OA
ATOM     12  N   UNL     1       2.228   3.840  -0.001  0.00  0.00    -0.267 N 
ATOM     13  C   UNL     1       2.186   5.290  -0.200  0.00  0.00    +0.138 C 
BRANCH  10  14
ATOM     14  C   UNL     1       4.681   4.023   0.272  0.00  0.00    +0.173 C 
BRANCH  14  15
ATOM     15  S   UNL     1       6.089   2.909   0.499  0.00  0.00    -0.077 S 
BRANCH  15  20
ATOM     16  N   UNL     1       8.727   3.806   0.751  0.00  0.00    -0.302 N 
ATOM     17  C   UNL     1       9.364   5.027   0.752  0.00  0.00    +0.171 A 
ATOM     18  N   UNL     1       8.436   5.945   0.591  0.00  0.00    -0.128 NA
ATOM     19  N   UNL     1       7.282   5.388   0.486  0.00  0.00    -0.122 NA
ATOM     20  C   UNL     1       7.399   4.083   0.582  0.00  0.00    +0.192 A 
BRANCH  17  21
ATOM     21  C   UNL     1      10.809   5.261   0.905  0.00  0.00    +0.056 A 
ATOM     22  C   UNL     1      11.534   6.395   0.638  0.00  0.00    +0.019 A 
ATOM     23  C   UNL     1      12.892   6.379   0.866  0.00  0.00    +0.008 A 
ATOM     24  C   UNL     1      13.472   5.244   1.335  0.00  0.00    +0.046 A 
ATOM     25  S   UNL     1      12.075   4.141   1.479  0.00  0.00    -0.094 S 
ENDBRANCH  17  21
BRANCH  16  27
ATOM     26  C   UNL     1       9.724   1.942  -0.478  0.00  0.00    +0.027 C 
ATOM     27  C   UNL     1       9.344   2.486   0.901  0.00  0.00    +0.122 C 
ENDBRANCH  16  27
ENDBRANCH  15  20
ENDBRANCH  14  15
ENDBRANCH  10  14
ENDBRANCH   1  12
BRANCH   2  28
ATOM     28  N   UNL     1       0.652   3.602  -2.294  0.00  0.00    -0.343 N 
ATOM     29  H   UNL     1       1.453   4.149  -2.308  0.00  0.00    +0.144 HD
ATOM     30  H   UNL     1       0.127   3.490  -3.102  0.00  0.00    +0.144 HD
ENDBRANCH   2  28
BRANCH   3  31
ATOM     31  C   UNL     1      -1.728   2.125  -2.292  0.00  0.00    +0.163 C 
BRANCH  31  32
ATOM     32  C   UNL     1      -1.289   0.918  -3.079  0.00  0.00    -0.028 A 
ATOM     33  C   UNL     1      -0.312   1.042  -4.049  0.00  0.00    +0.005 A 
ATOM     34  C   UNL     1       0.094  -0.066  -4.768  0.00  0.00    +0.000 A 
ATOM     35  C   UNL     1      -0.484  -1.298  -4.524  0.00  0.00    +0.000 A 
ATOM     36  C   UNL     1      -1.465  -1.422  -3.557  0.00  0.00    +0.000 A 
ATOM     37  C   UNL     1      -1.867  -0.314  -2.835  0.00  0.00    +0.005 A 
ENDBRANCH  31  32
ENDBRANCH   3  31
TORSDOF 9
