REMARK  Name = ZINC39672628
REMARK  6 active torsions:
REMARK  status: ('A' for Active; 'I' for Inactive)
REMARK    1  A    between atoms: C_1  and  C_2
REMARK    2  A    between atoms: C_5  and  C_7
REMARK    3  A    between atoms: C_7  and  N_8
REMARK    4  A    between atoms: C_9  and  C_11
REMARK    5  A    between atoms: C_22  and  C_24
REMARK    6  A    between atoms: C_27  and  C_29
REMARK                            x       y       z     vdW  Elec       q    Type
REMARK                         _______ _______ _______ _____ _____    ______ ____
ROOT
ATOM      1  C   UNL     1      -2.964  -4.452   4.101  0.00  0.00    +0.100 C 
ATOM      2  C   UNL     1      -3.724  -5.076   2.909  0.00  0.00    +0.121 C 
ATOM      3  N   UNL     1      -3.587  -6.539   3.103  0.00  0.00    -0.294 N 
ATOM      4  C   UNL     1      -3.726  -6.732   4.566  0.00  0.00    +0.115 C 
ATOM      5  C   UNL     1      -2.970  -5.540   5.188  0.00  0.00    -0.004 C 
ATOM      6  C   UNL     1      -3.701  -5.041   6.431  0.00  0.00    -0.010 C 
ATOM      7  C   UNL     1      -3.644  -6.118   7.518  0.00  0.00    -0.082 C 
ATOM      8  N   UNL     1      -2.243  -6.420   7.837  0.00  0.00    +0.379 N 
ATOM      9  C   UNL     1      -1.572  -6.987   6.660  0.00  0.00    -0.082 C 
ATOM     10  C   UNL     1      -1.542  -5.946   5.537  0.00  0.00    -0.010 C 
ATOM     11  C   UNL     1      -3.383  -7.481   2.161  0.00  0.00    +0.282 C 
ATOM     12  O   UNL     1      -3.292  -8.652   2.482  0.00  0.00    -0.267 OA
ATOM     13  H   UNL     1      -1.772  -5.572   8.115  0.00  0.00    -0.086 HD
ATOM     14  H   UNL     1      -2.208  -7.085   8.595  0.00  0.00    -0.086 HD
ENDROOT
BRANCH  11  15
ATOM     15  C   UNL     1      -3.271  -7.096   0.752  0.00  0.00    +0.190 A 
ATOM     16  C   UNL     1      -3.068  -7.954  -0.307  0.00  0.00    +0.055 A 
ATOM     17  C   UNL     1      -3.025  -7.166  -1.462  0.00  0.00    +0.050 A 
ATOM     18  C   UNL     1      -3.201  -5.870  -1.070  0.00  0.00    +0.136 A 
ATOM     19  O   UNL     1      -3.353  -5.841   0.264  0.00  0.00    -0.450 OA
BRANCH  18  20
ATOM     20  C   UNL     1      -3.225  -4.696  -1.966  0.00  0.00    +0.017 A 
ATOM     21  C   UNL     1      -3.065  -4.861  -3.343  0.00  0.00    +0.011 A 
ATOM     22  C   UNL     1      -3.089  -3.759  -4.173  0.00  0.00    +0.001 A 
ATOM     23  C   UNL     1      -3.270  -2.494  -3.645  0.00  0.00    +0.000 A 
ATOM     24  C   UNL     1      -3.429  -2.323  -2.281  0.00  0.00    +0.001 A 
ATOM     25  C   UNL     1      -3.413  -3.416  -1.439  0.00  0.00    +0.011 A 
ENDBRANCH  18  20
ENDBRANCH  11  15
BRANCH   1  27
ATOM     26  N   UNL     1      -0.900  -3.105   4.313  0.00  0.00    -0.309 N 
ATOM     27  C   UNL     1      -1.549  -4.116   3.703  0.00  0.00    +0.219 C 
ATOM     28  O   UNL     1      -0.996  -4.756   2.834  0.00  0.00    -0.275 OA
ATOM     29  H   UNL     1      -1.342  -2.594   5.008  0.00  0.00    +0.149 HD
BRANCH  26  30
ATOM     30  C   UNL     1       0.475  -2.779   3.926  0.00  0.00    +0.167 C 
BRANCH  30  35
ATOM     31  C   UNL     1       2.675  -0.565   7.838  0.00  0.00    +0.066 C 
ATOM     32  C   UNL     1       1.960  -0.537   6.511  0.00  0.00    +0.046 A 
ATOM     33  C   UNL     1       1.670   0.632   5.886  0.00  0.00    +0.070 A 
ATOM     34  S   UNL     1       0.854   0.026   4.418  0.00  0.00    -0.079 S 
ATOM     35  C   UNL     1       0.968  -1.619   4.753  0.00  0.00    +0.096 A 
ATOM     36  N   UNL     1       1.593  -1.647   5.903  0.00  0.00    -0.248 NA
ENDBRANCH  30  35
ENDBRANCH  26  30
ENDBRANCH   1  27
TORSDOF 5
