REMARK  Name = ZINC43735382
REMARK  6 active torsions:
REMARK  status: ('A' for Active; 'I' for Inactive)
REMARK    1  A    between atoms: C_1  and  C_2
REMARK    2  A    between atoms: C_5  and  O_34
REMARK    3  A    between atoms: C_17  and  O_33
REMARK    4  A    between atoms: C_19  and  C_32
REMARK    5  A    between atoms: C_20  and  O_31
REMARK    6  A    between atoms: C_23  and  C_25
REMARK                            x       y       z     vdW  Elec       q    Type
REMARK                         _______ _______ _______ _____ _____    ______ ____
ROOT
ATOM      1  C   UNL     1      -0.124   1.463  -0.430  0.00  0.00    +0.012 C 
ATOM      2  C   UNL     1      -0.095  -0.089  -0.352  0.00  0.00    -0.026 C 
ATOM      3  C   UNL     1       0.597  -0.547  -1.638  0.00  0.00    +0.010 C 
ATOM      4  C   UNL     1       1.123  -1.971  -1.585  0.00  0.00    +0.032 C 
ATOM      5  C   UNL     1       2.017  -2.171  -0.359  0.00  0.00    +0.115 C 
ATOM      6  C   UNL     1       1.171  -1.909   0.890  0.00  0.00    +0.035 C 
ATOM      7  C   UNL     1       0.709  -0.455   0.881  0.00  0.00    -0.002 C 
ATOM      8  C   UNL     1      -0.039  -0.155   2.179  0.00  0.00    +0.004 C 
ATOM      9  C   UNL     1      -1.399  -0.866   2.155  0.00  0.00    +0.007 C 
ATOM     10  C   UNL     1      -2.215  -0.277   1.011  0.00  0.00    +0.025 C 
ATOM     11  C   UNL     1      -1.544  -0.555  -0.325  0.00  0.00    +0.003 C 
ATOM     12  C   UNL     1      -1.679  -2.030  -0.693  0.00  0.00    +0.036 C 
ATOM     13  C   UNL     1      -3.156  -2.392  -0.776  0.00  0.00    +0.124 C 
ATOM     14  C   UNL     1      -3.947  -2.095   0.467  0.00  0.00    +0.029 C 
ATOM     15  C   UNL     1      -3.675  -0.697   1.047  0.00  0.00    +0.077 C 
ATOM     16  C   UNL     1      -4.110  -0.826   2.532  0.00  0.00    +0.036 C 
ATOM     17  C   UNL     1      -3.786  -2.281   2.916  0.00  0.00    +0.011 C 
ATOM     18  C   UNL     1      -3.866  -3.098   1.608  0.00  0.00    +0.030 C 
ATOM     19  C   UNL     1      -5.436  -2.079   0.016  0.00  0.00    +0.017 C 
ENDROOT
BRANCH  18  20
ATOM     20  C   UNL     1      -2.716  -4.067   1.527  0.00  0.00    -0.022 C 
ATOM     21  C   UNL     1      -2.536  -5.010   0.605  0.00  0.00    +0.094 C 
ATOM     22  C   UNL     1      -1.292  -5.730   0.894  0.00  0.00    +0.332 C 
ATOM     23  O   UNL     1      -0.847  -6.649   0.235  0.00  0.00    -0.246 OA
ATOM     24  O   UNL     1      -0.715  -5.219   1.997  0.00  0.00    -0.457 OA
ATOM     25  C   UNL     1      -1.541  -4.151   2.473  0.00  0.00    +0.264 C 
ENDBRANCH  18  20
BRANCH  15  26
ATOM     26  O   UNL     1      -4.492   0.286   0.368  0.00  0.00    -0.388 OA
ATOM     27  H   UNL     1      -4.438   1.173   0.749  0.00  0.00    +0.210 HD
ENDBRANCH  15  26
BRANCH  13  28
ATOM     28  O   UNL     1      -3.320  -3.744  -1.194  0.00  0.00    -0.391 OA
ATOM     29  H   UNL     1      -2.942  -3.936  -2.063  0.00  0.00    +0.210 HD
ENDBRANCH  13  28
BRANCH   5  30
ATOM     30  O   UNL     1       2.503  -3.513  -0.335  0.00  0.00    -0.392 OA
ATOM     31  H   UNL     1       3.026  -3.756  -1.111  0.00  0.00    +0.210 HD
ENDBRANCH   5  30
TORSDOF 4
