REMARK  Name = ZINC61882504
REMARK  11 active torsions:
REMARK  status: ('A' for Active; 'I' for Inactive)
REMARK    1  A    between atoms: C_1  and  C_2
REMARK    2  A    between atoms: C_2  and  N_3
REMARK    3  A    between atoms: N_3  and  C_4
REMARK    4  A    between atoms: N_3  and  C_6
REMARK    5  A    between atoms: C_4  and  C_5
REMARK    6  A    between atoms: C_6  and  C_7
REMARK    7  A    between atoms: C_7  and  C_9
REMARK    8  A    between atoms: C_7  and  N_10
REMARK    9  A    between atoms: N_10  and  S_11
REMARK   10  A    between atoms: S_11  and  C_14
REMARK   11  A    between atoms: C_18  and  N_21
REMARK                            x       y       z     vdW  Elec       q    Type
REMARK                         _______ _______ _______ _____ _____    ______ ____
ROOT
ATOM      1  S   UNL     1       3.389  -0.306  -1.427  0.00  0.00    +0.060 S 
ATOM      2  O   UNL     1       2.386   0.491  -2.041  0.00  0.00    -0.153 OA
ATOM      3  O   UNL     1       4.709   0.169  -1.204  0.00  0.00    -0.153 OA
ENDROOT
BRANCH   1   4
ATOM      4  C   UNL     1       3.537  -1.767  -2.402  0.00  0.00    +0.122 A 
ATOM      5  C   UNL     1       2.766  -1.919  -3.540  0.00  0.00    +0.049 A 
ATOM      6  C   UNL     1       2.880  -3.064  -4.308  0.00  0.00    +0.045 A 
ATOM      7  C   UNL     1       3.765  -4.059  -3.941  0.00  0.00    +0.044 A 
ATOM      8  C   UNL     1       4.541  -3.910  -2.799  0.00  0.00    +0.042 A 
ATOM      9  C   UNL     1       4.428  -2.756  -2.032  0.00  0.00    +0.065 A 
ATOM     10 BR   UNL     1       5.488  -2.543  -0.480  0.00  0.00    -0.046 Br
ATOM     11 CL   UNL     1       1.909  -3.250  -5.736  0.00  0.00    -0.083 Cl
BRANCH   8  12
ATOM     12  N   UNL     1       5.437  -4.914  -2.425  0.00  0.00    -0.357 N 
ATOM     13  H   UNL     1       5.517  -5.718  -2.962  0.00  0.00    +0.142 HD
ATOM     14  H   UNL     1       5.978  -4.809  -1.627  0.00  0.00    +0.142 HD
ENDBRANCH   8  12
ENDBRANCH   1   4
BRANCH   1  15
ATOM     15  N   UNL     1       2.793  -0.762   0.050  0.00  0.00    -0.189 NA
ATOM     16  H   UNL     1       3.337  -0.655   0.846  0.00  0.00    +0.148 HD
BRANCH  15  17
ATOM     17  C   UNL     1       1.446  -1.327   0.153  0.00  0.00    +0.057 C 
ATOM     18  C   UNL     1       1.530  -2.854   0.135  0.00  0.00    +0.024 C 
BRANCH  17  19
ATOM     19  C   UNL     1       0.800  -0.868   1.462  0.00  0.00    -0.059 C 
BRANCH  19  20
ATOM     20  N   UNL     1       0.825   0.599   1.533  0.00  0.00    +0.380 N 
ATOM     21  H   UNL     1       1.773   0.925   1.414  0.00  0.00    -0.082 HD
BRANCH  20  23
ATOM     22  C   UNL     1      -1.462   0.678   0.662  0.00  0.00    -0.017 C 
ATOM     23  C   UNL     1      -0.021   1.155   0.469  0.00  0.00    -0.082 C 
ENDBRANCH  20  23
BRANCH  20  24
ATOM     24  C   UNL     1       0.318   1.036   2.841  0.00  0.00    -0.082 C 
ATOM     25  C   UNL     1       0.467   2.553   2.965  0.00  0.00    -0.017 C 
ENDBRANCH  20  24
ENDBRANCH  19  20
ENDBRANCH  17  19
ENDBRANCH  15  17
ENDBRANCH   1  15
TORSDOF 8
