REMARK  Name = ZINC01434789
REMARK  11 active torsions:
REMARK  status: ('A' for Active; 'I' for Inactive)
REMARK    1  A    between atoms: C_1  and  C_2
REMARK    2  A    between atoms: C_2  and  O_4
REMARK    3  A    between atoms: O_4  and  C_5
REMARK    4  A    between atoms: C_8  and  C_11
REMARK    5  A    between atoms: C_16  and  C_21
REMARK    6  A    between atoms: C_23  and  O_31
REMARK    7  A    between atoms: C_24  and  O_29
REMARK    8  A    between atoms: C_25  and  O_27
REMARK    9  A    between atoms: O_27  and  C_28
REMARK   10  A    between atoms: O_29  and  C_30
REMARK   11  A    between atoms: O_31  and  C_32
REMARK                            x       y       z     vdW  Elec       q    Type
REMARK                         _______ _______ _______ _____ _____    ______ ____
ROOT
ATOM      1  C   UNL     1       3.661   2.201  -0.134  0.00  0.00    +0.136 C 
ATOM      2  C   UNL     1       4.098   2.471   1.285  0.00  0.00    +0.036 C 
ATOM      3  C   UNL     1       4.095   3.669   1.896  0.00  0.00    +0.017 C 
ATOM      4  C   UNL     1       4.574   3.805   3.331  0.00  0.00    +0.059 C 
ATOM      5  C   UNL     1       4.264   2.527   4.108  0.00  0.00    +0.032 C 
ATOM      6  C   UNL     1       4.986   1.369   3.409  0.00  0.00    +0.088 C 
ATOM      7  C   UNL     1       4.535   1.319   1.980  0.00  0.00    +0.163 C 
ATOM      8  O   UNL     1       4.544   0.252   1.399  0.00  0.00    -0.292 OA
ATOM      9  N   UNL     1       3.698   4.830   1.316  0.00  0.00    -0.316 N 
ATOM     10  C   UNL     1       2.537   4.992   0.569  0.00  0.00    +0.052 A 
ATOM     11  C   UNL     1       1.499   5.810   0.980  0.00  0.00    +0.025 A 
ATOM     12  C   UNL     1       0.392   5.963   0.163  0.00  0.00    +0.002 A 
ATOM     13  C   UNL     1       0.325   5.307  -1.053  0.00  0.00    +0.002 A 
ATOM     14  C   UNL     1       1.354   4.473  -1.456  0.00  0.00    +0.025 A 
ATOM     15  C   UNL     1       2.453   4.301  -0.630  0.00  0.00    +0.049 A 
ATOM     16  N   UNL     1       3.459   3.386  -0.940  0.00  0.00    -0.331 N 
ATOM     17  H   UNL     1       4.268   5.607   1.431  0.00  0.00    +0.152 HD
ATOM     18  H   UNL     1       4.032   3.547  -1.705  0.00  0.00    +0.147 HD
ENDROOT
BRANCH   1  22
ATOM     19  C   UNL     1      -0.001  -0.000  -0.028  0.00  0.00    +0.132 A 
ATOM     20  C   UNL     1       1.136  -0.569  -0.585  0.00  0.00    +0.047 A 
ATOM     21  C   UNL     1       2.318   0.145  -0.618  0.00  0.00    +0.009 A 
ATOM     22  C   UNL     1       2.370   1.424  -0.097  0.00  0.00    -0.023 A 
ATOM     23  C   UNL     1       1.239   1.993   0.459  0.00  0.00    +0.009 A 
ATOM     24  C   UNL     1       0.054   1.284   0.494  0.00  0.00    +0.047 A 
BRANCH  19  25
ATOM     25  O   UNL     1      -1.166  -0.700   0.005  0.00  0.00    -0.426 OA
BRANCH  25  27
ATOM     26  C   UNL     1      -2.424  -2.664   0.816  0.00  0.00    +0.136 C 
ATOM     27  C   UNL     1      -1.214  -1.764   0.822  0.00  0.00    +0.309 C 
ATOM     28  O   UNL     1      -0.289  -2.001   1.561  0.00  0.00    -0.251 OA
ENDBRANCH  25  27
ENDBRANCH  19  25
ENDBRANCH   1  22
BRANCH   5  29
ATOM     29  C   UNL     1       4.761   2.657   5.525  0.00  0.00    -0.036 A 
ATOM     30  C   UNL     1       6.106   2.868   5.767  0.00  0.00    +0.053 A 
ATOM     31  C   UNL     1       6.566   2.994   7.069  0.00  0.00    +0.165 A 
ATOM     32  C   UNL     1       5.676   2.898   8.132  0.00  0.00    +0.204 A 
ATOM     33  C   UNL     1       4.325   2.681   7.884  0.00  0.00    +0.165 A 
ATOM     34  C   UNL     1       3.872   2.561   6.579  0.00  0.00    +0.053 A 
BRANCH  33  35
ATOM     35  O   UNL     1       3.450   2.587   8.920  0.00  0.00    -0.491 OA
ATOM     36  C   UNL     1       2.077   2.364   8.592  0.00  0.00    +0.277 C 
ENDBRANCH  33  35
BRANCH  32  37
ATOM     37  O   UNL     1       6.124   3.017   9.411  0.00  0.00    -0.488 OA
ATOM     38  C   UNL     1       6.531   1.816  10.070  0.00  0.00    +0.277 C 
ENDBRANCH  32  37
BRANCH  31  39
ATOM     39  O   UNL     1       7.888   3.207   7.306  0.00  0.00    -0.491 OA
ATOM     40  C   UNL     1       8.746   3.294   6.166  0.00  0.00    +0.277 C 
ENDBRANCH  31  39
ENDBRANCH   5  29
TORSDOF 7
