REMARK  Name = ZINC46718887
REMARK  4 active torsions:
REMARK  status: ('A' for Active; 'I' for Inactive)
REMARK    1  A    between atoms: C_1  and  C_2
REMARK    2  A    between atoms: C_11  and  C_14
REMARK    3  A    between atoms: C_14  and  N_15
REMARK    4  A    between atoms: C_16  and  C_18
REMARK                            x       y       z     vdW  Elec       q    Type
REMARK                         _______ _______ _______ _____ _____    ______ ____
ROOT
ATOM      1  C   UNL     1      -4.190  -5.503  -3.179  0.00  0.00    +0.141 C 
ENDROOT
BRANCH   1  12
ATOM      2  C   UNL     1       0.024   1.508  -0.007  0.00  0.00    +0.039 C 
ATOM      3  C   UNL     1       0.027  -0.022  -0.001  0.00  0.00    +0.132 C 
ATOM      4  C   UNL     1      -1.417  -0.537   0.005  0.00  0.00    +0.137 C 
ATOM      5  N   UNL     1      -1.389  -1.995   0.200  0.00  0.00    -0.312 N 
ATOM      6  C   UNL     1      -0.594  -2.529   1.318  0.00  0.00    +0.134 C 
ATOM      7  C   UNL     1       0.810  -1.917   1.248  0.00  0.00    +0.179 C 
ATOM      8  O   UNL     1       0.700  -0.493   1.170  0.00  0.00    -0.374 OA
ATOM      9  C   UNL     1      -2.091  -2.844  -0.647  0.00  0.00    +0.099 A 
ATOM     10  C   UNL     1      -2.930  -2.308  -1.620  0.00  0.00    +0.042 A 
ATOM     11  C   UNL     1      -3.623  -3.164  -2.456  0.00  0.00    +0.010 A 
ATOM     12  C   UNL     1      -3.455  -4.533  -2.291  0.00  0.00    -0.014 A 
ATOM     13  C   UNL     1      -2.607  -4.996  -1.305  0.00  0.00    +0.089 A 
ATOM     14  N   UNL     1      -1.953  -4.155  -0.525  0.00  0.00    -0.349 N 
ATOM     15  H   UNL     1      -1.360  -4.507   0.158  0.00  0.00    +0.167 HD
ENDBRANCH   1  12
BRANCH   1  16
ATOM     16  N   UNL     1      -3.377  -5.796  -4.362  0.00  0.00    -0.307 N 
ATOM     17  C   UNL     1      -3.837  -6.645  -5.302  0.00  0.00    +0.244 C 
ATOM     18  O   UNL     1      -4.927  -7.169  -5.168  0.00  0.00    -0.270 OA
ATOM     19  H   UNL     1      -2.508  -5.379  -4.468  0.00  0.00    +0.149 HD
BRANCH  17  20
ATOM     20  C   UNL     1      -3.025  -6.937  -6.483  0.00  0.00    +0.052 C 
ATOM     21  C   UNL     1      -3.487  -7.787  -7.433  0.00  0.00    +0.023 C 
ATOM     22  C   UNL     1      -2.621  -8.061  -8.591  0.00  0.00    +0.019 A 
ATOM     23  C   UNL     1      -3.123  -8.639  -9.756  0.00  0.00    +0.031 A 
ATOM     24  C   UNL     1      -2.274  -8.877 -10.817  0.00  0.00    +0.042 A 
ATOM     25  C   UNL     1      -0.930  -8.546 -10.727  0.00  0.00    +0.023 A 
ATOM     26  C   UNL     1      -0.422  -7.973  -9.576  0.00  0.00    +0.048 A 
ATOM     27  C   UNL     1      -1.258  -7.726  -8.502  0.00  0.00    +0.128 A 
ATOM     28  O   UNL     1      -0.790  -7.165  -7.360  0.00  0.00    -0.487 OA
ATOM     29  C   UNL     1      -1.675  -6.291  -6.651  0.00  0.00    +0.269 C 
ATOM     30 CL   UNL     1      -2.890  -9.597 -12.272  0.00  0.00    -0.084 Cl
ENDBRANCH  17  20
ENDBRANCH   1  16
TORSDOF 3
