REMARK  Name = ZINC00339572
REMARK  2 active torsions:
REMARK  status: ('A' for Active; 'I' for Inactive)
REMARK    1  A    between atoms: C_1  and  N_2
REMARK    2  A    between atoms: C_5  and  N_9
REMARK                            x       y       z     vdW  Elec       q    Type
REMARK                         _______ _______ _______ _____ _____    ______ ____
ROOT
ATOM      1  C   UNL     1       0.595  -3.135  -0.021  0.00  0.00    +0.153 C 
ATOM      2  N   UNL     1       1.510  -1.991  -0.023  0.00  0.00    -0.306 N 
ATOM      3  C   UNL     1       1.154  -0.666  -0.013  0.00  0.00    +0.166 A 
ATOM      4  C   UNL     1       2.358   0.059  -0.020  0.00  0.00    +0.148 A 
ATOM      5  C   UNL     1       2.287   1.462  -0.011  0.00  0.00    +0.147 A 
ATOM      6  N   UNL     1       1.089   2.036   0.003  0.00  0.00    -0.219 NA
ATOM      7  C   UNL     1      -0.016   1.312   0.009  0.00  0.00    +0.225 A 
ATOM      8  N   UNL     1       0.002  -0.004   0.002  0.00  0.00    -0.216 NA
ATOM      9  N   UNL     1       3.368  -0.844  -0.035  0.00  0.00    -0.216 NA
ATOM     10  C   UNL     1       2.873  -2.049  -0.036  0.00  0.00    +0.180 A 
ATOM     11 BR   UNL     1       3.892  -3.641  -0.055  0.00  0.00    -0.008 Br
ENDROOT
BRANCH   5  12
ATOM     12  N   UNL     1       3.440   2.229  -0.018  0.00  0.00    -0.341 N 
ATOM     13  H   UNL     1       3.986   2.017   0.791  0.00  0.00    +0.144 HD
ATOM     14  H   UNL     1       3.378   3.197  -0.012  0.00  0.00    +0.144 HD
ENDBRANCH   5  12
TORSDOF 1
