REMARK  Name = ZINC39675113
REMARK  9 active torsions:
REMARK  status: ('A' for Active; 'I' for Inactive)
REMARK    1  A    between atoms: C_1  and  C_2
REMARK    2  A    between atoms: C_4  and  C_37
REMARK    3  A    between atoms: N_5  and  C_7
REMARK    4  A    between atoms: C_7  and  C_8
REMARK    5  A    between atoms: C_8  and  N_9
REMARK    6  A    between atoms: C_10  and  C_12
REMARK    7  A    between atoms: C_23  and  C_25
REMARK    8  A    between atoms: C_32  and  C_36
REMARK    9  A    between atoms: N_34  and  C_35
REMARK                            x       y       z     vdW  Elec       q    Type
REMARK                         _______ _______ _______ _____ _____    ______ ____
ROOT
ATOM      1  C   UNL     1       2.716  -6.622   3.912  0.00  0.00    +0.100 C 
ATOM      2  C   UNL     1       1.965  -7.794   3.241  0.00  0.00    +0.121 C 
ATOM      3  N   UNL     1       3.023  -8.572   2.554  0.00  0.00    -0.296 N 
ATOM      4  C   UNL     1       4.168  -8.550   3.497  0.00  0.00    +0.115 C 
ATOM      5  C   UNL     1       4.160  -7.123   4.081  0.00  0.00    -0.004 C 
ATOM      6  C   UNL     1       5.123  -6.231   3.304  0.00  0.00    -0.010 C 
ATOM      7  C   UNL     1       6.558  -6.715   3.534  0.00  0.00    -0.082 C 
ATOM      8  N   UNL     1       6.867  -6.671   4.968  0.00  0.00    +0.379 N 
ATOM      9  C   UNL     1       5.997  -7.602   5.697  0.00  0.00    -0.082 C 
ATOM     10  C   UNL     1       4.539  -7.155   5.559  0.00  0.00    -0.010 C 
ATOM     11  C   UNL     1       2.960  -9.167   1.347  0.00  0.00    +0.250 C 
ATOM     12  O   UNL     1       1.978  -9.014   0.645  0.00  0.00    -0.270 OA
ATOM     13  H   UNL     1       7.831  -6.933   5.112  0.00  0.00    -0.086 HD
ATOM     14  H   UNL     1       6.720  -5.735   5.314  0.00  0.00    -0.086 HD
ENDROOT
BRANCH  11  15
ATOM     15  C   UNL     1       4.081 -10.003   0.875  0.00  0.00    +0.074 A 
ATOM     16  C   UNL     1       4.814 -10.783   1.781  0.00  0.00    +0.127 A 
ATOM     17  N   UNL     1       5.813 -11.533   1.383  0.00  0.00    -0.235 NA
ATOM     18  C   UNL     1       6.183 -11.593   0.106  0.00  0.00    +0.160 A 
ATOM     19  C   UNL     1       5.496 -10.839  -0.867  0.00  0.00    +0.060 A 
ATOM     20  C   UNL     1       4.422 -10.032  -0.479  0.00  0.00    +0.067 A 
ATOM     21 CL   UNL     1       3.543  -9.090  -1.643  0.00  0.00    -0.082 Cl
ATOM     22  C   UNL     1       6.141 -11.126  -2.144  0.00  0.00    +0.071 A 
ATOM     23  N   UNL     1       7.107 -11.969  -1.915  0.00  0.00    -0.174 NA
ATOM     24  N   UNL     1       7.164 -12.278  -0.553  0.00  0.00    -0.249 N 
ATOM     25  C   UNL     1       8.125 -13.191   0.070  0.00  0.00    +0.174 C 
ATOM     26  C   UNL     1       5.758 -10.553  -3.484  0.00  0.00    +0.068 C 
ENDBRANCH  11  15
BRANCH   1  28
ATOM     27  N   UNL     1       2.697  -4.171   3.574  0.00  0.00    -0.313 N 
ATOM     28  C   UNL     1       2.684  -5.403   3.026  0.00  0.00    +0.218 C 
ATOM     29  O   UNL     1       2.647  -5.530   1.820  0.00  0.00    -0.275 OA
ATOM     30  H   UNL     1       2.727  -4.070   4.538  0.00  0.00    +0.149 HD
BRANCH  27  31
ATOM     31  C   UNL     1       2.666  -2.987   2.713  0.00  0.00    +0.127 C 
BRANCH  31  32
ATOM     32  C   UNL     1       2.689  -1.726   3.579  0.00  0.00    +0.162 C 
BRANCH  32  37
ATOM     33  C   UNL     1       4.212   2.121   0.737  0.00  0.00    +0.067 C 
ATOM     34  C   UNL     1       3.347   1.136   1.479  0.00  0.00    +0.060 A 
ATOM     35  C   UNL     1       1.948   1.138   1.518  0.00  0.00    +0.047 A 
ATOM     36  C   UNL     1       1.551   0.098   2.286  0.00  0.00    +0.036 A 
ATOM     37  N   UNL     1       2.659  -0.541   2.719  0.00  0.00    -0.267 N 
ATOM     38  N   UNL     1       3.773   0.126   2.194  0.00  0.00    -0.176 NA
ATOM     39  C   UNL     1       0.127  -0.280   2.603  0.00  0.00    +0.065 C 
ENDBRANCH  32  37
ENDBRANCH  31  32
ENDBRANCH  27  31
ENDBRANCH   1  28
TORSDOF 5
