REMARK  Name = ZINC00331467
REMARK  3 active torsions:
REMARK  status: ('A' for Active; 'I' for Inactive)
REMARK    1  A    between atoms: C_3  and  C_6
REMARK    2  A    between atoms: C_9  and  C_19
REMARK    3  A    between atoms: C_14  and  C_16
REMARK                            x       y       z     vdW  Elec       q    Type
REMARK                         _______ _______ _______ _____ _____    ______ ____
ROOT
ATOM      1  C   UNL     1      -1.250   2.203   0.020  0.00  0.00    +0.140 C 
ATOM      2  C   UNL     1      -1.814   2.279   1.444  0.00  0.00    +0.066 C 
ATOM      3  C   UNL     1      -3.029   3.212   1.475  0.00  0.00    +0.215 C 
ATOM      4  N   UNL     1      -3.950   2.828   0.402  0.00  0.00    -0.238 N 
ATOM      5  C   UNL     1      -3.583   2.079  -0.680  0.00  0.00    +0.119 A 
ATOM      6  C   UNL     1      -4.667   1.911  -1.462  0.00  0.00    +0.080 A 
ATOM      7  C   UNL     1      -5.747   2.581  -0.845  0.00  0.00    +0.175 A 
ATOM      8  N   UNL     1      -5.306   3.130   0.274  0.00  0.00    -0.162 NA
ATOM      9  N   UNL     1      -2.276   1.615  -0.864  0.00  0.00    -0.319 N 
ATOM     10  H   UNL     1      -2.056   0.945  -1.530  0.00  0.00    +0.148 HD
ENDROOT
BRANCH   1  13
ATOM     11  C   UNL     1       2.086   0.638  -0.014  0.00  0.00    +0.041 A 
ATOM     12  C   UNL     1       1.254   1.781  -0.000  0.00  0.00    +0.046 A 
ATOM     13  C   UNL     1      -0.016   1.339   0.009  0.00  0.00    +0.125 A 
ATOM     14  O   UNL     1       0.002  -0.004   0.002  0.00  0.00    -0.466 OA
ATOM     15  C   UNL     1       1.274  -0.435  -0.012  0.00  0.00    +0.195 A 
ENDBRANCH   1  13
BRANCH   3  16
ATOM     16  C   UNL     1      -3.737   3.086   2.826  0.00  0.00    +0.412 C 
ATOM     17  F   UNL     1      -2.852   3.440   3.850  0.00  0.00    -0.168 F 
ATOM     18  F   UNL     1      -4.846   3.939   2.853  0.00  0.00    -0.168 F 
ATOM     19  F   UNL     1      -4.159   1.766   3.010  0.00  0.00    -0.168 F 
ENDBRANCH   3  16
BRANCH   7  20
ATOM     20  C   UNL     1      -7.128   2.657  -1.360  0.00  0.00    +0.406 C 
ATOM     21  O   UNL     1      -7.418   2.110  -2.406  0.00  0.00    -0.239 OA
ATOM     22  O   UNL     1      -8.069   3.332  -0.670  0.00  0.00    -0.239 OA
ENDBRANCH   7  20
TORSDOF 3
