REMARK  Name = ZINC33219084
REMARK  7 active torsions:
REMARK  status: ('A' for Active; 'I' for Inactive)
REMARK    1  A    between atoms: C_1  and  C_2
REMARK    2  A    between atoms: C_2  and  C_3
REMARK    3  A    between atoms: C_2  and  C_4
REMARK    4  A    between atoms: C_2  and  C_5
REMARK    5  A    between atoms: C_11  and  C_13
REMARK    6  A    between atoms: N_15  and  C_16
REMARK    7  A    between atoms: C_19  and  N_23
REMARK                            x       y       z     vdW  Elec       q    Type
REMARK                         _______ _______ _______ _____ _____    ______ ____
ROOT
ATOM      1  C   UNL     1       2.877  -2.508  -2.677  0.00  0.00    +0.238 C 
ATOM      2  O   UNL     1       3.323  -1.808  -1.793  0.00  0.00    -0.273 OA
ATOM      3  N   UNL     1       3.708  -3.061  -3.582  0.00  0.00    -0.284 N 
ATOM      4  H   UNL     1       3.361  -3.676  -4.248  0.00  0.00    +0.155 HD
ENDROOT
BRANCH   3   5
ATOM      5  C   UNL     1       5.074  -2.748  -3.562  0.00  0.00    +0.036 A 
ATOM      6  C   UNL     1       5.777  -2.631  -4.754  0.00  0.00    +0.045 A 
ATOM      7  C   UNL     1       7.124  -2.323  -4.735  0.00  0.00    +0.065 A 
ATOM      8  C   UNL     1       7.775  -2.130  -3.523  0.00  0.00    +0.062 A 
ATOM      9  C   UNL     1       7.071  -2.247  -2.331  0.00  0.00    +0.065 A 
ATOM     10  C   UNL     1       5.723  -2.550  -2.351  0.00  0.00    +0.045 A 
ATOM     11 CL   UNL     1       7.884  -2.007  -0.816  0.00  0.00    -0.082 Cl
ATOM     12 CL   UNL     1       8.002  -2.177  -6.225  0.00  0.00    -0.082 Cl
BRANCH   8  13
ATOM     13  N   UNL     1       9.140  -1.818  -3.503  0.00  0.00    -0.356 N 
ATOM     14  H   UNL     1       9.631  -1.737  -4.336  0.00  0.00    +0.142 HD
ATOM     15  H   UNL     1       9.594  -1.683  -2.657  0.00  0.00    +0.142 HD
ENDBRANCH   8  13
ENDBRANCH   3   5
BRANCH   1  22
ATOM     16  C   UNL     1       0.691  -0.720  -1.486  0.00  0.00    +0.222 C 
ATOM     17  O   UNL     1       1.220   0.012  -2.296  0.00  0.00    -0.275 OA
ATOM     18  N   UNL     1       0.703  -2.054  -1.675  0.00  0.00    -0.289 N 
ATOM     19  C   UNL     1       0.020  -3.048  -0.826  0.00  0.00    +0.108 C 
ATOM     20  C   UNL     1      -0.196  -4.274  -1.748  0.00  0.00    +0.021 C 
ATOM     21  C   UNL     1       1.108  -4.266  -2.588  0.00  0.00    +0.033 C 
ATOM     22  C   UNL     1       1.394  -2.759  -2.764  0.00  0.00    +0.162 C 
BRANCH  16  24
ATOM     23  C   UNL     1       0.362   1.351  -0.161  0.00  0.00    +0.020 C 
ATOM     24  C   UNL     1       0.020  -0.137  -0.269  0.00  0.00    +0.039 C 
ATOM     25  C   UNL     1       0.512  -0.866   0.983  0.00  0.00    +0.020 C 
ATOM     26  C   UNL     1      -1.496  -0.304  -0.393  0.00  0.00    +0.020 C 
ENDBRANCH  16  24
ENDBRANCH   1  22
TORSDOF 4
