REMARK  Name = ZINC58568983
REMARK  6 active torsions:
REMARK  status: ('A' for Active; 'I' for Inactive)
REMARK    1  A    between atoms: C_4  and  N_23
REMARK    2  A    between atoms: C_5  and  C_7
REMARK    3  A    between atoms: C_8  and  C_9
REMARK    4  A    between atoms: N_11  and  C_12
REMARK    5  A    between atoms: C_12  and  C_13
REMARK    6  A    between atoms: C_17  and  N_19
REMARK                            x       y       z     vdW  Elec       q    Type
REMARK                         _______ _______ _______ _____ _____    ______ ____
ROOT
ATOM      1  C   UNL     1      -0.215  -4.279   0.927  0.00  0.00    +0.237 C 
ATOM      2  O   UNL     1       0.814  -4.920   1.029  0.00  0.00    -0.271 OA
ATOM      3  N   UNL     1      -1.407  -4.884   1.101  0.00  0.00    -0.308 N 
ATOM      4  H   UNL     1      -2.227  -4.373   1.019  0.00  0.00    +0.149 HD
ENDROOT
BRANCH   1   6
ATOM      5  C   UNL     1       1.032  -2.244   0.441  0.00  0.00    +0.015 C 
ATOM      6  C   UNL     1      -0.159  -2.849   0.615  0.00  0.00    +0.068 C 
BRANCH   5  11
ATOM      7  C   UNL     1       0.021   1.344   0.018  0.00  0.00    +0.001 A 
ATOM      8  C   UNL     1       1.194   1.898  -0.464  0.00  0.00    +0.002 A 
ATOM      9  C   UNL     1       2.315   1.108  -0.652  0.00  0.00    +0.033 A 
ATOM     10  C   UNL     1       2.270  -0.239  -0.360  0.00  0.00    +0.133 A 
ATOM     11  C   UNL     1       1.089  -0.806   0.127  0.00  0.00    +0.005 A 
ATOM     12  C   UNL     1      -0.040  -0.001   0.315  0.00  0.00    +0.010 A 
BRANCH  10  13
ATOM     13  N   UNL     1       3.469  -1.083  -0.563  0.00  0.00    +0.057 N 
ATOM     14  O   UNL     1       4.568  -0.639  -0.321  0.00  0.00    -0.126 OA
ATOM     15  O   UNL     1       3.350  -2.215  -0.970  0.00  0.00    -0.126 OA
ENDBRANCH  10  13
ENDBRANCH   5  11
ENDBRANCH   1   6
BRANCH   3  16
ATOM     16  C   UNL     1      -1.463  -6.315   1.413  0.00  0.00    +0.140 C 
BRANCH  16  17
ATOM     17  C   UNL     1      -2.901  -6.741   1.557  0.00  0.00    -0.029 A 
ATOM     18  C   UNL     1      -3.520  -6.678   2.792  0.00  0.00    +0.005 A 
ATOM     19  C   UNL     1      -4.839  -7.068   2.928  0.00  0.00    +0.002 A 
ATOM     20  C   UNL     1      -5.543  -7.523   1.830  0.00  0.00    +0.023 A 
ATOM     21  C   UNL     1      -4.925  -7.588   0.589  0.00  0.00    +0.035 A 
ATOM     22  C   UNL     1      -3.601  -7.190   0.454  0.00  0.00    +0.028 A 
BRANCH  21  23
ATOM     23  N   UNL     1      -5.636  -8.049  -0.525  0.00  0.00    -0.270 N 
ATOM     24  C   UNL     1      -5.002  -8.751  -1.485  0.00  0.00    +0.301 C 
ATOM     25  O   UNL     1      -3.800  -8.921  -1.421  0.00  0.00    -0.253 OA
ATOM     26  N   UNL     1      -5.701  -9.265  -2.517  0.00  0.00    -0.313 N 
ATOM     27  H   UNL     1      -6.584  -7.863  -0.606  0.00  0.00    +0.156 HD
ATOM     28  H   UNL     1      -6.660  -9.130  -2.567  0.00  0.00    +0.146 HD
ATOM     29  H   UNL     1      -5.245  -9.771  -3.208  0.00  0.00    +0.146 HD
ENDBRANCH  21  23
ENDBRANCH  16  17
ENDBRANCH   3  16
TORSDOF 6
