REMARK  Name = ZINC22602691
REMARK  6 active torsions:
REMARK  status: ('A' for Active; 'I' for Inactive)
REMARK    1  A    between atoms: C_1  and  C_2
REMARK    2  A    between atoms: C_6  and  C_16
REMARK    3  A    between atoms: N_8  and  C_9
REMARK    4  A    between atoms: N_18  and  C_19
REMARK    5  A    between atoms: C_21  and  C_30
REMARK    6  A    between atoms: C_24  and  N_25
REMARK                            x       y       z     vdW  Elec       q    Type
REMARK                         _______ _______ _______ _____ _____    ______ ____
ROOT
ATOM      1  C   UNL     1       5.447   2.120   0.188  0.00  0.00    +0.272 C 
ATOM      2  O   UNL     1       6.456   2.740   0.466  0.00  0.00    -0.268 OA
ATOM      3  N   UNL     1       5.491   0.778   0.072  0.00  0.00    -0.279 N 
ATOM      4  H   UNL     1       4.597   0.224  -0.250  0.00  0.00    +0.155 HD
ENDROOT
BRANCH   1  10
ATOM      5  C   UNL     1       0.444   4.729  -0.655  0.00  0.00    +0.066 C 
ATOM      6  C   UNL     1       1.800   4.118  -0.417  0.00  0.00    +0.044 A 
ATOM      7  C   UNL     1       2.850   4.918  -0.114  0.00  0.00    +0.076 A 
ATOM      8  C   UNL     1       4.111   4.303   0.102  0.00  0.00    +0.213 A 
ATOM      9  O   UNL     1       5.101   4.962   0.379  0.00  0.00    -0.285 OA
ATOM     10  C   UNL     1       4.174   2.838  -0.021  0.00  0.00    +0.193 A 
ATOM     11  N   UNL     1       3.073   2.179  -0.317  0.00  0.00    -0.158 NA
ATOM     12  N   UNL     1       1.954   2.774  -0.509  0.00  0.00    -0.235 N 
BRANCH  12  13
ATOM     13  C   UNL     1       0.835   1.997  -0.825  0.00  0.00    +0.084 A 
ATOM     14  C   UNL     1      -0.301   2.056  -0.028  0.00  0.00    +0.029 A 
ATOM     15  C   UNL     1      -1.405   1.288  -0.342  0.00  0.00    +0.002 A 
ATOM     16  C   UNL     1      -1.379   0.457  -1.447  0.00  0.00    +0.002 A 
ATOM     17  C   UNL     1      -0.253   0.399  -2.247  0.00  0.00    +0.022 A 
ATOM     18  C   UNL     1       0.856   1.164  -1.938  0.00  0.00    +0.066 A 
ATOM     19 CL   UNL     1       2.272   1.087  -2.939  0.00  0.00    -0.081 Cl
ENDBRANCH  12  13
ENDBRANCH   1  10
BRANCH   3  20
ATOM     20  C   UNL     1       6.676   0.088   0.361  0.00  0.00    +0.056 A 
ATOM     21  C   UNL     1       7.898   0.711   0.191  0.00  0.00    +0.038 A 
ATOM     22  C   UNL     1       9.077   0.019   0.480  0.00  0.00    +0.038 A 
ATOM     23  C   UNL     1       9.017  -1.299   0.941  0.00  0.00    +0.015 A 
ATOM     24  C   UNL     1       7.797  -1.916   1.109  0.00  0.00    +0.026 A 
ATOM     25  C   UNL     1       6.622  -1.228   0.828  0.00  0.00    +0.051 A 
BRANCH  25  26
ATOM     26  N   UNL     1       5.391  -1.853   1.006  0.00  0.00    -0.328 N 
ATOM     27  C   UNL     1       5.563  -3.219   1.563  0.00  0.00    +0.105 C 
ATOM     28  C   UNL     1       4.173  -3.533   2.170  0.00  0.00    +0.020 C 
ATOM     29  C   UNL     1       3.735  -2.169   2.752  0.00  0.00    +0.020 C 
ATOM     30  C   UNL     1       4.560  -1.120   1.985  0.00  0.00    +0.105 C 
ENDBRANCH  25  26
BRANCH  22  31
ATOM     31  C   UNL     1      10.384   0.679   0.299  0.00  0.00    +0.242 C 
ATOM     32  O   UNL     1      10.435   1.826  -0.103  0.00  0.00    -0.270 OA
ATOM     33  N   UNL     1      11.521   0.011   0.578  0.00  0.00    -0.325 N 
ATOM     34  H   UNL     1      12.495   0.504   0.443  0.00  0.00    +0.145 HD
ATOM     35  H   UNL     1      11.474  -1.026   0.942  0.00  0.00    +0.145 HD
ENDBRANCH  22  31
ENDBRANCH   3  20
TORSDOF 5
