REMARK  Name = ZINC54672191
REMARK  6 active torsions:
REMARK  status: ('A' for Active; 'I' for Inactive)
REMARK    1  A    between atoms: C_2  and  N_9
REMARK    2  A    between atoms: C_10  and  C_12
REMARK    3  A    between atoms: C_12  and  C_13
REMARK    4  A    between atoms: N_26  and  C_27
REMARK    5  A    between atoms: C_27  and  C_28
REMARK    6  A    between atoms: C_33  and  C_36
REMARK                            x       y       z     vdW  Elec       q    Type
REMARK                         _______ _______ _______ _____ _____    ______ ____
ROOT
ATOM      1  C   UNL     1       3.768   6.480  -0.061  0.00  0.00    +0.153 C 
ATOM      2  C   UNL     1       3.823   7.974   0.035  0.00  0.00    +0.231 C 
ATOM      3  O   UNL     1       3.141   8.531   0.871  0.00  0.00    -0.274 OA
ATOM      4  N   UNL     1       4.593   8.729  -0.761  0.00  0.00    -0.310 N 
ATOM      5  C   UNL     1       5.308   8.125  -1.882  0.00  0.00    +0.090 C 
ATOM      6  C   UNL     1       5.490   9.134  -3.011  0.00  0.00    +0.024 C 
ATOM      7  C   UNL     1       4.132   9.555  -3.571  0.00  0.00    +0.002 C 
ATOM      8  C   UNL     1       3.396   8.318  -4.093  0.00  0.00    +0.002 C 
ATOM      9  C   UNL     1       3.177   7.343  -2.935  0.00  0.00    +0.021 C 
ATOM     10  C   UNL     1       4.533   6.904  -2.373  0.00  0.00    +0.078 C 
ATOM     11  N   UNL     1       4.334   5.951  -1.289  0.00  0.00    -0.278 NA
ATOM     12  H   UNL     1       4.677   9.674  -0.595  0.00  0.00    +0.149 HD
ENDROOT
BRANCH   1  13
ATOM     13  C   UNL     1       2.314   6.016   0.091  0.00  0.00    +0.124 C 
BRANCH  13  15
ATOM     14  N   UNL     1       0.500   6.452   1.714  0.00  0.00    -0.285 N 
ATOM     15  C   UNL     1       1.822   6.349   1.476  0.00  0.00    +0.219 C 
ATOM     16  O   UNL     1       2.616   6.525   2.376  0.00  0.00    -0.275 OA
ATOM     17  H   UNL     1      -0.137   6.241   1.014  0.00  0.00    +0.155 HD
BRANCH  14  19
ATOM     18  C   UNL     1      -1.097   7.644   3.078  0.00  0.00    +0.043 A 
ATOM     19  C   UNL     1       0.046   6.863   2.972  0.00  0.00    +0.036 A 
ATOM     20  C   UNL     1       0.737   6.491   4.117  0.00  0.00    +0.043 A 
ATOM     21  C   UNL     1       0.286   6.898   5.359  0.00  0.00    +0.044 A 
ATOM     22  C   UNL     1      -0.854   7.676   5.461  0.00  0.00    +0.040 A 
ATOM     23  C   UNL     1      -1.544   8.049   4.322  0.00  0.00    +0.044 A 
ATOM     24 CL   UNL     1      -2.973   9.026   4.455  0.00  0.00    -0.083 Cl
ATOM     25 CL   UNL     1       1.150   6.432   6.791  0.00  0.00    -0.083 Cl
ENDBRANCH  14  19
ENDBRANCH  13  15
ENDBRANCH   1  13
BRANCH  11  26
ATOM     26  C   UNL     1       5.508   5.107  -1.050  0.00  0.00    +0.181 C 
BRANCH  26  27
ATOM     27  C   UNL     1       5.064   3.759  -0.544  0.00  0.00    +0.230 C 
ATOM     28  O   UNL     1       3.883   3.488  -0.496  0.00  0.00    -0.274 OA
ATOM     29  N   UNL     1       5.980   2.854  -0.144  0.00  0.00    -0.300 N 
ATOM     30  C   UNL     1       7.404   3.208  -0.083  0.00  0.00    +0.108 C 
ATOM     31  C   UNL     1       7.933   2.884   1.319  0.00  0.00    +0.032 C 
ATOM     32  C   UNL     1       7.634   1.420   1.647  0.00  0.00    +0.078 C 
ATOM     33  C   UNL     1       6.121   1.192   1.637  0.00  0.00    +0.032 C 
ATOM     34  C   UNL     1       5.571   1.498   0.245  0.00  0.00    +0.108 C 
BRANCH  32  35
ATOM     35  C   UNL     1       8.183   1.089   3.011  0.00  0.00    +0.214 C 
ATOM     36  O   UNL     1       8.756   1.940   3.656  0.00  0.00    -0.276 OA
ATOM     37  N   UNL     1       8.036  -0.153   3.513  0.00  0.00    -0.329 N 
ATOM     38  H   UNL     1       7.577  -0.834   2.996  0.00  0.00    +0.145 HD
ATOM     39  H   UNL     1       8.389  -0.366   4.391  0.00  0.00    +0.145 HD
ENDBRANCH  32  35
ENDBRANCH  26  27
ENDBRANCH  11  26
TORSDOF 6
