REMARK  Name = ZINC43150324
REMARK  8 active torsions:
REMARK  status: ('A' for Active; 'I' for Inactive)
REMARK    1  A    between atoms: C_1  and  C_2
REMARK    2  A    between atoms: C_4  and  C_23
REMARK    3  A    between atoms: C_5  and  N_9
REMARK    4  A    between atoms: C_6  and  C_8
REMARK    5  A    between atoms: N_12  and  C_13
REMARK    6  A    between atoms: N_12  and  C_14
REMARK    7  A    between atoms: C_14  and  C_15
REMARK    8  A    between atoms: C_19  and  C_21
REMARK                            x       y       z     vdW  Elec       q    Type
REMARK                         _______ _______ _______ _____ _____    ______ ____
ROOT
ATOM      1  N   UNL     1      -0.514  -4.104   0.151  0.00  0.00    -0.269 N 
ATOM      2  C   UNL     1      -0.607  -4.670   1.371  0.00  0.00    +0.307 C 
ATOM      3  O   UNL     1      -0.386  -4.009   2.367  0.00  0.00    -0.252 OA
ATOM      4  N   UNL     1      -0.947  -5.970   1.486  0.00  0.00    -0.284 N 
ATOM      5  C   UNL     1      -1.213  -6.766   0.286  0.00  0.00    +0.134 C 
ATOM      6  H   UNL     1      -0.612  -4.649  -0.645  0.00  0.00    +0.156 HD
ENDROOT
BRANCH   1  11
ATOM      7  C   UNL     1       0.455   1.466  -0.324  0.00  0.00    +0.044 C 
ATOM      8  C   UNL     1       0.198  -0.014  -0.198  0.00  0.00    -0.050 A 
ATOM      9  C   UNL     1       1.088  -0.812   0.497  0.00  0.00    +0.008 A 
ATOM     10  C   UNL     1       0.855  -2.168   0.614  0.00  0.00    -0.029 A 
ATOM     11  C   UNL     1      -0.275  -2.730   0.034  0.00  0.00    +0.041 A 
ATOM     12  C   UNL     1      -1.167  -1.926  -0.662  0.00  0.00    -0.029 A 
ATOM     13  C   UNL     1      -0.931  -0.569  -0.771  0.00  0.00    +0.008 A 
ATOM     14  C   UNL     1      -2.394  -2.531  -1.293  0.00  0.00    +0.045 C 
ATOM     15  C   UNL     1       1.826  -3.038   1.371  0.00  0.00    +0.045 C 
ENDBRANCH   1  11
BRANCH   4  16
ATOM     16  C   UNL     1      -1.048  -6.585   2.812  0.00  0.00    +0.144 C 
BRANCH  16  17
ATOM     17  C   UNL     1      -2.455  -6.433   3.329  0.00  0.00    -0.029 A 
ATOM     18  C   UNL     1      -2.801  -5.316   4.070  0.00  0.00    +0.005 A 
ATOM     19  C   UNL     1      -4.090  -5.168   4.549  0.00  0.00    +0.002 A 
ATOM     20  C   UNL     1      -5.041  -6.133   4.291  0.00  0.00    +0.019 A 
ATOM     21  C   UNL     1      -4.699  -7.263   3.545  0.00  0.00    +0.052 A 
ATOM     22  C   UNL     1      -3.397  -7.404   3.060  0.00  0.00    +0.024 A 
BRANCH  21  23
ATOM     23  C   UNL     1      -5.681  -8.269   3.273  0.00  0.00    +0.099 C 
ATOM     24  N   UNL     1      -6.459  -9.068   3.058  0.00  0.00    -0.191 NA
ENDBRANCH  21  23
ENDBRANCH  16  17
ENDBRANCH   4  16
TORSDOF 4
