REMARK  Name = ZINC48462300
REMARK  7 active torsions:
REMARK  status: ('A' for Active; 'I' for Inactive)
REMARK    1  A    between atoms: C_1  and  C_2
REMARK    2  A    between atoms: C_5  and  C_20
REMARK    3  A    between atoms: C_6  and  C_8
REMARK    4  A    between atoms: N_10  and  C_11
REMARK    5  A    between atoms: C_11  and  C_13
REMARK    6  A    between atoms: C_11  and  C_14
REMARK    7  A    between atoms: C_17  and  C_19
REMARK                            x       y       z     vdW  Elec       q    Type
REMARK                         _______ _______ _______ _____ _____    ______ ____
ROOT
ATOM      1  C   UNL     1       0.589  -2.757   2.443  0.00  0.00    +0.245 C 
ATOM      2  O   UNL     1       0.711  -3.966   2.451  0.00  0.00    -0.270 OA
ATOM      3  N   UNL     1       0.720  -2.059   3.589  0.00  0.00    -0.302 N 
ATOM      4  H   UNL     1       0.623  -1.094   3.583  0.00  0.00    +0.150 HD
ENDROOT
BRANCH   1  10
ATOM      5  C   UNL     1      -0.013   1.502  -0.086  0.00  0.00    +0.044 C 
ATOM      6  C   UNL     1       0.006  -0.004  -0.044  0.00  0.00    -0.050 A 
ATOM      7  C   UNL     1      -0.252  -0.730  -1.194  0.00  0.00    +0.003 A 
ATOM      8  C   UNL     1      -0.236  -2.113  -1.164  0.00  0.00    +0.004 A 
ATOM      9  C   UNL     1       0.036  -2.778   0.014  0.00  0.00    -0.038 A 
ATOM     10  C   UNL     1       0.297  -2.052   1.177  0.00  0.00    +0.040 A 
ATOM     11  C   UNL     1       0.285  -0.656   1.139  0.00  0.00    +0.016 A 
ATOM     12  C   UNL     1       0.051  -4.284   0.045  0.00  0.00    +0.044 C 
ENDBRANCH   1  10
BRANCH   3  13
ATOM     13  C   UNL     1       1.010  -2.758   4.843  0.00  0.00    +0.136 C 
ATOM     14  C   UNL     1       2.519  -2.971   4.972  0.00  0.00    +0.036 C 
BRANCH  13  15
ATOM     15  C   UNL     1       0.518  -1.932   6.004  0.00  0.00    +0.125 A 
ATOM     16  C   UNL     1      -0.085  -2.408   7.108  0.00  0.00    +0.047 A 
ATOM     17  C   UNL     1      -0.375  -1.293   7.928  0.00  0.00    +0.045 A 
ATOM     18  C   UNL     1       0.067  -0.203   7.276  0.00  0.00    +0.102 A 
ATOM     19  O   UNL     1       0.613  -0.597   6.113  0.00  0.00    -0.463 OA
ATOM     20  C   UNL     1      -0.027   1.218   7.768  0.00  0.00    +0.086 C 
ENDBRANCH  13  15
ENDBRANCH   3  13
TORSDOF 3
