REMARK  Name = ZINC09591717
REMARK  6 active torsions:
REMARK  status: ('A' for Active; 'I' for Inactive)
REMARK    1  A    between atoms: C_10  and  C_13
REMARK    2  A    between atoms: C_13  and  C_14
REMARK    3  A    between atoms: C_14  and  O_16
REMARK    4  A    between atoms: O_16  and  C_17
REMARK    5  A    between atoms: C_17  and  C_18
REMARK    6  A    between atoms: C_24  and  C_29
REMARK                            x       y       z     vdW  Elec       q    Type
REMARK                         _______ _______ _______ _____ _____    ______ ____
ROOT
ATOM      1  C   UNL     1       1.367   3.849  -4.540  0.00  0.00    +0.306 C 
ENDROOT
BRANCH   1   2
ATOM      2  C   UNL     1       1.882   3.682  -5.946  0.00  0.00    +0.149 A 
ATOM      3  N   UNL     1       1.393   4.475  -6.934  0.00  0.00    -0.308 N 
ATOM      4  H   UNL     1       0.719   5.139  -6.722  0.00  0.00    +0.170 HD
ATOM      5  C   UNL     1       1.830   4.361  -8.202  0.00  0.00    +0.261 A 
ATOM      6  O   UNL     1       1.385   5.084  -9.077  0.00  0.00    -0.267 OA
ATOM      7  C   UNL     1       2.821   3.376  -8.509  0.00  0.00    +0.083 A 
ATOM      8  C   UNL     1       3.443   3.059  -9.790  0.00  0.00    +0.039 A 
ATOM      9  C   UNL     1       4.371   2.070  -9.837  0.00  0.00    +0.059 A 
ATOM     10  S   UNL     1       4.460   1.507  -8.148  0.00  0.00    -0.076 S 
ATOM     11  C   UNL     1       3.263   2.599  -7.425  0.00  0.00    +0.116 A 
ATOM     12  N   UNL     1       2.787   2.773  -6.195  0.00  0.00    -0.223 NA
BRANCH   8  13
ATOM     13  C   UNL     1       3.069   3.800 -11.012  0.00  0.00    +0.136 A 
ATOM     14  C   UNL     1       3.932   4.380 -11.889  0.00  0.00    +0.050 A 
ATOM     15  C   UNL     1       3.147   4.970 -12.901  0.00  0.00    +0.042 A 
ATOM     16  C   UNL     1       1.858   4.731 -12.591  0.00  0.00    +0.196 A 
ATOM     17  O   UNL     1       1.815   4.024 -11.448  0.00  0.00    -0.463 OA
ENDBRANCH   8  13
ENDBRANCH   1   2
BRANCH   1  18
ATOM     18  O   UNL     1       2.026   2.894  -3.667  0.00  0.00    -0.457 OA
BRANCH  18  19
ATOM     19  C   UNL     1       1.677   2.912  -2.371  0.00  0.00    +0.309 C 
ATOM     20  O   UNL     1       0.848   3.699  -1.979  0.00  0.00    -0.251 OA
BRANCH  19  21
ATOM     21  C   UNL     1       2.319   1.951  -1.404  0.00  0.00    +0.144 C 
BRANCH  21  31
ATOM     22  C   UNL     1       0.044  -2.766   0.001  0.00  0.00    +0.002 A 
ATOM     23  C   UNL     1      -1.016  -2.093  -0.579  0.00  0.00    +0.001 A 
ATOM     24  C   UNL     1      -1.039  -0.711  -0.578  0.00  0.00    +0.016 A 
ATOM     25  C   UNL     1       0.002  -0.004   0.002  0.00  0.00    +0.030 A 
ATOM     26  C   UNL     1       1.078  -0.674   0.584  0.00  0.00    +0.047 A 
ATOM     27  C   UNL     1       1.085  -2.066   0.579  0.00  0.00    +0.024 A 
ATOM     28  N   UNL     1       2.144   0.008   1.162  0.00  0.00    -0.284 N 
ATOM     29  C   UNL     1       2.457   1.287   0.984  0.00  0.00    +0.231 C 
ATOM     30  O   UNL     1       3.356   1.759   1.647  0.00  0.00    -0.274 OA
ATOM     31  C   UNL     1       1.749   2.179  -0.003  0.00  0.00    +0.148 C 
ATOM     32  S   UNL     1      -0.022   1.762   0.012  0.00  0.00    -0.110 S 
ATOM     33  H   UNL     1       2.716  -0.502   1.757  0.00  0.00    +0.155 HD
ENDBRANCH  21  31
ENDBRANCH  19  21
ENDBRANCH  18  19
ENDBRANCH   1  18
TORSDOF 6
