REMARK  Name = ZINC03100276
REMARK  4 active torsions:
REMARK  status: ('A' for Active; 'I' for Inactive)
REMARK    1  A    between atoms: C_3  and  C_6
REMARK    2  A    between atoms: N_8  and  C_9
REMARK    3  A    between atoms: C_10  and  C_17
REMARK    4  A    between atoms: N_19  and  C_20
REMARK                            x       y       z     vdW  Elec       q    Type
REMARK                         _______ _______ _______ _____ _____    ______ ____
ROOT
ATOM      1  C   UNL     1       2.360  -4.817  -1.491  0.00  0.00    +0.085 A 
ATOM      2  C   UNL     1       2.423  -4.196  -0.255  0.00  0.00    +0.069 A 
ATOM      3  C   UNL     1       2.499  -5.051   0.929  0.00  0.00    -0.023 A 
ATOM      4  C   UNL     1       2.506  -6.373   0.679  0.00  0.00    -0.004 A 
ATOM      5  S   UNL     1       2.412  -6.499  -1.090  0.00  0.00    -0.077 S 
ATOM      6  C   UNL     1       2.589  -7.185   1.943  0.00  0.00    +0.043 C 
ATOM      7  C   UNL     1       3.067  -6.185   3.018  0.00  0.00    +0.010 C 
ATOM      8  C   UNL     1       2.572  -4.843   2.442  0.00  0.00    +0.037 C 
ENDROOT
BRANCH   1  11
ATOM      9  C   UNL     1       2.225  -5.007  -3.846  0.00  0.00    +0.284 C 
ATOM     10  O   UNL     1       2.250  -6.219  -3.740  0.00  0.00    -0.266 OA
ATOM     11  N   UNL     1       2.278  -4.233  -2.745  0.00  0.00    -0.273 N 
ATOM     12  H   UNL     1       2.258  -3.267  -2.829  0.00  0.00    +0.156 HD
BRANCH   9  15
ATOM     13  C   UNL     1       2.005  -4.074  -7.369  0.00  0.00    +0.042 A 
ATOM     14  C   UNL     1       2.078  -5.053  -6.365  0.00  0.00    +0.054 A 
ATOM     15  C   UNL     1       2.138  -4.389  -5.173  0.00  0.00    +0.189 A 
ATOM     16  O   UNL     1       2.097  -3.065  -5.430  0.00  0.00    -0.458 OA
ATOM     17  C   UNL     1       2.023  -2.871  -6.753  0.00  0.00    +0.196 A 
ENDBRANCH   9  15
ENDBRANCH   1  11
BRANCH   2  18
ATOM     18  C   UNL     1       2.409  -2.735  -0.137  0.00  0.00    +0.251 C 
ATOM     19  O   UNL     1       3.455  -2.113  -0.144  0.00  0.00    -0.270 OA
ATOM     20  N   UNL     1       1.237  -2.080  -0.021  0.00  0.00    -0.281 N 
ATOM     21  H   UNL     1       0.408  -2.578   0.053  0.00  0.00    +0.155 HD
BRANCH  20  22
ATOM     22  C   UNL     1       1.216  -0.681  -0.005  0.00  0.00    +0.034 A 
ATOM     23  C   UNL     1       0.161   0.005  -0.594  0.00  0.00    +0.025 A 
ATOM     24  C   UNL     1       0.143   1.386  -0.577  0.00  0.00    +0.022 A 
ATOM     25  C   UNL     1       1.173   2.086   0.026  0.00  0.00    +0.041 A 
ATOM     26  C   UNL     1       2.225   1.405   0.613  0.00  0.00    +0.022 A 
ATOM     27  C   UNL     1       2.249   0.024   0.599  0.00  0.00    +0.025 A 
ATOM     28 CL   UNL     1       1.147   3.822   0.045  0.00  0.00    -0.084 Cl
ENDBRANCH  20  22
ENDBRANCH   2  18
TORSDOF 4
