REMARK  Name = ZINC17832027
REMARK  6 active torsions:
REMARK  status: ('A' for Active; 'I' for Inactive)
REMARK    1  A    between atoms: C_1  and  C_2
REMARK    2  A    between atoms: C_7  and  N_8
REMARK    3  A    between atoms: C_12  and  C_15
REMARK    4  A    between atoms: C_15  and  S_16
REMARK    5  A    between atoms: S_16  and  C_17
REMARK    6  A    between atoms: N_21  and  C_22
REMARK                            x       y       z     vdW  Elec       q    Type
REMARK                         _______ _______ _______ _____ _____    ______ ____
ROOT
ATOM      1  N   UNL     1       0.026  -0.015   2.417  0.00  0.00    -0.219 N 
ATOM      2  C   UNL     1      -1.055   0.276   3.169  0.00  0.00    +0.272 A 
ATOM      3  O   UNL     1      -2.210  -0.016   2.912  0.00  0.00    -0.266 OA
ATOM      4  C   UNL     1      -0.606   0.980   4.310  0.00  0.00    +0.095 A 
ATOM      5  C   UNL     1       0.735   1.101   4.226  0.00  0.00    +0.049 A 
ATOM      6  N   UNL     1       1.152   0.494   3.076  0.00  0.00    -0.293 N 
ATOM      7  H   UNL     1       2.070   0.428   2.768  0.00  0.00    +0.187 HD
ENDROOT
BRANCH   1  14
ATOM      8  C   UNL     1      -0.018   1.503   0.010  0.00  0.00    +0.046 C 
ATOM      9  C   UNL     1       0.002  -0.004   0.002  0.00  0.00    -0.025 A 
ATOM     10  C   UNL     1       0.006  -0.689  -1.198  0.00  0.00    +0.005 A 
ATOM     11  C   UNL     1       0.024  -2.071  -1.206  0.00  0.00    +0.000 A 
ATOM     12  C   UNL     1       0.039  -2.773  -0.014  0.00  0.00    +0.002 A 
ATOM     13  C   UNL     1       0.035  -2.095   1.188  0.00  0.00    +0.028 A 
ATOM     14  C   UNL     1       0.023  -0.706   1.200  0.00  0.00    +0.070 A 
ENDBRANCH   1  14
BRANCH   5  15
ATOM     15  C   UNL     1       1.622   1.784   5.234  0.00  0.00    +0.132 C 
BRANCH  15  16
ATOM     16  S   UNL     1       2.513   0.535   6.201  0.00  0.00    -0.078 S 
BRANCH  16  17
ATOM     17  C   UNL     1       3.494   1.480   7.319  0.00  0.00    +0.214 A 
ATOM     18  N   UNL     1       3.536   2.792   7.405  0.00  0.00    -0.101 NA
ATOM     19  N   UNL     1       4.354   3.156   8.326  0.00  0.00    -0.022 NA
ATOM     20  N   UNL     1       4.887   2.126   8.888  0.00  0.00    -0.038 NA
ATOM     21  N   UNL     1       4.344   0.992   8.258  0.00  0.00    -0.187 N 
BRANCH  21  22
ATOM     22  C   UNL     1       4.622  -0.353   8.538  0.00  0.00    +0.070 A 
ATOM     23  C   UNL     1       3.621  -1.309   8.424  0.00  0.00    +0.028 A 
ATOM     24  C   UNL     1       3.899  -2.634   8.700  0.00  0.00    +0.002 A 
ATOM     25  C   UNL     1       5.171  -3.008   9.090  0.00  0.00    +0.000 A 
ATOM     26  C   UNL     1       6.170  -2.059   9.204  0.00  0.00    +0.002 A 
ATOM     27  C   UNL     1       5.900  -0.734   8.924  0.00  0.00    +0.028 A 
ENDBRANCH  21  22
ENDBRANCH  16  17
ENDBRANCH  15  16
ENDBRANCH   5  15
TORSDOF 5
