REMARK  Name = ZINC46347178
REMARK  11 active torsions:
REMARK  status: ('A' for Active; 'I' for Inactive)
REMARK    1  A    between atoms: C_1  and  C_2
REMARK    2  A    between atoms: C_5  and  S_8
REMARK    3  A    between atoms: S_8  and  C_9
REMARK    4  A    between atoms: C_9  and  C_10
REMARK    5  A    between atoms: N_12  and  N_13
REMARK    6  A    between atoms: N_16  and  C_17
REMARK    7  A    between atoms: C_17  and  C_18
REMARK    8  A    between atoms: C_18  and  C_20
REMARK    9  A    between atoms: C_18  and  N_25
REMARK   10  A    between atoms: N_25  and  C_26
REMARK   11  A    between atoms: N_25  and  C_27
REMARK                            x       y       z     vdW  Elec       q    Type
REMARK                         _______ _______ _______ _____ _____    ______ ____
ROOT
ATOM      1  N   UNL     1       0.170  -8.195   3.208  0.00  0.00    -0.218 N 
ATOM      2  C   UNL     1       0.289  -8.810   4.402  0.00  0.00    +0.316 C 
ATOM      3  O   UNL     1       0.483 -10.009   4.451  0.00  0.00    -0.251 OA
ATOM      4  N   UNL     1       0.194  -8.095   5.540  0.00  0.00    -0.299 N 
ATOM      5  H   UNL     1       0.238  -8.710   2.389  0.00  0.00    +0.174 HD
ATOM      6  H   UNL     1       0.039  -7.138   5.501  0.00  0.00    +0.150 HD
ENDROOT
BRANCH   1   9
ATOM      7  C   UNL     1      -0.174  -6.199   1.957  0.00  0.00    +0.239 C 
ATOM      8  O   UNL     1      -0.088  -6.842   0.933  0.00  0.00    -0.273 OA
ATOM      9  N   UNL     1      -0.054  -6.814   3.151  0.00  0.00    -0.233 N 
ATOM     10  H   UNL     1      -0.123  -6.299   3.970  0.00  0.00    +0.173 HD
BRANCH   7  11
ATOM     11  C   UNL     1      -0.415  -4.713   1.896  0.00  0.00    +0.171 C 
BRANCH  11  12
ATOM     12  S   UNL     1      -0.529  -4.190   0.163  0.00  0.00    -0.116 S 
BRANCH  12  17
ATOM     13  C   UNL     1      -1.484   1.761   0.493  0.00  0.00    +0.044 C 
ATOM     14  C   UNL     1      -1.246   0.276   0.410  0.00  0.00    -0.050 A 
ATOM     15  C   UNL     1      -1.167  -0.343  -0.824  0.00  0.00    +0.004 A 
ATOM     16  C   UNL     1      -0.948  -1.704  -0.903  0.00  0.00    +0.015 A 
ATOM     17  C   UNL     1      -0.807  -2.452   0.259  0.00  0.00    +0.008 A 
ATOM     18  C   UNL     1      -0.887  -1.827   1.498  0.00  0.00    +0.015 A 
ATOM     19  C   UNL     1      -1.100  -0.465   1.569  0.00  0.00    +0.004 A 
ENDBRANCH  12  17
ENDBRANCH  11  12
ENDBRANCH   7  11
ENDBRANCH   1   9
BRANCH   4  20
ATOM     20  C   UNL     1       0.325  -8.763   6.838  0.00  0.00    +0.095 C 
BRANCH  20  21
ATOM     21  C   UNL     1       0.290  -7.718   7.955  0.00  0.00    -0.020 C 
BRANCH  21  22
ATOM     22  C   UNL     1      -1.058  -7.045   7.971  0.00  0.00    -0.052 A 
ATOM     23  C   UNL     1      -1.229  -5.804   7.386  0.00  0.00    +0.009 A 
ATOM     24  C   UNL     1      -2.455  -5.226   7.419  0.00  0.00    +0.045 A 
ATOM     25  S   UNL     1      -3.417  -6.448   8.296  0.00  0.00    -0.105 S 
ATOM     26  C   UNL     1      -2.122  -7.649   8.555  0.00  0.00    +0.047 A 
ENDBRANCH  21  22
BRANCH  21  27
ATOM     27  N   UNL     1       0.525  -8.376   9.247  0.00  0.00    +0.382 N 
ATOM     28  C   UNL     1       1.834  -9.041   9.227  0.00  0.00    -0.096 C 
ATOM     29  C   UNL     1       0.503  -7.371  10.319  0.00  0.00    -0.096 C 
ATOM     30  H   UNL     1      -0.198  -9.060   9.413  0.00  0.00    -0.082 HD
ENDBRANCH  21  27
ENDBRANCH  20  21
ENDBRANCH   4  20
TORSDOF 8
