REMARK  Name = ZINC63270887
REMARK  7 active torsions:
REMARK  status: ('A' for Active; 'I' for Inactive)
REMARK    1  A    between atoms: C_1  and  C_2
REMARK    2  A    between atoms: C_2  and  C_3
REMARK    3  A    between atoms: C_2  and  N_4
REMARK    4  A    between atoms: N_7  and  N_8
REMARK    5  A    between atoms: C_9  and  C_11
REMARK    6  A    between atoms: C_11  and  C_12
REMARK    7  A    between atoms: C_12  and  N_13
REMARK                            x       y       z     vdW  Elec       q    Type
REMARK                         _______ _______ _______ _____ _____    ______ ____
ROOT
ATOM      1  C   UNL     1      -7.266  -2.795   1.124  0.00  0.00    +0.120 C 
ENDROOT
BRANCH   1   2
ATOM      2  N   UNL     1      -7.903  -3.159   2.392  0.00  0.00    -0.298 N 
ATOM      3  C   UNL     1      -7.773  -4.468   2.866  0.00  0.00    +0.048 A 
ATOM      4  C   UNL     1      -7.795  -5.537   1.984  0.00  0.00    +0.024 A 
ATOM      5  C   UNL     1      -7.667  -6.830   2.461  0.00  0.00    +0.002 A 
ATOM      6  C   UNL     1      -7.519  -7.066   3.815  0.00  0.00    +0.001 A 
ATOM      7  C   UNL     1      -7.496  -6.005   4.705  0.00  0.00    +0.017 A 
ATOM      8  C   UNL     1      -7.622  -4.712   4.234  0.00  0.00    +0.034 A 
ATOM      9  S   UNL     1      -7.597  -3.340   5.345  0.00  0.00    -0.086 S 
ATOM     10  C   UNL     1      -8.579  -2.146   4.490  0.00  0.00    +0.034 A 
ATOM     11  C   UNL     1      -8.619  -2.185   3.097  0.00  0.00    +0.048 A 
ATOM     12  C   UNL     1      -9.383  -1.249   2.417  0.00  0.00    +0.024 A 
ATOM     13  C   UNL     1     -10.090  -0.291   3.122  0.00  0.00    +0.002 A 
ATOM     14  C   UNL     1     -10.041  -0.259   4.503  0.00  0.00    +0.001 A 
ATOM     15  C   UNL     1      -9.291  -1.188   5.186  0.00  0.00    +0.017 A 
ENDBRANCH   1   2
BRANCH   1  16
ATOM     16  C   UNL     1      -5.844  -2.298   1.392  0.00  0.00    +0.116 C 
BRANCH  16  18
ATOM     17  N   UNL     1      -3.924  -1.457   0.078  0.00  0.00    -0.233 N 
ATOM     18  C   UNL     1      -5.189  -1.924   0.087  0.00  0.00    +0.231 C 
ATOM     19  O   UNL     1      -5.799  -2.042  -0.954  0.00  0.00    -0.274 OA
ATOM     20  H   UNL     1      -3.436  -1.363   0.910  0.00  0.00    +0.173 HD
BRANCH  17  24
ATOM     21  N   UNL     1      -1.372  -0.511   0.012  0.00  0.00    -0.296 N 
ATOM     22  C   UNL     1      -2.051  -0.643  -1.145  0.00  0.00    +0.316 C 
ATOM     23  O   UNL     1      -1.522  -0.341  -2.197  0.00  0.00    -0.251 OA
ATOM     24  N   UNL     1      -3.315  -1.109  -1.135  0.00  0.00    -0.218 N 
ATOM     25  H   UNL     1      -1.794  -0.752   0.852  0.00  0.00    +0.151 HD
ATOM     26  H   UNL     1      -3.804  -1.204  -1.968  0.00  0.00    +0.174 HD
BRANCH  21  28
ATOM     27  C   UNL     1      -0.019   1.526   0.010  0.00  0.00    +0.027 C 
ATOM     28  C   UNL     1       0.002  -0.004   0.002  0.00  0.00    +0.068 C 
ATOM     29  C   UNL     1       0.742  -0.511   1.242  0.00  0.00    +0.027 C 
ENDBRANCH  21  28
ENDBRANCH  17  24
ENDBRANCH  16  18
ENDBRANCH   1  16
TORSDOF 5
