REMARK  Name = ZINC54109426
REMARK  5 active torsions:
REMARK  status: ('A' for Active; 'I' for Inactive)
REMARK    1  A    between atoms: C_3  and  N_11
REMARK    2  A    between atoms: C_4  and  C_8
REMARK    3  A    between atoms: N_14  and  C_15
REMARK    4  A    between atoms: C_15  and  C_16
REMARK    5  A    between atoms: C_16  and  N_17
REMARK                            x       y       z     vdW  Elec       q    Type
REMARK                         _______ _______ _______ _____ _____    ______ ____
ROOT
ATOM      1  N   UNL     1       3.428   2.072  -0.040  0.00  0.00    -0.269 N 
ATOM      2  C   UNL     1       3.348   3.410  -0.172  0.00  0.00    +0.304 C 
ATOM      3  O   UNL     1       2.261   3.956  -0.182  0.00  0.00    -0.253 OA
ATOM      4  N   UNL     1       4.472   4.144  -0.292  0.00  0.00    -0.301 N 
ATOM      5  H   UNL     1       4.294   1.645   0.052  0.00  0.00    +0.156 HD
ATOM      6  H   UNL     1       5.338   3.709  -0.284  0.00  0.00    +0.150 HD
ENDROOT
BRANCH   1   9
ATOM      7  C   UNL     1      -0.029   1.001  -0.656  0.00  0.00    +0.017 A 
ATOM      8  C   UNL     1       1.121   1.766  -0.662  0.00  0.00    +0.025 A 
ATOM      9  C   UNL     1       2.269   1.302  -0.035  0.00  0.00    +0.049 A 
ATOM     10  C   UNL     1       2.254   0.051   0.605  0.00  0.00    +0.085 A 
ATOM     11  C   UNL     1       1.083  -0.712   0.602  0.00  0.00    +0.032 A 
ATOM     12  C   UNL     1      -0.047  -0.234  -0.026  0.00  0.00    +0.019 A 
ATOM     13 BR   UNL     1      -1.631  -1.267  -0.029  0.00  0.00    -0.050 Br
BRANCH  10  14
ATOM     14  C   UNL     1       3.464  -0.452   1.274  0.00  0.00    +0.388 C 
ATOM     15  O   UNL     1       3.478  -1.581   1.745  0.00  0.00    -0.241 OA
ATOM     16  O   UNL     1       4.457   0.258   1.359  0.00  0.00    -0.241 OA
ENDBRANCH  10  14
ENDBRANCH   1   9
BRANCH   4  17
ATOM     17  C   UNL     1       4.384   5.600  -0.436  0.00  0.00    +0.087 C 
BRANCH  17  18
ATOM     18  C   UNL     1       5.793   6.186  -0.554  0.00  0.00    -0.060 C 
BRANCH  18  19
ATOM     19  N   UNL     1       5.705   7.646  -0.698  0.00  0.00    +0.381 N 
ATOM     20  C   UNL     1       5.220   8.257   0.566  0.00  0.00    -0.079 C 
ATOM     21  C   UNL     1       5.710   9.723   0.461  0.00  0.00    -0.020 C 
ATOM     22  C   UNL     1       7.093   9.578  -0.215  0.00  0.00    -0.020 C 
ATOM     23  C   UNL     1       7.049   8.216  -0.933  0.00  0.00    -0.079 C 
ATOM     24  H   UNL     1       5.088   7.884  -1.460  0.00  0.00    -0.082 HD
ENDBRANCH  18  19
ENDBRANCH  17  18
ENDBRANCH   4  17
TORSDOF 5
