REMARK  Name = ZINC58725182
REMARK  10 active torsions:
REMARK  status: ('A' for Active; 'I' for Inactive)
REMARK    1  A    between atoms: C_1  and  C_2
REMARK    2  A    between atoms: C_2  and  C_3
REMARK    3  A    between atoms: C_2  and  N_4
REMARK    4  A    between atoms: C_5  and  C_7
REMARK    5  A    between atoms: C_7  and  C_8
REMARK    6  A    between atoms: C_8  and  N_9
REMARK    7  A    between atoms: C_10  and  C_12
REMARK    8  A    between atoms: C_21  and  N_22
REMARK    9  A    between atoms: N_22  and  S_23
REMARK   10  A    between atoms: S_23  and  C_26
REMARK                            x       y       z     vdW  Elec       q    Type
REMARK                         _______ _______ _______ _____ _____    ______ ____
ROOT
ATOM      1  C   UNL     1       0.572  -2.322   8.305  0.00  0.00    +0.062 A 
ATOM      2  C   UNL     1       1.921  -2.626   8.225  0.00  0.00    +0.023 A 
ATOM      3  C   UNL     1       2.597  -3.090   9.362  0.00  0.00    -0.017 A 
ATOM      4  C   UNL     1       3.967  -3.406   9.311  0.00  0.00    +0.008 A 
ATOM      5  C   UNL     1       4.598  -3.854  10.430  0.00  0.00    +0.001 A 
ATOM      6  C   UNL     1       3.907  -4.005  11.631  0.00  0.00    +0.001 A 
ATOM      7  C   UNL     1       2.581  -3.710  11.720  0.00  0.00    +0.008 A 
ATOM      8  C   UNL     1       1.894  -3.244  10.585  0.00  0.00    -0.016 A 
ATOM      9  C   UNL     1       0.526  -2.931  10.648  0.00  0.00    +0.036 A 
ATOM     10  C   UNL     1      -0.124  -2.471   9.526  0.00  0.00    +0.087 A 
ENDROOT
BRANCH   1  12
ATOM     11  N   UNL     1       0.517  -1.689   5.943  0.00  0.00    -0.311 N 
ATOM     12  C   UNL     1      -0.142  -1.833   7.110  0.00  0.00    +0.246 C 
ATOM     13  O   UNL     1      -1.325  -1.560   7.177  0.00  0.00    -0.270 OA
ATOM     14  H   UNL     1       1.461  -1.907   5.890  0.00  0.00    +0.149 HD
BRANCH  11  15
ATOM     15  C   UNL     1      -0.191  -1.204   4.756  0.00  0.00    +0.113 C 
BRANCH  15  16
ATOM     16  C   UNL     1       0.780  -1.133   3.576  0.00  0.00    +0.114 C 
BRANCH  16  18
ATOM     17  N   UNL     1       0.711  -0.489   1.189  0.00  0.00    -0.313 N 
ATOM     18  C   UNL     1       0.051  -0.633   2.355  0.00  0.00    +0.215 C 
ATOM     19  O   UNL     1      -1.129  -0.361   2.423  0.00  0.00    -0.276 OA
ATOM     20  H   UNL     1       1.654  -0.707   1.135  0.00  0.00    +0.149 HD
BRANCH  17  22
ATOM     21  C   UNL     1      -0.019   1.526   0.010  0.00  0.00    +0.027 C 
ATOM     22  C   UNL     1       0.002  -0.004   0.002  0.00  0.00    +0.067 C 
ATOM     23  C   UNL     1       0.718  -0.497  -1.257  0.00  0.00    +0.027 C 
ENDBRANCH  17  22
ENDBRANCH  16  18
ENDBRANCH  15  16
ENDBRANCH  11  15
ENDBRANCH   1  12
BRANCH  10  24
ATOM     24  N   UNL     1      -1.477  -2.157   9.592  0.00  0.00    -0.097 NA
BRANCH  24  25
ATOM     25  S   UNL     1      -2.299  -2.330  11.020  0.00  0.00    +0.098 S 
ATOM     26  O   UNL     1      -2.326  -3.721  11.306  0.00  0.00    -0.148 OA
ATOM     27  O   UNL     1      -1.751  -1.377  11.921  0.00  0.00    -0.148 OA
BRANCH  25  28
ATOM     28  C   UNL     1      -3.966  -1.843  10.724  0.00  0.00    +0.148 A 
ATOM     29  C   UNL     1      -5.018  -2.600  10.326  0.00  0.00    +0.037 A 
ATOM     30  C   UNL     1      -6.250  -1.998  10.156  0.00  0.00    +0.010 A 
ATOM     31  C   UNL     1      -6.371  -0.668  10.392  0.00  0.00    +0.047 A 
ATOM     32  S   UNL     1      -4.710  -0.228  10.877  0.00  0.00    -0.077 S 
ENDBRANCH  25  28
ENDBRANCH  24  25
ENDBRANCH  10  24
TORSDOF 8
