REMARK  Name = ZINC44714250
REMARK  12 active torsions:
REMARK  status: ('A' for Active; 'I' for Inactive)
REMARK    1  A    between atoms: C_1  and  C_2
REMARK    2  A    between atoms: C_3  and  C_9
REMARK    3  A    between atoms: C_4  and  C_8
REMARK    4  A    between atoms: C_9  and  C_11
REMARK    5  A    between atoms: C_9  and  N_12
REMARK    6  A    between atoms: C_13  and  C_15
REMARK    7  A    between atoms: C_26  and  C_28
REMARK    8  A    between atoms: C_28  and  C_30
REMARK    9  A    between atoms: C_28  and  O_33
REMARK   10  A    between atoms: C_30  and  C_31
REMARK   11  A    between atoms: C_30  and  C_32
REMARK   12  A    between atoms: O_33  and  C_34
REMARK                            x       y       z     vdW  Elec       q    Type
REMARK                         _______ _______ _______ _____ _____    ______ ____
ROOT
ATOM      1  C   UNL     1       2.451  -1.732  -5.765  0.00  0.00    +0.100 C 
ATOM      2  C   UNL     1       3.577  -1.902  -4.720  0.00  0.00    +0.121 C 
ATOM      3  N   UNL     1       4.786  -1.354  -5.379  0.00  0.00    -0.297 N 
ATOM      4  C   UNL     1       4.298  -0.161  -6.111  0.00  0.00    +0.115 C 
ATOM      5  C   UNL     1       2.928  -0.588  -6.676  0.00  0.00    -0.004 C 
ATOM      6  C   UNL     1       1.947   0.579  -6.616  0.00  0.00    -0.010 C 
ATOM      7  C   UNL     1       2.411   1.680  -7.574  0.00  0.00    -0.082 C 
ATOM      8  N   UNL     1       2.484   1.145  -8.939  0.00  0.00    +0.379 N 
ATOM      9  C   UNL     1       3.497   0.085  -9.008  0.00  0.00    -0.082 C 
ATOM     10  C   UNL     1       3.079  -1.083  -8.111  0.00  0.00    -0.010 C 
ATOM     11  C   UNL     1       6.045  -1.833  -5.325  0.00  0.00    +0.257 C 
ATOM     12  O   UNL     1       6.951  -1.214  -5.841  0.00  0.00    -0.272 OA
ATOM     13  H   UNL     1       1.585   0.766  -9.199  0.00  0.00    -0.086 HD
ATOM     14  H   UNL     1       2.731   1.887  -9.577  0.00  0.00    -0.086 HD
ENDROOT
BRANCH   1  16
ATOM     15  N   UNL     1      -0.017  -1.584  -5.708  0.00  0.00    -0.308 N 
ATOM     16  C   UNL     1       1.158  -1.359  -5.087  0.00  0.00    +0.219 C 
ATOM     17  O   UNL     1       1.175  -0.857  -3.984  0.00  0.00    -0.275 OA
ATOM     18  H   UNL     1      -0.030  -1.986  -6.591  0.00  0.00    +0.149 HD
BRANCH  15  19
ATOM     19  C   UNL     1      -1.274  -1.222  -5.049  0.00  0.00    +0.104 C 
ATOM     20  C   UNL     1      -1.583   0.253  -5.316  0.00  0.00    +0.033 C 
BRANCH  19  23
ATOM     21  C   UNL     1      -3.484  -2.658  -3.364  0.00  0.00    +0.065 C 
ATOM     22  C   UNL     1      -3.346  -2.696  -4.864  0.00  0.00    +0.038 A 
ATOM     23  C   UNL     1      -2.391  -2.075  -5.593  0.00  0.00    +0.015 A 
ATOM     24  C   UNL     1      -2.622  -2.366  -6.942  0.00  0.00    +0.065 A 
ATOM     25  N   UNL     1      -3.679  -3.133  -7.019  0.00  0.00    -0.179 NA
ATOM     26  N   UNL     1      -4.151  -3.360  -5.720  0.00  0.00    -0.281 N 
ATOM     27  H   UNL     1      -4.921  -3.898  -5.479  0.00  0.00    +0.189 HD
ATOM     28  C   UNL     1      -1.798  -1.878  -8.105  0.00  0.00    +0.068 C 
ENDBRANCH  19  23
ENDBRANCH  15  19
ENDBRANCH   1  16
BRANCH  11  29
ATOM     29  C   UNL     1       6.326  -3.136  -4.623  0.00  0.00    +0.261 C 
BRANCH  29  30
ATOM     30  C   UNL     1       6.158  -4.294  -5.610  0.00  0.00    +0.033 C 
ATOM     31  C   UNL     1       6.574  -5.603  -4.936  0.00  0.00    +0.011 C 
ATOM     32  C   UNL     1       4.693  -4.386  -6.043  0.00  0.00    +0.011 C 
ENDBRANCH  29  30
BRANCH  29  33
ATOM     33  O   UNL     1       7.664  -3.128  -4.122  0.00  0.00    -0.479 OA
BRANCH  33  34
ATOM     34  C   UNL     1       7.883  -3.758  -2.937  0.00  0.00    +0.122 A 
ATOM     35  C   UNL     1       9.160  -3.801  -2.399  0.00  0.00    +0.045 A 
ATOM     36  C   UNL     1       9.380  -4.441  -1.194  0.00  0.00    +0.004 A 
ATOM     37  C   UNL     1       8.328  -5.039  -0.526  0.00  0.00    +0.000 A 
ATOM     38  C   UNL     1       7.053  -4.998  -1.061  0.00  0.00    +0.004 A 
ATOM     39  C   UNL     1       6.827  -4.354  -2.262  0.00  0.00    +0.045 A 
ENDBRANCH  33  34
ENDBRANCH  29  33
ENDBRANCH  11  29
TORSDOF 7
