REMARK  Name = ZINC35455843
REMARK  13 active torsions:
REMARK  status: ('A' for Active; 'I' for Inactive)
REMARK    1  A    between atoms: C_1  and  C_2
REMARK    2  A    between atoms: C_2  and  C_3
REMARK    3  A    between atoms: C_3  and  C_5
REMARK    4  A    between atoms: C_3  and  C_6
REMARK    5  A    between atoms: C_6  and  C_8
REMARK    6  A    between atoms: C_6  and  O_29
REMARK    7  A    between atoms: C_8  and  C_9
REMARK    8  A    between atoms: C_8  and  C_10
REMARK    9  A    between atoms: C_8  and  O_28
REMARK   10  A    between atoms: C_11  and  C_12
REMARK   11  A    between atoms: C_18  and  C_26
REMARK   12  A    between atoms: C_18  and  O_27
REMARK   13  A    between atoms: C_19  and  O_25
REMARK                            x       y       z     vdW  Elec       q    Type
REMARK                         _______ _______ _______ _____ _____    ______ ____
ROOT
ATOM      1  C   UNL     1       0.862  -6.174  -3.328  0.00  0.00    +0.121 C 
ATOM      2  C   UNL     1       0.315  -6.848  -4.399  0.00  0.00    +0.049 C 
ATOM      3  C   UNL     1       0.249  -8.246  -4.387  0.00  0.00    -0.032 C 
ATOM      4  C   UNL     1      -0.322  -8.924  -5.438  0.00  0.00    +0.053 C 
ATOM      5  C   UNL     1      -0.431 -10.313  -5.434  0.00  0.00    +0.190 C 
ATOM      6  O   UNL     1      -0.938 -10.878  -6.385  0.00  0.00    -0.290 OA
ATOM      7  C   UNL     1       0.070 -11.124  -4.268  0.00  0.00    +0.151 C 
ATOM      8  C   UNL     1      -0.004 -10.278  -2.993  0.00  0.00    +0.164 C 
ATOM      9  C   UNL     1       0.809  -8.999  -3.205  0.00  0.00    +0.088 C 
ATOM     10  C   UNL     1       0.710  -8.108  -1.963  0.00  0.00    +0.239 C 
ATOM     11  O   UNL     1       1.335  -6.851  -2.258  0.00  0.00    -0.491 OA
ATOM     12  C   UNL     1      -0.800 -12.372  -4.103  0.00  0.00    +0.052 C 
ENDROOT
BRANCH   1  14
ATOM     13  C   UNL     1       1.469  -4.052  -2.323  0.00  0.00    +0.013 C 
ATOM     14  C   UNL     1       0.936  -4.710  -3.353  0.00  0.00    +0.044 C 
BRANCH  13  15
ATOM     15  C   UNL     1       1.545  -2.547  -2.348  0.00  0.00    +0.108 C 
ATOM     16  C   UNL     1       3.007  -2.109  -2.246  0.00  0.00    +0.048 C 
BRANCH  15  17
ATOM     17  O   UNL     1       0.987  -2.062  -3.571  0.00  0.00    -0.382 OA
ATOM     18  H   UNL     1       0.060  -2.303  -3.703  0.00  0.00    +0.211 HD
ENDBRANCH  15  17
BRANCH  15  19
ATOM     19  C   UNL     1       0.758  -1.977  -1.167  0.00  0.00    +0.152 C 
BRANCH  19  20
ATOM     20  C   UNL     1       0.961  -0.462  -1.102  0.00  0.00    +0.017 C 
ATOM     21  C   UNL     1       0.373   0.186  -2.357  0.00  0.00    +0.010 C 
BRANCH  20  23
ATOM     22  C   UNL     1       0.564   1.588   0.270  0.00  0.00    +0.004 C 
ATOM     23  C   UNL     1       0.258   0.095   0.137  0.00  0.00    +0.002 C 
ENDBRANCH  20  23
ENDBRANCH  19  20
BRANCH  19  24
ATOM     24  O   UNL     1       1.222  -2.572   0.047  0.00  0.00    -0.388 OA
ATOM     25  H   UNL     1       2.159  -2.417   0.227  0.00  0.00    +0.210 HD
ENDBRANCH  19  24
ENDBRANCH  15  19
ENDBRANCH  13  15
ENDBRANCH   1  14
BRANCH   8  26
ATOM     26  O   UNL     1      -1.365  -9.944  -2.717  0.00  0.00    -0.388 OA
ATOM     27  H   UNL     1      -1.939 -10.710  -2.582  0.00  0.00    +0.210 HD
ENDBRANCH   8  26
BRANCH   7  28
ATOM     28  O   UNL     1       1.424 -11.514  -4.505  0.00  0.00    -0.378 OA
ATOM     29  H   UNL     1       1.545 -12.051  -5.299  0.00  0.00    +0.211 HD
ENDBRANCH   7  28
TORSDOF 9
