REMARK  Name = ZINC38788093
REMARK  5 active torsions:
REMARK  status: ('A' for Active; 'I' for Inactive)
REMARK    1  A    between atoms: C_1  and  C_2
REMARK    2  A    between atoms: C_11  and  C_14
REMARK    3  A    between atoms: C_17  and  N_20
REMARK    4  A    between atoms: C_21  and  C_23
REMARK    5  A    between atoms: C_23  and  C_24
REMARK                            x       y       z     vdW  Elec       q    Type
REMARK                         _______ _______ _______ _____ _____    ______ ____
ROOT
ATOM      1  C   UNL     1       5.836  -5.789   0.442  0.00  0.00    +0.002 A 
ATOM      2  C   UNL     1       6.372  -6.255  -0.758  0.00  0.00    +0.012 A 
ATOM      3  C   UNL     1       7.337  -7.239  -0.743  0.00  0.00    +0.024 A 
ATOM      4  C   UNL     1       7.775  -7.767   0.466  0.00  0.00    +0.033 A 
ATOM      5  C   UNL     1       7.241  -7.304   1.663  0.00  0.00    +0.024 A 
ATOM      6  C   UNL     1       6.281  -6.316   1.654  0.00  0.00    +0.012 A 
ENDROOT
BRANCH   1  17
ATOM      7  C   UNL     1       0.967   2.308   0.928  0.00  0.00    +0.007 C 
ATOM      8  C   UNL     1       0.862   0.786   0.809  0.00  0.00    -0.011 C 
ATOM      9  C   UNL     1       1.532   0.329  -0.488  0.00  0.00    +0.022 C 
ATOM     10  C   UNL     1       1.394  -1.192  -0.621  0.00  0.00    +0.107 C 
ATOM     11  N   UNL     1       1.934  -1.823   0.591  0.00  0.00    -0.314 N 
ATOM     12  C   UNL     1       1.423  -1.390   1.899  0.00  0.00    +0.107 C 
ATOM     13  C   UNL     1       1.560   0.132   2.004  0.00  0.00    +0.022 C 
ATOM     14  C   UNL     1       2.908  -2.810   0.502  0.00  0.00    +0.144 A 
ATOM     15  C   UNL     1       3.380  -3.215  -0.748  0.00  0.00    +0.047 A 
ATOM     16  C   UNL     1       4.350  -4.201  -0.787  0.00  0.00    +0.033 A 
ATOM     17  C   UNL     1       4.798  -4.730   0.429  0.00  0.00    +0.093 A 
ATOM     18  N   UNL     1       4.290  -4.282   1.569  0.00  0.00    -0.147 NA
ATOM     19  N   UNL     1       3.394  -3.364   1.603  0.00  0.00    -0.134 NA
ENDBRANCH   1  17
BRANCH   4  20
ATOM     20  N   UNL     1       8.754  -8.765   0.478  0.00  0.00    -0.285 N 
ATOM     21  C   UNL     1       9.736  -8.758  -0.445  0.00  0.00    +0.219 C 
ATOM     22  O   UNL     1       9.826  -7.835  -1.227  0.00  0.00    -0.275 OA
ATOM     23  H   UNL     1       8.726  -9.463   1.151  0.00  0.00    +0.155 HD
BRANCH  21  24
ATOM     24  C   UNL     1      10.722  -9.896  -0.506  0.00  0.00    +0.122 C 
BRANCH  24  25
ATOM     25  C   UNL     1      11.650  -9.703  -1.707  0.00  0.00    +0.112 C 
ATOM     26  C   UNL     1      12.430  -8.380  -1.531  0.00  0.00    +0.103 C 
ATOM     27  S   UNL     1      14.010  -8.870  -2.340  0.00  0.00    -0.086 S 
ATOM     28  C   UNL     1      13.840 -10.637  -2.172  0.00  0.00    +0.172 A 
ATOM     29  N   UNL     1      12.544 -10.862  -1.809  0.00  0.00    -0.283 N 
ATOM     30  C   UNL     1      12.190 -12.161  -1.576  0.00  0.00    +0.258 A 
ATOM     31  O   UNL     1      11.054 -12.427  -1.216  0.00  0.00    -0.267 OA
ATOM     32  C   UNL     1      13.126 -13.189  -1.750  0.00  0.00    +0.038 A 
ATOM     33  C   UNL     1      14.396 -12.877  -2.139  0.00  0.00    +0.052 A 
ATOM     34  N   UNL     1      14.713 -11.603  -2.340  0.00  0.00    -0.228 NA
ATOM     35  C   UNL     1      15.224 -14.136  -2.270  0.00  0.00    +0.056 C 
ATOM     36  C   UNL     1      14.440 -15.214  -1.490  0.00  0.00    +0.011 C 
ATOM     37  C   UNL     1      12.992 -14.687  -1.574  0.00  0.00    +0.043 C 
ENDBRANCH  24  25
ENDBRANCH  21  24
ENDBRANCH   4  20
TORSDOF 4
