REMARK  Name = ZINC09244435
REMARK  6 active torsions:
REMARK  status: ('A' for Active; 'I' for Inactive)
REMARK    1  A    between atoms: C_3  and  C_6
REMARK    2  A    between atoms: C_6  and  N_7
REMARK    3  A    between atoms: C_10  and  C_22
REMARK    4  A    between atoms: N_14  and  N_15
REMARK    5  A    between atoms: C_22  and  C_23
REMARK    6  A    between atoms: N_25  and  C_26
REMARK                            x       y       z     vdW  Elec       q    Type
REMARK                         _______ _______ _______ _____ _____    ______ ____
ROOT
ATOM      1  N   UNL     1       4.100   0.620   1.341  0.00  0.00    -0.241 N 
ATOM      2  C   UNL     1       4.346   1.766   1.951  0.00  0.00    +0.235 C 
ATOM      3  O   UNL     1       4.172   2.836   1.406  0.00  0.00    -0.274 OA
ATOM      4  C   UNL     1       4.861   1.661   3.378  0.00  0.00    +0.149 C 
ATOM      5  S   UNL     1       4.894  -0.167   3.583  0.00  0.00    -0.075 S 
ATOM      6  C   UNL     1       4.290  -0.602   1.959  0.00  0.00    +0.186 C 
ATOM      7  N   UNL     1       4.079  -1.800   1.467  0.00  0.00    -0.125 NA
ENDROOT
BRANCH   7   8
ATOM      8  N   UNL     1       4.332  -2.933   2.250  0.00  0.00    -0.135 NA
ATOM      9  C   UNL     1       4.123  -4.120   1.763  0.00  0.00    +0.135 C 
ATOM     10  C   UNL     1       3.611  -4.345   0.348  0.00  0.00    +0.152 C 
ATOM     11  S   UNL     1       3.546  -6.184   0.315  0.00  0.00    -0.060 S 
ATOM     12  C   UNL     1       4.131  -6.484   1.975  0.00  0.00    +0.277 C 
ATOM     13  O   UNL     1       4.297  -7.555   2.526  0.00  0.00    -0.263 OA
ATOM     14  N   UNL     1       4.351  -5.256   2.477  0.00  0.00    -0.263 N 
ATOM     15  H   UNL     1       4.682  -5.176   3.385  0.00  0.00    +0.157 HD
ENDBRANCH   7   8
BRANCH   1  16
ATOM     16  C   UNL     1       3.601   0.645  -0.036  0.00  0.00    +0.189 C 
BRANCH  16  19
ATOM     17  C   UNL     1      -0.009   1.384  -0.004  0.00  0.00    +0.041 A 
ATOM     18  C   UNL     1       1.341   1.804  -0.010  0.00  0.00    +0.046 A 
ATOM     19  C   UNL     1       2.095   0.690  -0.025  0.00  0.00    +0.123 A 
ATOM     20  O   UNL     1       1.278  -0.376  -0.027  0.00  0.00    -0.466 OA
ATOM     21  C   UNL     1       0.001   0.039  -0.015  0.00  0.00    +0.195 A 
ENDBRANCH  16  19
ENDBRANCH   1  16
BRANCH   4  22
ATOM     22  C   UNL     1       3.891   2.313   4.366  0.00  0.00    +0.120 C 
BRANCH  22  23
ATOM     23  C   UNL     1       4.494   2.296   5.747  0.00  0.00    +0.219 C 
ATOM     24  O   UNL     1       5.591   1.810   5.923  0.00  0.00    -0.275 OA
ATOM     25  N   UNL     1       3.814   2.821   6.786  0.00  0.00    -0.285 N 
ATOM     26  H   UNL     1       2.968   3.269   6.635  0.00  0.00    +0.155 HD
BRANCH  25  27
ATOM     27  C   UNL     1       4.330   2.718   8.083  0.00  0.00    +0.033 A 
ATOM     28  C   UNL     1       3.473   2.546   9.161  0.00  0.00    +0.025 A 
ATOM     29  C   UNL     1       3.984   2.445  10.440  0.00  0.00    +0.022 A 
ATOM     30  C   UNL     1       5.351   2.517  10.647  0.00  0.00    +0.041 A 
ATOM     31  C   UNL     1       6.208   2.689   9.575  0.00  0.00    +0.022 A 
ATOM     32  C   UNL     1       5.702   2.784   8.293  0.00  0.00    +0.025 A 
ATOM     33 CL   UNL     1       5.991   2.391  12.256  0.00  0.00    -0.084 Cl
ENDBRANCH  25  27
ENDBRANCH  22  23
ENDBRANCH   4  22
TORSDOF 6
