REMARK  Name = ZINC41549390
REMARK  8 active torsions:
REMARK  status: ('A' for Active; 'I' for Inactive)
REMARK    1  A    between atoms: C_1  and  C_2
REMARK    2  A    between atoms: C_4  and  C_31
REMARK    3  A    between atoms: C_8  and  C_13
REMARK    4  A    between atoms: C_9  and  C_12
REMARK    5  A    between atoms: C_13  and  C_14
REMARK    6  A    between atoms: C_14  and  N_15
REMARK    7  A    between atoms: C_16  and  C_18
REMARK    8  A    between atoms: C_18  and  C_30
REMARK                            x       y       z     vdW  Elec       q    Type
REMARK                         _______ _______ _______ _____ _____    ______ ____
ROOT
ATOM      1  N   UNL     1      -1.377  -2.571   5.670  0.00  0.00    -0.311 N 
ATOM      2  C   UNL     1      -2.542  -2.478   6.342  0.00  0.00    +0.266 C 
ATOM      3  O   UNL     1      -3.594  -2.589   5.749  0.00  0.00    -0.271 OA
ATOM      4  H   UNL     1      -0.536  -2.482   6.145  0.00  0.00    +0.149 HD
ENDROOT
BRANCH   2   5
ATOM      5  C   UNL     1      -2.538  -2.238   7.829  0.00  0.00    +0.257 C 
ATOM      6  C   UNL     1      -3.819  -2.763   8.427  0.00  0.00    +0.270 C 
ATOM      7  O   UNL     1      -4.772  -2.027   8.566  0.00  0.00    -0.271 OA
ATOM      8  N   UNL     1      -3.900  -4.056   8.805  0.00  0.00    -0.279 N 
ATOM      9  C   UNL     1      -2.751  -4.857   8.754  0.00  0.00    +0.077 A 
ATOM     10  C   UNL     1      -2.842  -6.230   8.914  0.00  0.00    +0.047 A 
ATOM     11  C   UNL     1      -1.700  -7.008   8.847  0.00  0.00    +0.043 A 
ATOM     12  C   UNL     1      -0.469  -6.419   8.620  0.00  0.00    +0.024 A 
ATOM     13  C   UNL     1      -0.371  -5.048   8.465  0.00  0.00    +0.049 A 
ATOM     14  C   UNL     1      -1.509  -4.263   8.537  0.00  0.00    +0.144 A 
ATOM     15  O   UNL     1      -1.422  -2.910   8.417  0.00  0.00    -0.466 OA
ATOM     16 CL   UNL     1      -1.812  -8.729   9.049  0.00  0.00    -0.083 Cl
ATOM     17  C   UNL     1      -2.428  -0.736   8.102  0.00  0.00    +0.076 C 
ATOM     18  H   UNL     1      -4.743  -4.426   9.110  0.00  0.00    +0.155 HD
ENDBRANCH   2   5
BRANCH   1  19
ATOM     19  C   UNL     1      -1.382  -2.804   4.224  0.00  0.00    +0.109 C 
BRANCH  19  20
ATOM     20  C   UNL     1       0.059  -2.867   3.713  0.00  0.00    +0.056 C 
BRANCH  20  28
ATOM     21  C   UNL     1      -0.018   1.503   0.010  0.00  0.00    +0.044 C 
ATOM     22  C   UNL     1       0.002  -0.004   0.002  0.00  0.00    -0.050 A 
ATOM     23  C   UNL     1       0.006  -0.686  -1.207  0.00  0.00    +0.008 A 
ATOM     24  C   UNL     1       0.024  -2.063  -1.237  0.00  0.00    -0.026 A 
ATOM     25  C   UNL     1       0.039  -2.780  -0.045  0.00  0.00    +0.050 A 
ATOM     26  C   UNL     1       0.036  -2.084   1.178  0.00  0.00    +0.004 A 
ATOM     27  C   UNL     1       0.023  -0.688   1.185  0.00  0.00    +0.013 A 
ATOM     28  C   UNL     1       0.055  -3.107   2.226  0.00  0.00    -0.018 A 
ATOM     29  C   UNL     1       0.067  -4.300   1.610  0.00  0.00    +0.017 A 
ATOM     30  N   UNL     1       0.058  -4.124   0.253  0.00  0.00    -0.358 N 
ATOM     31  H   UNL     1       0.065  -4.840  -0.402  0.00  0.00    +0.166 HD
ATOM     32  C   UNL     1       0.088  -5.635   2.309  0.00  0.00    +0.063 C 
ATOM     33  C   UNL     1       0.026  -2.791  -2.557  0.00  0.00    +0.046 C 
ENDBRANCH  20  28
ENDBRANCH  19  20
ENDBRANCH   1  19
TORSDOF 4
