REMARK  Name = ZINC23386185
REMARK  3 active torsions:
REMARK  status: ('A' for Active; 'I' for Inactive)
REMARK    1  A    between atoms: C_15  and  C_17
REMARK    2  A    between atoms: C_20  and  O_26
REMARK    3  A    between atoms: C_21  and  N_23
REMARK                            x       y       z     vdW  Elec       q    Type
REMARK                         _______ _______ _______ _____ _____    ______ ____
ROOT
ATOM      1  C   UNL     1      -8.078   1.103  -5.708  0.00  0.00    +0.000 A 
ATOM      2  C   UNL     1      -8.720   1.980  -4.851  0.00  0.00    +0.001 A 
ATOM      3  C   UNL     1      -8.290   2.116  -3.546  0.00  0.00    +0.010 A 
ATOM      4  C   UNL     1      -7.200   1.375  -3.099  0.00  0.00    -0.001 A 
ATOM      5  C   UNL     1      -6.574   0.473  -3.958  0.00  0.00    -0.038 A 
ATOM      6  C   UNL     1      -7.008   0.348  -5.261  0.00  0.00    +0.004 A 
ATOM      7  C   UNL     1      -5.438  -0.370  -3.440  0.00  0.00    +0.040 C 
ATOM      8  C   UNL     1      -4.619   0.434  -2.435  0.00  0.00    +0.039 C 
ATOM      9  C   UNL     1      -5.510   1.041  -1.378  0.00  0.00    -0.023 C 
ATOM     10  C   UNL     1      -6.713   1.507  -1.705  0.00  0.00    +0.043 C 
ATOM     11  N   UNL     1      -7.525   2.129  -0.755  0.00  0.00    -0.269 N 
ATOM     12  C   UNL     1      -7.122   2.254   0.519  0.00  0.00    +0.305 C 
ATOM     13  O   UNL     1      -7.852   2.802   1.323  0.00  0.00    -0.252 OA
ATOM     14  N   UNL     1      -5.934   1.789   0.923  0.00  0.00    -0.289 N 
ATOM     15  C   UNL     1      -4.994   1.131   0.032  0.00  0.00    +0.133 C 
ATOM     16  H   UNL     1      -8.508   2.525  -1.047  0.00  0.00    +0.156 HD
ATOM     17  H   UNL     1      -5.682   1.924   1.986  0.00  0.00    +0.151 HD
ENDROOT
BRANCH  15  18
ATOM     18  C   UNL     1      -3.700   1.904   0.030  0.00  0.00    -0.021 A 
ATOM     19  C   UNL     1      -3.722   3.287   0.038  0.00  0.00    +0.009 A 
ATOM     20  C   UNL     1      -2.538   3.998   0.036  0.00  0.00    +0.048 A 
ATOM     21  C   UNL     1      -1.326   3.323   0.032  0.00  0.00    +0.147 A 
ATOM     22  C   UNL     1      -1.306   1.936   0.019  0.00  0.00    +0.168 A 
ATOM     23  C   UNL     1      -2.494   1.230   0.021  0.00  0.00    +0.042 A 
BRANCH  22  24
ATOM     24  N   UNL     1      -0.014   1.214   0.009  0.00  0.00    +0.060 N 
ATOM     25  O   UNL     1       0.002  -0.004   0.002  0.00  0.00    -0.126 OA
ATOM     26  O   UNL     1       1.032   1.837   0.002  0.00  0.00    -0.126 OA
ENDBRANCH  22  24
BRANCH  21  27
ATOM     27  O   UNL     1      -0.159   4.020   0.036  0.00  0.00    -0.504 OA
ATOM     28  H   UNL     1       0.802   3.485   0.033  0.00  0.00    +0.292 HD
ENDBRANCH  21  27
ENDBRANCH  15  18
TORSDOF 3
