REMARK  Name = ZINC36375399
REMARK  11 active torsions:
REMARK  status: ('A' for Active; 'I' for Inactive)
REMARK    1  A    between atoms: C_1  and  C_2
REMARK    2  A    between atoms: C_2  and  C_36
REMARK    3  A    between atoms: C_3  and  C_4
REMARK    4  A    between atoms: C_4  and  C_5
REMARK    5  A    between atoms: C_12  and  C_19
REMARK    6  A    between atoms: C_12  and  C_20
REMARK    7  A    between atoms: C_13  and  O_18
REMARK    8  A    between atoms: C_15  and  O_17
REMARK    9  A    between atoms: C_22  and  C_29
REMARK   10  A    between atoms: C_24  and  O_28
REMARK   11  A    between atoms: C_32  and  O_35
REMARK                            x       y       z     vdW  Elec       q    Type
REMARK                         _______ _______ _______ _____ _____    ______ ____
ROOT
ATOM      1  C   UNL     1      -0.869  -0.557   3.387  0.00  0.00    -0.001 A 
ATOM      2  C   UNL     1      -2.137  -0.063   3.478  0.00  0.00    +0.022 A 
ATOM      3  C   UNL     1      -3.051  -0.659   4.351  0.00  0.00    +0.063 A 
ATOM      4  C   UNL     1      -2.667  -1.763   5.130  0.00  0.00    +0.141 A 
ATOM      5  C   UNL     1      -1.371  -2.250   5.029  0.00  0.00    +0.068 A 
ATOM      6  C   UNL     1      -0.476  -1.656   4.154  0.00  0.00    +0.134 A 
ATOM      7  O   UNL     1       0.793  -2.114   4.014  0.00  0.00    -0.483 OA
ATOM      8  C   UNL     1       1.313  -2.968   5.034  0.00  0.00    +0.133 C 
ATOM      9  C   UNL     1       0.290  -4.079   5.302  0.00  0.00    +0.191 C 
ATOM     10  C   UNL     1      -0.974  -3.429   5.881  0.00  0.00    +0.184 C 
ATOM     11  C   UNL     1       1.544  -2.161   6.313  0.00  0.00    +0.058 C 
ATOM     12  C   UNL     1       2.633  -3.585   4.567  0.00  0.00    +0.058 C 
ATOM     13  O   UNL     1      -3.545  -2.358   5.971  0.00  0.00    -0.480 OA
ATOM     14  C   UNL     1      -4.671  -1.609   6.428  0.00  0.00    +0.240 C 
ATOM     15  C   UNL     1      -5.413  -1.017   5.220  0.00  0.00    +0.230 C 
ATOM     16  C   UNL     1      -4.423  -0.143   4.470  0.00  0.00    +0.199 C 
ATOM     17  O   UNL     1      -4.748   0.926   3.995  0.00  0.00    -0.289 OA
ENDROOT
BRANCH  14  18
ATOM     18  C   UNL     1      -5.600  -2.515   7.194  0.00  0.00    -0.004 A 
ATOM     19  C   UNL     1      -5.749  -3.835   6.810  0.00  0.00    +0.011 A 
ATOM     20  C   UNL     1      -6.600  -4.667   7.511  0.00  0.00    +0.046 A 
ATOM     21  C   UNL     1      -7.306  -4.178   8.601  0.00  0.00    +0.117 A 
ATOM     22  C   UNL     1      -7.154  -2.853   8.984  0.00  0.00    +0.046 A 
ATOM     23  C   UNL     1      -6.298  -2.026   8.283  0.00  0.00    +0.011 A 
BRANCH  21  24
ATOM     24  O   UNL     1      -8.144  -4.995   9.291  0.00  0.00    -0.507 OA
ATOM     25  H   UNL     1      -7.722  -5.462  10.025  0.00  0.00    +0.292 HD
ENDBRANCH  21  24
ENDBRANCH  14  18
BRANCH  10  26
ATOM     26  O   UNL     1      -2.031  -4.391   5.883  0.00  0.00    -0.384 OA
ATOM     27  H   UNL     1      -1.817  -5.210   6.351  0.00  0.00    +0.210 HD
ENDBRANCH  10  26
BRANCH   9  28
ATOM     28  O   UNL     1      -0.019  -4.755   4.082  0.00  0.00    -0.385 OA
ATOM     29  H   UNL     1      -0.661  -5.471   4.181  0.00  0.00    +0.210 HD
ENDBRANCH   9  28
BRANCH  15  30
ATOM     30  O   UNL     1      -5.877  -2.068   4.371  0.00  0.00    -0.380 OA
ATOM     31  H   UNL     1      -6.355  -1.760   3.589  0.00  0.00    +0.211 HD
ENDBRANCH  15  30
BRANCH   1  32
ATOM     32  C   UNL     1       0.116   0.086   2.445  0.00  0.00    +0.066 C 
BRANCH  32  35
ATOM     33  C   UNL     1      -0.211   1.501   0.028  0.00  0.00    +0.038 C 
ATOM     34  C   UNL     1      -0.099  -0.002   0.014  0.00  0.00    -0.079 C 
ATOM     35  C   UNL     1       0.111  -0.653   1.131  0.00  0.00    -0.023 C 
ATOM     36  C   UNL     1      -0.228  -0.756  -1.284  0.00  0.00    +0.038 C 
ENDBRANCH  32  35
ENDBRANCH   1  32
TORSDOF 7
