REMARK  Name = ZINC42133488
REMARK  10 active torsions:
REMARK  status: ('A' for Active; 'I' for Inactive)
REMARK    1  A    between atoms: C_1  and  C_2
REMARK    2  A    between atoms: C_2  and  N_3
REMARK    3  A    between atoms: N_3  and  C_4
REMARK    4  A    between atoms: N_3  and  C_12
REMARK    5  A    between atoms: C_4  and  C_5
REMARK    6  A    between atoms: C_10  and  C_11
REMARK    7  A    between atoms: C_12  and  C_13
REMARK    8  A    between atoms: N_15  and  C_16
REMARK    9  A    between atoms: C_19  and  C_25
REMARK   10  A    between atoms: C_26  and  C_28
REMARK                            x       y       z     vdW  Elec       q    Type
REMARK                         _______ _______ _______ _____ _____    ______ ____
ROOT
ATOM      1  C   UNL     1      -0.942  -2.422  -1.466  0.00  0.00    +0.203 C 
ATOM      2  O   UNL     1      -1.805  -1.576  -1.375  0.00  0.00    -0.277 OA
ATOM      3  N   UNL     1      -1.281  -3.717  -1.626  0.00  0.00    -0.257 N 
ATOM      4  H   UNL     1      -0.590  -4.394  -1.698  0.00  0.00    +0.158 HD
ENDROOT
BRANCH   3   5
ATOM      5  C   UNL     1      -2.615  -4.080  -1.685  0.00  0.00    +0.206 A 
ATOM      6  C   UNL     1      -3.096  -5.358  -1.839  0.00  0.00    +0.110 A 
ATOM      7  C   UNL     1      -4.575  -5.229  -1.843  0.00  0.00    +0.053 A 
ATOM      8  C   UNL     1      -5.365  -6.455  -1.995  0.00  0.00    +0.070 A 
ATOM      9  N   UNL     1      -4.763  -7.597  -2.118  0.00  0.00    -0.175 NA
ATOM     10  N   UNL     1      -3.377  -7.742  -2.116  0.00  0.00    -0.242 N 
ATOM     11  H   UNL     1      -3.003  -8.632  -2.214  0.00  0.00    +0.192 HD
ATOM     12  C   UNL     1      -2.535  -6.697  -1.985  0.00  0.00    +0.277 A 
ATOM     13  O   UNL     1      -1.328  -6.867  -1.989  0.00  0.00    -0.266 OA
ATOM     14  C   UNL     1      -6.870  -6.388  -2.007  0.00  0.00    +0.068 C 
ATOM     15  C   UNL     1      -4.829  -3.912  -1.695  0.00  0.00    +0.114 A 
ATOM     16  O   UNL     1      -3.663  -3.246  -1.597  0.00  0.00    -0.445 OA
ATOM     17  C   UNL     1      -6.199  -3.287  -1.642  0.00  0.00    +0.087 C 
ENDBRANCH   3   5
BRANCH   1  18
ATOM     18  C   UNL     1       0.511  -2.026  -1.402  0.00  0.00    +0.019 C 
BRANCH  18  19
ATOM     19  N   UNL     1       0.615  -0.572  -1.226  0.00  0.00    +0.388 N 
ATOM     20  H   UNL     1       0.104  -0.107  -1.962  0.00  0.00    -0.081 HD
BRANCH  19  22
ATOM     21  C   UNL     1       0.022   1.331   0.198  0.00  0.00    -0.017 C 
ATOM     22  C   UNL     1       0.051  -0.194   0.077  0.00  0.00    -0.081 C 
ENDBRANCH  19  22
BRANCH  19  23
ATOM     23  C   UNL     1       2.027  -0.171  -1.283  0.00  0.00    -0.042 C 
BRANCH  23  24
ATOM     24  C   UNL     1       2.568  -0.433  -2.664  0.00  0.00    -0.061 A 
ATOM     25  C   UNL     1       3.331  -1.561  -2.906  0.00  0.00    +0.002 A 
ATOM     26  C   UNL     1       3.828  -1.802  -4.173  0.00  0.00    +0.000 A 
ATOM     27  C   UNL     1       3.561  -0.915  -5.199  0.00  0.00    +0.000 A 
ATOM     28  C   UNL     1       2.798   0.212  -4.959  0.00  0.00    +0.003 A 
ATOM     29  C   UNL     1       2.298   0.451  -3.692  0.00  0.00    -0.049 A 
ATOM     30  C   UNL     1       1.461   1.677  -3.431  0.00  0.00    +0.044 C 
ENDBRANCH  23  24
ENDBRANCH  19  23
ENDBRANCH  18  19
ENDBRANCH   1  18
TORSDOF 6
