REMARK  Name = ZINC36829136
REMARK  3 active torsions:
REMARK  status: ('A' for Active; 'I' for Inactive)
REMARK    1  A    between atoms: C_7  and  N_12
REMARK    2  A    between atoms: N_12  and  S_13
REMARK    3  A    between atoms: S_13  and  C_16
REMARK                            x       y       z     vdW  Elec       q    Type
REMARK                         _______ _______ _______ _____ _____    ______ ____
ROOT
ATOM      1  N   UNL     1      -0.106  -2.610  -1.120  0.00  0.00    -0.182 NA
ATOM      2  H   UNL     1      -0.392  -2.254  -1.976  0.00  0.00    +0.149 HD
ENDROOT
BRANCH   1   9
ATOM      3  C   UNL     1      -1.256   1.337  -0.506  0.00  0.00    +0.001 A 
ATOM      4  C   UNL     1      -0.275   2.309  -0.586  0.00  0.00    +0.004 A 
ATOM      5  C   UNL     1       1.056   1.948  -0.567  0.00  0.00    +0.046 A 
ATOM      6  C   UNL     1       1.417   0.608  -0.465  0.00  0.00    +0.125 A 
ATOM      7  C   UNL     1       0.434  -0.362  -0.381  0.00  0.00    +0.013 A 
ATOM      8  C   UNL     1      -0.901   0.006  -0.404  0.00  0.00    +0.009 A 
ATOM      9  C   UNL     1       0.781  -1.824  -0.259  0.00  0.00    +0.113 C 
ATOM     10  C   UNL     1       2.233  -2.047  -0.687  0.00  0.00    +0.066 C 
ATOM     11  C   UNL     1       3.109  -1.004   0.019  0.00  0.00    +0.231 C 
ATOM     12  O   UNL     1       2.738   0.291  -0.455  0.00  0.00    -0.492 OA
ENDBRANCH   1   9
BRANCH   1  13
ATOM     13  S   UNL     1      -0.623  -4.106  -0.632  0.00  0.00    +0.060 S 
ATOM     14  O   UNL     1      -1.466  -4.601  -1.663  0.00  0.00    -0.153 OA
ATOM     15  O   UNL     1       0.530  -4.808  -0.187  0.00  0.00    -0.153 OA
BRANCH  13  16
ATOM     16  C   UNL     1      -1.645  -3.868   0.784  0.00  0.00    +0.121 A 
ATOM     17  C   UNL     1      -1.064  -3.592   2.030  0.00  0.00    +0.035 A 
ATOM     18  C   UNL     1      -1.869  -3.411   3.115  0.00  0.00    +0.072 A 
ATOM     19  C   UNL     1      -3.263  -3.505   2.961  0.00  0.00    +0.249 A 
ATOM     20  O   UNL     1      -3.996  -3.344   3.924  0.00  0.00    -0.268 OA
ATOM     21  N   UNL     1      -3.791  -3.771   1.751  0.00  0.00    -0.327 N 
ATOM     22  H   UNL     1      -4.754  -3.834   1.651  0.00  0.00    +0.168 HD
ATOM     23  C   UNL     1      -2.991  -3.946   0.668  0.00  0.00    +0.114 A 
ENDBRANCH  13  16
ENDBRANCH   1  13
TORSDOF 3
