REMARK  Name = ZINC40821102
REMARK  6 active torsions:
REMARK  status: ('A' for Active; 'I' for Inactive)
REMARK    1  A    between atoms: C_1  and  C_2
REMARK    2  A    between atoms: C_8  and  C_12
REMARK    3  A    between atoms: N_10  and  C_11
REMARK    4  A    between atoms: C_18  and  C_20
REMARK    5  A    between atoms: C_20  and  C_21
REMARK    6  A    between atoms: C_24  and  O_27
REMARK                            x       y       z     vdW  Elec       q    Type
REMARK                         _______ _______ _______ _____ _____    ______ ____
ROOT
ATOM      1  C   UNL     1       0.016   1.089   3.156  0.00  0.00    +0.108 C 
ATOM      2  C   UNL     1      -1.439   1.589   3.279  0.00  0.00    +0.029 C 
ATOM      3  C   UNL     1      -1.416   2.403   4.600  0.00  0.00    +0.021 C 
ATOM      4  C   UNL     1      -0.424   1.578   5.457  0.00  0.00    +0.108 C 
ATOM      5  N   UNL     1       0.605   1.114   4.503  0.00  0.00    -0.294 N 
ATOM      6  C   UNL     1       1.870   0.770   4.813  0.00  0.00    +0.220 C 
ATOM      7  O   UNL     1       2.629   0.400   3.943  0.00  0.00    -0.275 OA
ENDROOT
BRANCH   1  15
ATOM      8  C   UNL     1      -0.018   1.503   0.010  0.00  0.00    +0.044 C 
ATOM      9  C   UNL     1       0.002  -0.004   0.002  0.00  0.00    -0.041 A 
ATOM     10  C   UNL     1       0.006  -0.683  -1.184  0.00  0.00    +0.004 A 
ATOM     11  C   UNL     1       0.025  -2.071  -1.201  0.00  0.00    +0.002 A 
ATOM     12  C   UNL     1       0.040  -2.788  -0.025  0.00  0.00    +0.026 A 
ATOM     13  C   UNL     1       0.037  -2.118   1.193  0.00  0.00    +0.049 A 
ATOM     14  C   UNL     1       0.023  -0.711   1.206  0.00  0.00    +0.008 A 
ATOM     15  C   UNL     1       0.030  -0.319   2.617  0.00  0.00    -0.002 A 
ATOM     16  C   UNL     1       0.052  -1.450   3.339  0.00  0.00    +0.092 A 
ATOM     17  N   UNL     1       0.049  -2.535   2.505  0.00  0.00    -0.349 N 
ATOM     18  C   UNL     1       0.069  -3.933   2.943  0.00  0.00    +0.149 C 
ENDBRANCH   1  15
BRANCH   6  19
ATOM     19  C   UNL     1       2.342   0.844   6.243  0.00  0.00    +0.131 C 
BRANCH  19  20
ATOM     20  C   UNL     1       3.783   0.409   6.319  0.00  0.00    -0.038 A 
ATOM     21  C   UNL     1       4.092  -0.923   6.523  0.00  0.00    +0.007 A 
ATOM     22  C   UNL     1       5.412  -1.324   6.594  0.00  0.00    +0.045 A 
ATOM     23  C   UNL     1       6.428  -0.389   6.460  0.00  0.00    +0.117 A 
ATOM     24  C   UNL     1       6.116   0.947   6.254  0.00  0.00    +0.045 A 
ATOM     25  C   UNL     1       4.794   1.342   6.179  0.00  0.00    +0.007 A 
BRANCH  23  26
ATOM     26  O   UNL     1       7.728  -0.781   6.529  0.00  0.00    -0.507 OA
ATOM     27  H   UNL     1       8.111  -1.028   5.676  0.00  0.00    +0.292 HD
ENDBRANCH  23  26
ENDBRANCH  19  20
ENDBRANCH   6  19
TORSDOF 4
