REMARK  Name = ZINC35188030
REMARK  5 active torsions:
REMARK  status: ('A' for Active; 'I' for Inactive)
REMARK    1  A    between atoms: C_4  and  C_7
REMARK    2  A    between atoms: C_7  and  C_9
REMARK    3  A    between atoms: C_7  and  O_21
REMARK    4  A    between atoms: C_9  and  N_10
REMARK    5  A    between atoms: C_11  and  C_13
REMARK                            x       y       z     vdW  Elec       q    Type
REMARK                         _______ _______ _______ _____ _____    ______ ____
ROOT
ATOM      1  N   UNL     1       5.381  -1.791   1.383  0.00  0.00    -0.307 N 
ATOM      2  C   UNL     1       5.892  -2.284   2.529  0.00  0.00    +0.262 C 
ATOM      3  O   UNL     1       5.246  -2.223   3.558  0.00  0.00    -0.269 OA
ATOM      4  H   UNL     1       5.895  -1.840   0.562  0.00  0.00    +0.149 HD
ENDROOT
BRANCH   2   5
ATOM      5  C   UNL     1       7.225  -2.894   2.534  0.00  0.00    +0.122 A 
ATOM      6  C   UNL     1       8.052  -3.025   1.473  0.00  0.00    +0.118 A 
ATOM      7  N   UNL     1       9.194  -3.646   1.903  0.00  0.00    -0.312 N 
ATOM      8  H   UNL     1       9.961  -3.866   1.351  0.00  0.00    +0.170 HD
ATOM      9  C   UNL     1       9.078  -3.899   3.220  0.00  0.00    +0.325 A 
ATOM     10  O   UNL     1       9.916  -4.443   3.916  0.00  0.00    -0.247 OA
ATOM     11  N   UNL     1       7.881  -3.445   3.640  0.00  0.00    -0.303 N 
ATOM     12  H   UNL     1       7.536  -3.492   4.545  0.00  0.00    +0.171 HD
ENDBRANCH   2   5
BRANCH   1  13
ATOM     13  C   UNL     1       4.049  -1.182   1.377  0.00  0.00    +0.140 C 
BRANCH  13  14
ATOM     14  C   UNL     1       3.711  -0.707  -0.038  0.00  0.00    +0.162 C 
BRANCH  14  18
ATOM     15  C   UNL     1      -0.017   1.378   0.010  0.00  0.00    +0.000 A 
ATOM     16  C   UNL     1       1.171   2.086   0.002  0.00  0.00    +0.000 A 
ATOM     17  C   UNL     1       2.377   1.411  -0.013  0.00  0.00    +0.006 A 
ATOM     18  C   UNL     1       2.396   0.029  -0.020  0.00  0.00    -0.018 A 
ATOM     19  C   UNL     1       1.208  -0.679  -0.012  0.00  0.00    +0.006 A 
ATOM     20  C   UNL     1       0.002  -0.004   0.002  0.00  0.00    +0.000 A 
ENDBRANCH  14  18
BRANCH  14  21
ATOM     21  O   UNL     1       3.614  -1.836  -0.908  0.00  0.00    -0.386 OA
ATOM     22  H   UNL     1       2.934  -2.474  -0.651  0.00  0.00    +0.210 HD
ENDBRANCH  14  21
ENDBRANCH  13  14
ENDBRANCH   1  13
TORSDOF 5
