REMARK  Name = ZINC16670223
REMARK  3 active torsions:
REMARK  status: ('A' for Active; 'I' for Inactive)
REMARK    1  A    between atoms: C_6  and  S_7
REMARK    2  A    between atoms: S_7  and  C_8
REMARK    3  A    between atoms: C_8  and  C_9
REMARK                            x       y       z     vdW  Elec       q    Type
REMARK                         _______ _______ _______ _____ _____    ______ ____
ROOT
ATOM      1  C   UNL     1       4.588   4.940  -0.013  0.00  0.00    +0.146 A 
ATOM      2  N   UNL     1       5.127   5.328   1.130  0.00  0.00    -0.199 NA
ATOM      3  C   UNL     1       6.203   6.111   1.128  0.00  0.00    +0.217 A 
ATOM      4  N   UNL     1       6.730   6.511  -0.024  0.00  0.00    -0.181 NA
ATOM      5  C   UNL     1       6.183   6.123  -1.171  0.00  0.00    +0.217 A 
ATOM      6  N   UNL     1       5.110   5.336  -1.161  0.00  0.00    -0.199 NA
ATOM      7  N   UNL     1       6.727   6.536  -2.370  0.00  0.00    -0.327 N 
ATOM      8  N   UNL     1       6.768   6.511   2.322  0.00  0.00    -0.327 N 
ATOM      9  H   UNL     1       6.327   6.253  -3.207  0.00  0.00    +0.145 HD
ATOM     10  H   UNL     1       7.509   7.109  -2.376  0.00  0.00    +0.145 HD
ATOM     11  H   UNL     1       7.550   7.085   2.321  0.00  0.00    +0.145 HD
ATOM     12  H   UNL     1       6.382   6.219   3.163  0.00  0.00    +0.145 HD
ENDROOT
BRANCH   1  13
ATOM     13  C   UNL     1       3.373   4.049  -0.007  0.00  0.00    +0.150 C 
BRANCH  13  14
ATOM     14  S   UNL     1       3.896   2.312  -0.021  0.00  0.00    -0.117 S 
BRANCH  14  20
ATOM     15  C   UNL     1       1.169   2.088   0.002  0.00  0.00    +0.017 A 
ATOM     16  C   UNL     1      -0.017   1.380   0.010  0.00  0.00    +0.041 A 
ATOM     17  C   UNL     1       0.002  -0.004   0.002  0.00  0.00    +0.142 A 
ATOM     18  C   UNL     1       1.211  -0.683  -0.013  0.00  0.00    +0.077 A 
ATOM     19  C   UNL     1       2.399   0.022  -0.020  0.00  0.00    +0.037 A 
ATOM     20  C   UNL     1       2.382   1.411  -0.013  0.00  0.00    +0.010 A 
ATOM     21 CL   UNL     1       1.231  -2.419  -0.023  0.00  0.00    -0.081 Cl
ATOM     22  F   UNL     1      -1.159  -0.694   0.009  0.00  0.00    -0.204 F 
ENDBRANCH  14  20
ENDBRANCH  13  14
ENDBRANCH   1  13
TORSDOF 3
