REMARK  Name = ZINC36331679
REMARK  5 active torsions:
REMARK  status: ('A' for Active; 'I' for Inactive)
REMARK    1  A    between atoms: C_1  and  C_2
REMARK    2  A    between atoms: C_5  and  O_23
REMARK    3  A    between atoms: C_8  and  C_22
REMARK    4  A    between atoms: C_11  and  N_13
REMARK    5  A    between atoms: N_13  and  C_14
REMARK                            x       y       z     vdW  Elec       q    Type
REMARK                         _______ _______ _______ _____ _____    ______ ____
ROOT
ATOM      1  C   UNL     1      -0.642   0.580  -0.199  0.00  0.00    +0.044 C 
ATOM      2  C   UNL     1      -0.762  -0.848   0.268  0.00  0.00    -0.047 A 
ATOM      3  C   UNL     1      -1.227  -1.817  -0.600  0.00  0.00    +0.007 A 
ATOM      4  C   UNL     1      -1.339  -3.127  -0.176  0.00  0.00    +0.046 A 
ATOM      5  C   UNL     1      -0.984  -3.466   1.120  0.00  0.00    +0.119 A 
ATOM      6  C   UNL     1      -0.517  -2.491   1.992  0.00  0.00    -0.016 A 
ATOM      7  C   UNL     1      -0.402  -1.183   1.562  0.00  0.00    -0.037 A 
ATOM      8  C   UNL     1       0.132  -0.320   2.686  0.00  0.00    +0.015 C 
ATOM      9  C   UNL     1      -0.078  -1.152   3.969  0.00  0.00    -0.003 C 
ATOM     10  C   UNL     1      -0.071  -2.596   3.435  0.00  0.00    -0.036 C 
ATOM     11  C   UNL     1      -0.653   0.991   2.767  0.00  0.00    +0.012 C 
ENDROOT
BRANCH  10  12
ATOM     12  N   UNL     1       1.289  -3.147   3.509  0.00  0.00    +0.386 N 
ATOM     13  H   UNL     1       1.899  -2.618   2.904  0.00  0.00    -0.085 HD
ATOM     14  H   UNL     1       1.624  -3.089   4.459  0.00  0.00    -0.085 HD
BRANCH  12  15
ATOM     15  C   UNL     1       1.273  -4.552   3.080  0.00  0.00    -0.068 C 
ATOM     16  C   UNL     1       0.383  -5.355   4.025  0.00  0.00    +0.007 C 
ATOM     17  C   UNL     1       0.135  -6.751   3.448  0.00  0.00    +0.164 C 
ATOM     18  S   UNL     1       1.721  -7.632   3.339  0.00  0.00    -0.031 S 
ATOM     19  O   UNL     1       1.534  -8.803   2.555  0.00  0.00    -0.174 OA
ATOM     20  O   UNL     1       2.262  -7.753   4.647  0.00  0.00    -0.174 OA
ATOM     21  C   UNL     1       2.740  -6.461   2.395  0.00  0.00    +0.164 C 
ATOM     22  C   UNL     1       2.698  -5.097   3.088  0.00  0.00    +0.007 C 
ENDBRANCH  12  15
ENDBRANCH  10  12
BRANCH   5  23
ATOM     23  O   UNL     1      -1.094  -4.754   1.539  0.00  0.00    -0.507 OA
ATOM     24  H   UNL     1      -0.331  -5.306   1.318  0.00  0.00    +0.292 HD
ENDBRANCH   5  23
TORSDOF 3
