REMARK  Name = ZINC56596928
REMARK  8 active torsions:
REMARK  status: ('A' for Active; 'I' for Inactive)
REMARK    1  A    between atoms: C_1  and  C_2
REMARK    2  A    between atoms: C_2  and  N_3
REMARK    3  A    between atoms: N_3  and  C_4
REMARK    4  A    between atoms: C_4  and  C_6
REMARK    5  A    between atoms: C_4  and  C_7
REMARK    6  A    between atoms: N_18  and  C_19
REMARK    7  A    between atoms: C_23  and  C_25
REMARK    8  A    between atoms: N_29  and  C_30
REMARK                            x       y       z     vdW  Elec       q    Type
REMARK                         _______ _______ _______ _____ _____    ______ ____
ROOT
ATOM      1  N   UNL     1       1.000  -1.341   0.489  0.00  0.00    -0.276 N 
ATOM      2  C   UNL     1       2.335  -1.160   0.508  0.00  0.00    +0.307 C 
ATOM      3  O   UNL     1       3.017  -1.756   1.319  0.00  0.00    -0.252 OA
ATOM      4  N   UNL     1       2.914  -0.318  -0.370  0.00  0.00    -0.269 N 
ATOM      5  H   UNL     1       2.365   0.209  -0.972  0.00  0.00    +0.156 HD
ENDROOT
BRANCH   4   6
ATOM      6  C   UNL     1       4.309  -0.205  -0.416  0.00  0.00    +0.035 A 
ATOM      7  C   UNL     1       4.949   0.005  -1.631  0.00  0.00    +0.023 A 
ATOM      8  C   UNL     1       6.326   0.119  -1.681  0.00  0.00    +0.002 A 
ATOM      9  C   UNL     1       7.073   0.024  -0.524  0.00  0.00    +0.012 A 
ATOM     10  C   UNL     1       6.439  -0.188   0.700  0.00  0.00    +0.022 A 
ATOM     11  C   UNL     1       5.050  -0.296   0.751  0.00  0.00    +0.035 A 
BRANCH  10  12
ATOM     12  C   UNL     1       7.238  -0.291   1.942  0.00  0.00    +0.182 A 
ATOM     13  N   UNL     1       6.847   0.042   3.154  0.00  0.00    -0.108 NA
ATOM     14  N   UNL     1       7.785  -0.173   4.004  0.00  0.00    -0.023 NA
ATOM     15  N   UNL     1       8.826  -0.650   3.413  0.00  0.00    -0.044 NA
ATOM     16  N   UNL     1       8.509  -0.750   2.047  0.00  0.00    -0.228 N 
ATOM     17  C   UNL     1       9.369  -1.244   0.968  0.00  0.00    +0.176 C 
ENDBRANCH  10  12
ENDBRANCH   4   6
BRANCH   1  19
ATOM     18  C   UNL     1      -0.161   0.767   0.053  0.00  0.00    +0.024 C 
ATOM     19  C   UNL     1       0.178  -0.623  -0.489  0.00  0.00    +0.107 C 
ENDBRANCH   1  19
BRANCH   1  20
ATOM     20  C   UNL     1       0.370  -2.256   1.444  0.00  0.00    +0.140 C 
ATOM     21  C   UNL     1       0.759  -1.853   2.868  0.00  0.00    +0.036 C 
BRANCH  20  22
ATOM     22  C   UNL     1       0.837  -3.663   1.175  0.00  0.00    +0.126 A 
ATOM     23  C   UNL     1       0.080  -4.761   1.306  0.00  0.00    +0.055 A 
ATOM     24  C   UNL     1       0.938  -5.895   0.942  0.00  0.00    +0.020 A 
ATOM     25  C   UNL     1       0.752  -7.275   0.874  0.00  0.00    +0.011 A 
ATOM     26  C   UNL     1       1.787  -8.080   0.486  0.00  0.00    +0.001 A 
ATOM     27  C   UNL     1       3.019  -7.531   0.160  0.00  0.00    +0.004 A 
ATOM     28  C   UNL     1       3.221  -6.169   0.221  0.00  0.00    +0.047 A 
ATOM     29  C   UNL     1       2.183  -5.334   0.613  0.00  0.00    +0.135 A 
ATOM     30  O   UNL     1       2.072  -3.998   0.762  0.00  0.00    -0.458 OA
ENDBRANCH  20  22
ENDBRANCH   1  20
TORSDOF 5
