REMARK  Name = ZINC63194191
REMARK  8 active torsions:
REMARK  status: ('A' for Active; 'I' for Inactive)
REMARK    1  A    between atoms: C_1  and  C_2
REMARK    2  A    between atoms: C_4  and  C_23
REMARK    3  A    between atoms: C_5  and  S_9
REMARK    4  A    between atoms: C_6  and  C_8
REMARK    5  A    between atoms: S_9  and  N_12
REMARK    6  A    between atoms: C_17  and  C_19
REMARK    7  A    between atoms: C_19  and  C_21
REMARK    8  A    between atoms: C_19  and  N_22
REMARK                            x       y       z     vdW  Elec       q    Type
REMARK                         _______ _______ _______ _____ _____    ______ ____
ROOT
ATOM      1  S   UNL     1      -0.906  -2.425  -0.379  0.00  0.00    +0.062 S 
ATOM      2  O   UNL     1      -1.539  -2.155   0.864  0.00  0.00    -0.153 OA
ATOM      3  O   UNL     1      -1.541  -3.168  -1.411  0.00  0.00    -0.153 OA
ENDROOT
BRANCH   1   8
ATOM      4  C   UNL     1       0.576   2.917  -2.758  0.00  0.00    +0.044 C 
ATOM      5  C   UNL     1       0.206   1.583  -2.164  0.00  0.00    -0.050 A 
ATOM      6  C   UNL     1       0.138   1.432  -0.791  0.00  0.00    +0.008 A 
ATOM      7  C   UNL     1      -0.202   0.208  -0.246  0.00  0.00    -0.024 A 
ATOM      8  C   UNL     1      -0.474  -0.865  -1.074  0.00  0.00    +0.111 A 
ATOM      9  C   UNL     1      -0.408  -0.714  -2.446  0.00  0.00    -0.024 A 
ATOM     10  C   UNL     1      -0.072   0.511  -2.991  0.00  0.00    +0.008 A 
ATOM     11  C   UNL     1      -0.705  -1.884  -3.348  0.00  0.00    +0.046 C 
ATOM     12  C   UNL     1      -0.274   0.044   1.250  0.00  0.00    +0.046 C 
ENDBRANCH   1   8
BRANCH   1  13
ATOM     13  N   UNL     1       0.507  -3.214  -0.029  0.00  0.00    -0.175 NA
ATOM     14  C   UNL     1       1.477  -3.519  -1.090  0.00  0.00    +0.110 C 
ATOM     15  C   UNL     1       1.794  -5.018  -1.051  0.00  0.00    +0.017 C 
ATOM     16  C   UNL     1       2.260  -5.400   0.355  0.00  0.00    +0.003 C 
ATOM     17  C   UNL     1       1.141  -5.117   1.360  0.00  0.00    +0.019 C 
ATOM     18  C   UNL     1       0.819  -3.615   1.350  0.00  0.00    +0.065 C 
BRANCH  18  19
ATOM     19  C   UNL     1      -0.388  -3.341   2.249  0.00  0.00    -0.059 C 
ATOM     20  C   UNL     1      -1.586  -4.156   1.757  0.00  0.00    -0.013 C 
BRANCH  19  21
ATOM     21  N   UNL     1      -0.068  -3.727   3.630  0.00  0.00    +0.381 N 
ATOM     22  H   UNL     1       0.682  -3.147   3.975  0.00  0.00    -0.090 HD
ATOM     23  H   UNL     1      -0.883  -3.604   4.211  0.00  0.00    -0.090 HD
ATOM     24  H   UNL     1       0.218  -4.694   3.651  0.00  0.00    -0.090 HD
ENDBRANCH  19  21
ENDBRANCH  18  19
ENDBRANCH   1  13
TORSDOF 4
