REMARK  Name = ZINC04546743
REMARK  7 active torsions:
REMARK  status: ('A' for Active; 'I' for Inactive)
REMARK    1  A    between atoms: C_1  and  C_2
REMARK    2  A    between atoms: C_3  and  C_12
REMARK    3  A    between atoms: C_12  and  C_14
REMARK    4  A    between atoms: C_14  and  C_16
REMARK    5  A    between atoms: C_14  and  O_17
REMARK    6  A    between atoms: O_17  and  C_18
REMARK    7  A    between atoms: C_18  and  C_20
REMARK                            x       y       z     vdW  Elec       q    Type
REMARK                         _______ _______ _______ _____ _____    ______ ____
ROOT
ATOM      1  C   UNL     1       1.746   6.156  -0.139  0.00  0.00    +0.244 C 
ATOM      2  C   UNL     1       2.054   6.469  -1.605  0.00  0.00    +0.061 C 
ENDROOT
BRANCH   1   3
ATOM      3  C   UNL     1       0.984   4.859  -0.052  0.00  0.00    +0.205 C 
ATOM      4  O   UNL     1      -0.217   4.870   0.125  0.00  0.00    -0.288 OA
BRANCH   3   7
ATOM      5  C   UNL     1       2.424   3.379   2.261  0.00  0.00    +0.064 C 
ATOM      6  C   UNL     1       2.322   2.935   0.825  0.00  0.00    +0.025 A 
ATOM      7  C   UNL     1       1.671   3.625  -0.176  0.00  0.00    +0.049 A 
ATOM      8  C   UNL     1       1.832   2.820  -1.403  0.00  0.00    +0.011 A 
ATOM      9  C   UNL     1       1.413   2.972  -2.721  0.00  0.00    +0.011 A 
ATOM     10  C   UNL     1       1.737   2.012  -3.655  0.00  0.00    +0.001 A 
ATOM     11  C   UNL     1       2.477   0.898  -3.285  0.00  0.00    +0.002 A 
ATOM     12  C   UNL     1       2.897   0.735  -1.984  0.00  0.00    +0.026 A 
ATOM     13  C   UNL     1       2.580   1.694  -1.026  0.00  0.00    +0.047 A 
ATOM     14  N   UNL     1       2.853   1.804   0.322  0.00  0.00    -0.358 N 
ATOM     15  H   UNL     1       3.359   1.157   0.838  0.00  0.00    +0.166 HD
ENDBRANCH   3   7
ENDBRANCH   1   3
BRANCH   1  16
ATOM     16  O   UNL     1       0.944   7.227   0.425  0.00  0.00    -0.450 OA
BRANCH  16  17
ATOM     17  C   UNL     1       1.607   8.252   0.996  0.00  0.00    +0.340 C 
ATOM     18  O   UNL     1       2.821   8.251   1.022  0.00  0.00    -0.245 OA
BRANCH  17  19
ATOM     19  C   UNL     1       0.858   9.375   1.590  0.00  0.00    +0.060 A 
ATOM     20  C   UNL     1      -0.545   9.388   1.561  0.00  0.00    +0.017 A 
ATOM     21  C   UNL     1      -1.254  10.408   2.106  0.00  0.00    +0.029 A 
ATOM     22  C   UNL     1      -0.600  11.504   2.716  0.00  0.00    +0.078 A 
ATOM     23  C   UNL     1       0.816  11.473   2.729  0.00  0.00    +0.040 A 
ATOM     24  C   UNL     1       1.536  10.443   2.185  0.00  0.00    +0.032 A 
ATOM     25  S   UNL     1       1.214  12.989   3.562  0.00  0.00    -0.075 S 
ATOM     26  C   UNL     1      -0.412  13.539   3.826  0.00  0.00    +0.157 A 
ATOM     27  N   UNL     1      -1.139  12.593   3.297  0.00  0.00    -0.247 NA
ENDBRANCH  17  19
ENDBRANCH  16  17
ENDBRANCH   1  16
TORSDOF 5
