REMARK  Name = ZINC04831383
REMARK  6 active torsions:
REMARK  status: ('A' for Active; 'I' for Inactive)
REMARK    1  A    between atoms: C_1  and  C_2
REMARK    2  A    between atoms: C_11  and  C_18
REMARK    3  A    between atoms: C_14  and  C_17
REMARK    4  A    between atoms: C_18  and  C_20
REMARK    5  A    between atoms: C_18  and  O_22
REMARK    6  A    between atoms: C_20  and  O_21
REMARK                            x       y       z     vdW  Elec       q    Type
REMARK                         _______ _______ _______ _____ _____    ______ ____
ROOT
ATOM      1  C   UNL     1       3.519   2.002   3.638  0.00  0.00    +0.070 C 
ATOM      2  C   UNL     1       4.155   1.511   2.336  0.00  0.00    +0.248 C 
ATOM      3  O   UNL     1       4.174   0.083   2.328  0.00  0.00    -0.349 OA
ATOM      4  C   UNL     1       2.879  -0.532   2.337  0.00  0.00    +0.197 C 
ATOM      5  C   UNL     1       2.100  -0.014   1.129  0.00  0.00    +0.178 C 
ATOM      6  C   UNL     1       2.058   1.520   1.208  0.00  0.00    +0.184 C 
ATOM      7  O   UNL     1       3.399   2.005   1.223  0.00  0.00    -0.343 OA
ATOM      8  C   UNL     1       1.278   2.039   0.001  0.00  0.00    +0.183 C 
ATOM      9  O   UNL     1      -0.017   1.424   0.010  0.00  0.00    -0.343 OA
ATOM     10  C   UNL     1       0.002  -0.004   0.002  0.00  0.00    +0.248 C 
ATOM     11  O   UNL     1       0.759  -0.498   1.114  0.00  0.00    -0.343 OA
ATOM     12  C   UNL     1      -1.432  -0.530   0.091  0.00  0.00    +0.070 C 
ENDROOT
BRANCH   8  13
ATOM     13  C   UNL     1       1.129   3.558   0.096  0.00  0.00    +0.171 C 
BRANCH  13  14
ATOM     14  O   UNL     1       0.559   3.903   1.360  0.00  0.00    -0.387 OA
ATOM     15  H   UNL     1       1.087   3.620   2.120  0.00  0.00    +0.210 HD
ENDBRANCH  13  14
BRANCH  13  16
ATOM     16  C   UNL     1       0.215   4.053  -1.027  0.00  0.00    +0.189 C 
BRANCH  16  17
ATOM     17  O   UNL     1      -1.030   3.354  -0.971  0.00  0.00    -0.392 OA
ATOM     18  H   UNL     1      -1.660   3.617  -1.655  0.00  0.00    +0.210 HD
ENDBRANCH  16  17
ENDBRANCH  13  16
ENDBRANCH   8  13
TORSDOF 4
