REMARK  Name = ZINC39673419
REMARK  6 active torsions:
REMARK  status: ('A' for Active; 'I' for Inactive)
REMARK    1  A    between atoms: C_9  and  C_11
REMARK    2  A    between atoms: C_15  and  C_24
REMARK    3  A    between atoms: N_26  and  C_27
REMARK    4  A    between atoms: C_27  and  C_28
REMARK    5  A    between atoms: C_31  and  O_34
REMARK    6  A    between atoms: O_34  and  C_35
REMARK                            x       y       z     vdW  Elec       q    Type
REMARK                         _______ _______ _______ _____ _____    ______ ____
ROOT
ATOM      1  C   UNL     1       5.027  -2.577  -0.049  0.00  0.00    +0.265 C 
ATOM      2  O   UNL     1       3.936  -2.047  -0.114  0.00  0.00    -0.268 OA
ATOM      3  N   UNL     1       6.139  -1.821   0.042  0.00  0.00    -0.295 N 
ATOM      4  C   UNL     1       6.228  -0.348   0.169  0.00  0.00    +0.121 C 
ATOM      5  C   UNL     1       7.383  -0.111   1.168  0.00  0.00    +0.100 C 
ATOM      6  C   UNL     1       8.248  -1.379   1.076  0.00  0.00    -0.004 C 
ATOM      7  C   UNL     1       7.550  -2.277   0.044  0.00  0.00    +0.115 C 
ATOM      8  C   UNL     1       9.655  -1.026   0.604  0.00  0.00    -0.010 C 
ATOM      9  C   UNL     1      10.513  -2.294   0.576  0.00  0.00    -0.082 C 
ATOM     10  N   UNL     1      10.559  -2.886   1.919  0.00  0.00    +0.379 N 
ATOM     11  C   UNL     1       9.213  -3.307   2.327  0.00  0.00    -0.082 C 
ATOM     12  C   UNL     1       8.301  -2.082   2.429  0.00  0.00    -0.010 C 
ATOM     13  H   UNL     1      11.173  -3.686   1.911  0.00  0.00    -0.086 HD
ATOM     14  H   UNL     1      10.909  -2.203   2.574  0.00  0.00    -0.086 HD
ENDROOT
BRANCH   1  23
ATOM     15  C   UNL     1       6.744  -8.703  -0.182  0.00  0.00    +0.001 A 
ATOM     16  C   UNL     1       7.870  -7.882  -0.217  0.00  0.00    +0.002 A 
ATOM     17  C   UNL     1       7.752  -6.527  -0.197  0.00  0.00    +0.028 A 
ATOM     18  C   UNL     1       6.474  -5.938  -0.141  0.00  0.00    +0.072 A 
ATOM     19  C   UNL     1       5.329  -6.777  -0.106  0.00  0.00    +0.000 A 
ATOM     20  C   UNL     1       5.491  -8.172  -0.128  0.00  0.00    +0.010 A 
ATOM     21  C   UNL     1       4.051  -6.191  -0.051  0.00  0.00    +0.012 A 
ATOM     22  C   UNL     1       3.965  -4.829  -0.032  0.00  0.00    +0.033 A 
ATOM     23  C   UNL     1       5.135  -4.056  -0.069  0.00  0.00    +0.126 A 
ATOM     24  N   UNL     1       6.329  -4.614  -0.121  0.00  0.00    -0.242 NA
ENDBRANCH   1  23
BRANCH   5  25
ATOM     25  C   UNL     1       6.843   0.058   2.564  0.00  0.00    +0.218 C 
ATOM     26  O   UNL     1       5.863  -0.565   2.915  0.00  0.00    -0.275 OA
ATOM     27  N   UNL     1       7.448   0.902   3.424  0.00  0.00    -0.311 N 
ATOM     28  H   UNL     1       8.231   1.401   3.143  0.00  0.00    +0.149 HD
BRANCH  27  29
ATOM     29  C   UNL     1       6.922   1.066   4.781  0.00  0.00    +0.139 C 
BRANCH  29  30
ATOM     30  C   UNL     1       7.773   2.058   5.533  0.00  0.00    -0.030 A 
ATOM     31  C   UNL     1       8.870   1.620   6.252  0.00  0.00    +0.009 A 
ATOM     32  C   UNL     1       9.651   2.527   6.942  0.00  0.00    +0.046 A 
ATOM     33  C   UNL     1       9.335   3.877   6.912  0.00  0.00    +0.127 A 
ATOM     34  C   UNL     1       8.234   4.314   6.189  0.00  0.00    +0.046 A 
ATOM     35  C   UNL     1       7.459   3.404   5.497  0.00  0.00    +0.009 A 
BRANCH  33  36
ATOM     36  O   UNL     1      10.101   4.771   7.591  0.00  0.00    -0.434 OA
BRANCH  36  37
ATOM     37  C   UNL     1       9.716   6.145   7.515  0.00  0.00    +0.541 C 
ATOM     38  F   UNL     1       9.742   6.564   6.180  0.00  0.00    -0.166 F 
ATOM     39  F   UNL     1       8.422   6.296   8.025  0.00  0.00    -0.166 F 
ENDBRANCH  36  37
ENDBRANCH  33  36
ENDBRANCH  29  30
ENDBRANCH  27  29
ENDBRANCH   5  25
TORSDOF 6
