REMARK  Name = ZINC03909714
REMARK  3 active torsions:
REMARK  status: ('A' for Active; 'I' for Inactive)
REMARK    1  A    between atoms: C_3  and  C_7
REMARK    2  A    between atoms: N_8  and  N_9
REMARK    3  A    between atoms: C_17  and  O_20
REMARK                            x       y       z     vdW  Elec       q    Type
REMARK                         _______ _______ _______ _____ _____    ______ ____
ROOT
ATOM      1  N   UNL     1      -2.349   0.993   0.019  0.00  0.00    -0.221 N 
ATOM      2  C   UNL     1      -3.560   1.670   0.028  0.00  0.00    +0.139 A 
ATOM      3  C   UNL     1      -4.755   0.936   0.024  0.00  0.00    +0.046 A 
ATOM      4  C   UNL     1      -5.951   1.588   0.039  0.00  0.00    +0.015 A 
ATOM      5  C   UNL     1      -5.944   2.998   0.047  0.00  0.00    +0.022 A 
ATOM      6  C   UNL     1      -7.143   3.731   0.056  0.00  0.00    +0.052 A 
ATOM      7  C   UNL     1      -7.106   5.093   0.063  0.00  0.00    +0.044 A 
ATOM      8  C   UNL     1      -5.891   5.776   0.060  0.00  0.00    +0.086 A 
ATOM      9  C   UNL     1      -4.697   5.090   0.051  0.00  0.00    +0.161 A 
ATOM     10  C   UNL     1      -4.704   3.681   0.044  0.00  0.00    +0.117 A 
ATOM     11  N   UNL     1      -3.560   2.987   0.035  0.00  0.00    -0.227 NA
ATOM     12 CL   UNL     1      -5.883   7.512   0.069  0.00  0.00    -0.080 Cl
ATOM     13 CL   UNL     1      -8.669   2.903   0.058  0.00  0.00    -0.083 Cl
ATOM     14  H   UNL     1      -2.336   0.023   0.013  0.00  0.00    +0.176 HD
ENDROOT
BRANCH   1  16
ATOM     15  C   UNL     1      -0.013   1.076   0.008  0.00  0.00    +0.139 C 
ATOM     16  N   UNL     1      -1.145   1.710   0.017  0.00  0.00    -0.189 NA
BRANCH  15  19
ATOM     17  C   UNL     1       3.643   1.914  -0.023  0.00  0.00    +0.020 A 
ATOM     18  C   UNL     1       2.484   1.159  -0.010  0.00  0.00    +0.012 A 
ATOM     19  C   UNL     1       1.254   1.830  -0.000  0.00  0.00    +0.013 A 
ATOM     20  C   UNL     1       1.249   3.228   0.007  0.00  0.00    +0.120 A 
ATOM     21  N   UNL     1       2.381   3.901   0.000  0.00  0.00    -0.263 NA
ATOM     22  C   UNL     1       3.553   3.294  -0.014  0.00  0.00    +0.111 A 
ENDBRANCH  15  19
ENDBRANCH   1  16
BRANCH   9  23
ATOM     23  O   UNL     1      -3.519   5.768   0.049  0.00  0.00    -0.503 OA
ATOM     24  H   UNL     1      -3.182   5.969  -0.835  0.00  0.00    +0.292 HD
ENDBRANCH   9  23
TORSDOF 3
