REMARK  Name = ZINC03840846
REMARK  9 active torsions:
REMARK  status: ('A' for Active; 'I' for Inactive)
REMARK    1  A    between atoms: C_1  and  C_2
REMARK    2  A    between atoms: C_11  and  C_31
REMARK    3  A    between atoms: C_14  and  O_30
REMARK    4  A    between atoms: C_16  and  C_20
REMARK    5  A    between atoms: C_20  and  C_22
REMARK    6  A    between atoms: C_20  and  C_23
REMARK    7  A    between atoms: N_25  and  C_26
REMARK    8  A    between atoms: N_25  and  C_27
REMARK    9  A    between atoms: C_27  and  C_28
REMARK                            x       y       z     vdW  Elec       q    Type
REMARK                         _______ _______ _______ _____ _____    ______ ____
ROOT
ATOM      1  C   UNL     1      -5.348   4.127   1.484  0.00  0.00    +0.014 C 
ATOM      2  C   UNL     1      -4.930   3.003   2.433  0.00  0.00    +0.042 C 
ATOM      3  C   UNL     1      -5.024   3.492   3.871  0.00  0.00    +0.057 A 
ATOM      4  C   UNL     1      -4.059   3.164   4.766  0.00  0.00    +0.015 A 
ATOM      5  S   UNL     1      -4.625   3.947   6.253  0.00  0.00    -0.057 S 
ATOM      6  C   UNL     1      -6.073   4.642   5.590  0.00  0.00    +0.156 A 
ATOM      7  N   UNL     1      -6.022   4.243   4.335  0.00  0.00    -0.230 NA
ATOM      8  N   UNL     1      -7.035   5.417   6.219  0.00  0.00    -0.338 N 
ATOM      9  C   UNL     1      -2.838   2.348   4.530  0.00  0.00    +0.051 C 
ATOM     10  C   UNL     1      -2.983   1.604   3.188  0.00  0.00    -0.022 C 
ATOM     11  C   UNL     1      -3.486   2.585   2.127  0.00  0.00    +0.033 C 
ATOM     12  C   UNL     1      -3.483   1.918   0.748  0.00  0.00    +0.123 C 
ATOM     13  C   UNL     1      -2.079   1.430   0.396  0.00  0.00    +0.029 C 
ATOM     14  C   UNL     1      -1.638   0.401   1.441  0.00  0.00    +0.007 C 
ATOM     15  C   UNL     1      -1.595   1.079   2.809  0.00  0.00    +0.008 C 
ATOM     16  C   UNL     1      -3.963   0.436   3.326  0.00  0.00    +0.012 C 
ATOM     17  H   UNL     1      -6.943   5.636   7.159  0.00  0.00    +0.144 HD
ATOM     18  H   UNL     1      -7.801   5.741   5.719  0.00  0.00    +0.144 HD
ENDROOT
BRANCH  13  19
ATOM     19  C   UNL     1      -1.109   2.614   0.400  0.00  0.00    +0.078 C 
ATOM     20  C   UNL     1      -1.487   3.586  -0.720  0.00  0.00    +0.017 C 
BRANCH  19  21
ATOM     21  C   UNL     1       0.295   2.113   0.178  0.00  0.00    +0.219 C 
ATOM     22  O   UNL     1       0.478   1.003  -0.274  0.00  0.00    -0.275 OA
ATOM     23  N   UNL     1       1.346   2.901   0.478  0.00  0.00    -0.301 N 
ATOM     24  C   UNL     1       1.125   4.279   0.926  0.00  0.00    +0.132 C 
BRANCH  23  25
ATOM     25  C   UNL     1       2.710   2.380   0.357  0.00  0.00    +0.134 C 
BRANCH  25  26
ATOM     26  C   UNL     1       3.228   2.648  -1.032  0.00  0.00    -0.016 C 
ATOM     27  C   UNL     1       4.354   3.296  -1.198  0.00  0.00    +0.005 C 
ENDBRANCH  25  26
ENDBRANCH  23  25
ENDBRANCH  19  21
ENDBRANCH  13  19
BRANCH  12  28
ATOM     28  O   UNL     1      -3.917   2.861  -0.235  0.00  0.00    -0.391 OA
ATOM     29  H   UNL     1      -3.954   2.504  -1.133  0.00  0.00    +0.210 HD
ENDBRANCH  12  28
TORSDOF 5
