REMARK  Name = ZINC05312434
REMARK  8 active torsions:
REMARK  status: ('A' for Active; 'I' for Inactive)
REMARK    1  A    between atoms: C_1  and  C_2
REMARK    2  A    between atoms: C_2  and  N_3
REMARK    3  A    between atoms: C_4  and  C_25
REMARK    4  A    between atoms: C_7  and  S_8
REMARK    5  A    between atoms: S_8  and  C_9
REMARK    6  A    between atoms: C_9  and  C_10
REMARK    7  A    between atoms: N_15  and  C_16
REMARK    8  A    between atoms: C_22  and  C_24
REMARK                            x       y       z     vdW  Elec       q    Type
REMARK                         _______ _______ _______ _____ _____    ______ ____
ROOT
ATOM      1  C   UNL     1      -5.977   1.149   3.769  0.00  0.00    +0.173 C 
ENDROOT
BRANCH   1   2
ATOM      2  C   UNL     1      -5.182   0.671   2.581  0.00  0.00    +0.231 C 
ATOM      3  O   UNL     1      -5.753   0.339   1.564  0.00  0.00    -0.274 OA
ATOM      4  N   UNL     1      -3.838   0.613   2.649  0.00  0.00    -0.239 N 
ATOM      5  C   UNL     1      -3.127   0.185   1.587  0.00  0.00    +0.306 C 
ATOM      6  O   UNL     1      -3.699  -0.148   0.567  0.00  0.00    -0.252 OA
ATOM      7  N   UNL     1      -1.782   0.127   1.655  0.00  0.00    -0.296 N 
ATOM      8  H   UNL     1      -3.381   0.878   3.462  0.00  0.00    +0.159 HD
ATOM      9  H   UNL     1      -1.326   0.392   2.468  0.00  0.00    +0.151 HD
BRANCH   7  10
ATOM     10  C   UNL     1      -1.010  -0.339   0.500  0.00  0.00    +0.077 C 
ATOM     11  C   UNL     1      -0.931  -1.866   0.521  0.00  0.00    +0.022 C 
ATOM     12  C   UNL     1      -0.246  -2.324   1.810  0.00  0.00    +0.002 C 
ATOM     13  C   UNL     1       1.167  -1.739   1.873  0.00  0.00    +0.000 C 
ATOM     14  C   UNL     1       1.088  -0.211   1.851  0.00  0.00    +0.005 C 
ATOM     15  C   UNL     1       0.403   0.246   0.562  0.00  0.00    +0.006 C 
ATOM     16  C   UNL     1       0.323   1.774   0.541  0.00  0.00    +0.009 C 
ENDBRANCH   7  10
ENDBRANCH   1   2
BRANCH   1  17
ATOM     17  S   UNL     1      -7.742   1.113   3.368  0.00  0.00    -0.077 S 
BRANCH  17  22
ATOM     18  N   UNL     1      -9.734   1.887   5.171  0.00  0.00    -0.302 N 
ATOM     19  C   UNL     1      -9.775   2.357   6.464  0.00  0.00    +0.165 A 
ATOM     20  N   UNL     1      -8.534   2.433   6.886  0.00  0.00    -0.128 NA
ATOM     21  N   UNL     1      -7.732   2.043   5.960  0.00  0.00    -0.122 NA
ATOM     22  C   UNL     1      -8.412   1.703   4.887  0.00  0.00    +0.192 A 
BRANCH  19  23
ATOM     23  C   UNL     1     -10.987   2.710   7.232  0.00  0.00    +0.022 A 
ATOM     24  C   UNL     1     -10.907   3.523   8.369  0.00  0.00    +0.031 A 
ATOM     25  C   UNL     1     -12.064   3.830   9.054  0.00  0.00    +0.111 A 
ATOM     26  N   UNL     1     -13.232   3.361   8.656  0.00  0.00    -0.263 NA
ATOM     27  C   UNL     1     -13.351   2.588   7.594  0.00  0.00    +0.111 A 
ATOM     28  C   UNL     1     -12.247   2.235   6.847  0.00  0.00    +0.031 A 
ENDBRANCH  19  23
BRANCH  18  30
ATOM     29  C   UNL     1     -11.281   0.165   4.381  0.00  0.00    +0.027 C 
ATOM     30  C   UNL     1     -10.873   1.637   4.284  0.00  0.00    +0.122 C 
ENDBRANCH  18  30
ENDBRANCH  17  22
ENDBRANCH   1  17
TORSDOF 6
