REMARK  Name = ZINC59772987
REMARK  8 active torsions:
REMARK  status: ('A' for Active; 'I' for Inactive)
REMARK    1  A    between atoms: C_1  and  C_2
REMARK    2  A    between atoms: C_4  and  C_28
REMARK    3  A    between atoms: C_5  and  S_14
REMARK    4  A    between atoms: C_6  and  C_13
REMARK    5  A    between atoms: C_7  and  N_8
REMARK    6  A    between atoms: N_8  and  S_9
REMARK    7  A    between atoms: S_9  and  C_12
REMARK    8  A    between atoms: S_14  and  N_17
REMARK                            x       y       z     vdW  Elec       q    Type
REMARK                         _______ _______ _______ _____ _____    ______ ____
ROOT
ATOM      1  C   UNL     1       1.046   1.478   1.623  0.00  0.00    +0.046 C 
ATOM      2  C   UNL     1       0.950  -0.009   1.395  0.00  0.00    -0.025 A 
ATOM      3  C   UNL     1       1.428  -0.561   0.223  0.00  0.00    +0.010 A 
ATOM      4  C   UNL     1       1.339  -1.925   0.012  0.00  0.00    -0.023 A 
ATOM      5  C   UNL     1       0.773  -2.741   0.975  0.00  0.00    +0.116 A 
ATOM      6  C   UNL     1       0.293  -2.195   2.149  0.00  0.00    +0.001 A 
ATOM      7  C   UNL     1       0.386  -0.826   2.366  0.00  0.00    +0.082 A 
ATOM      8  C   UNL     1      -0.324  -3.085   3.197  0.00  0.00    +0.048 C 
ATOM      9  C   UNL     1       1.861  -2.523  -1.269  0.00  0.00    +0.046 C 
ENDROOT
BRANCH   5  10
ATOM     10  S   UNL     1       0.662  -4.478   0.701  0.00  0.00    +0.075 S 
ATOM     11  O   UNL     1       0.635  -5.090   1.983  0.00  0.00    -0.150 OA
ATOM     12  O   UNL     1      -0.368  -4.673  -0.258  0.00  0.00    -0.150 OA
BRANCH  10  13
ATOM     13  N   UNL     1       2.076  -4.951  -0.019  0.00  0.00    -0.200 N 
ATOM     14  C   UNL     1       2.104  -5.310  -1.444  0.00  0.00    +0.132 C 
ATOM     15  C   UNL     1       2.930  -6.596  -1.586  0.00  0.00    +0.025 C 
ATOM     16  C   UNL     1       4.365  -6.312  -1.145  0.00  0.00    +0.039 C 
ATOM     17  C   UNL     1       4.381  -5.661   0.213  0.00  0.00    -0.022 A 
ATOM     18  C   UNL     1       3.266  -5.010   0.718  0.00  0.00    +0.090 A 
ATOM     19  C   UNL     1       3.316  -4.410   1.973  0.00  0.00    +0.146 A 
ATOM     20  C   UNL     1       4.480  -4.460   2.717  0.00  0.00    +0.040 A 
ATOM     21  C   UNL     1       5.593  -5.107   2.212  0.00  0.00    +0.003 A 
ATOM     22  C   UNL     1       5.542  -5.713   0.968  0.00  0.00    +0.005 A 
ATOM     23  F   UNL     1       2.228  -3.778   2.464  0.00  0.00    -0.203 F 
ENDBRANCH  10  13
ENDBRANCH   5  10
BRANCH   7  24
ATOM     24  N   UNL     1      -0.093  -0.272   3.556  0.00  0.00    -0.102 NA
BRANCH  24  25
ATOM     25  S   UNL     1       0.679  -0.587   4.986  0.00  0.00    +0.059 S 
ATOM     26  O   UNL     1       0.545  -1.990   5.170  0.00  0.00    -0.154 OA
ATOM     27  O   UNL     1       1.963   0.005   4.842  0.00  0.00    -0.154 OA
ATOM     28  C   UNL     1      -0.282   0.303   6.241  0.00  0.00    +0.220 C 
ENDBRANCH  24  25
ENDBRANCH   7  24
TORSDOF 4
