REMARK  Name = ZINC63994060
REMARK  11 active torsions:
REMARK  status: ('A' for Active; 'I' for Inactive)
REMARK    1  A    between atoms: C_1  and  C_2
REMARK    2  A    between atoms: C_4  and  C_33
REMARK    3  A    between atoms: C_5  and  N_9
REMARK    4  A    between atoms: C_6  and  C_8
REMARK    5  A    between atoms: C_10  and  C_12
REMARK    6  A    between atoms: C_12  and  N_13
REMARK    7  A    between atoms: N_13  and  C_14
REMARK    8  A    between atoms: C_15  and  C_17
REMARK    9  A    between atoms: C_17  and  C_19
REMARK   10  A    between atoms: C_17  and  N_29
REMARK   11  A    between atoms: C_19  and  C_20
REMARK                            x       y       z     vdW  Elec       q    Type
REMARK                         _______ _______ _______ _____ _____    ______ ____
ROOT
ATOM      1  C   UNL     1       2.646  -7.689   3.821  0.00  0.00    +0.165 C 
ENDROOT
BRANCH   1   2
ATOM      2  N   UNL     1       3.994  -8.246   3.678  0.00  0.00    -0.288 N 
ATOM      3  C   UNL     1       5.006  -7.461   3.259  0.00  0.00    +0.298 C 
ATOM      4  O   UNL     1       4.801  -6.291   3.000  0.00  0.00    -0.253 OA
ATOM      5  N   UNL     1       6.246  -7.973   3.127  0.00  0.00    -0.313 N 
ATOM      6  H   UNL     1       4.158  -9.179   3.885  0.00  0.00    +0.151 HD
ATOM      7  H   UNL     1       6.410  -8.906   3.334  0.00  0.00    +0.146 HD
ATOM      8  H   UNL     1       6.974  -7.408   2.826  0.00  0.00    +0.146 HD
ENDBRANCH   1   2
BRANCH   1  11
ATOM      9  N   UNL     1       0.858  -6.983   2.265  0.00  0.00    -0.294 N 
ATOM     10  C   UNL     1      -0.114  -7.292   3.317  0.00  0.00    +0.132 C 
ATOM     11  C   UNL     1       2.174  -7.167   2.489  0.00  0.00    +0.236 C 
ATOM     12  O   UNL     1       2.979  -6.912   1.618  0.00  0.00    -0.274 OA
BRANCH   9  13
ATOM     13  C   UNL     1       0.399  -6.476   0.969  0.00  0.00    +0.203 C 
BRANCH  13  15
ATOM     14  N   UNL     1      -0.052  -4.280  -0.077  0.00  0.00    -0.284 N 
ATOM     15  C   UNL     1       0.345  -4.970   1.011  0.00  0.00    +0.235 C 
ATOM     16  O   UNL     1       0.659  -4.380   2.022  0.00  0.00    -0.274 OA
ATOM     17  H   UNL     1      -0.370  -4.753  -0.862  0.00  0.00    +0.155 HD
BRANCH  14  22
ATOM     18  C   UNL     1       0.136   1.390  -0.065  0.00  0.00    +0.044 C 
ATOM     19  C   UNL     1       0.086  -0.116  -0.068  0.00  0.00    -0.050 A 
ATOM     20  C   UNL     1       0.759  -0.827  -1.045  0.00  0.00    +0.008 A 
ATOM     21  C   UNL     1       0.715  -2.207  -1.051  0.00  0.00    -0.029 A 
ATOM     22  C   UNL     1      -0.005  -2.882  -0.074  0.00  0.00    +0.039 A 
ATOM     23  C   UNL     1      -0.679  -2.165   0.906  0.00  0.00    -0.029 A 
ATOM     24  C   UNL     1      -0.628  -0.785   0.909  0.00  0.00    +0.008 A 
ATOM     25  C   UNL     1      -1.463  -2.893   1.968  0.00  0.00    +0.045 C 
ATOM     26  C   UNL     1       1.448  -2.981  -2.116  0.00  0.00    +0.045 C 
ENDBRANCH  14  22
ENDBRANCH  13  15
ENDBRANCH   9  13
ENDBRANCH   1  11
BRANCH   1  27
ATOM     27  C   UNL     1       2.672  -6.546   4.837  0.00  0.00    +0.065 C 
BRANCH  27  28
ATOM     28  C   UNL     1       3.025  -7.090   6.197  0.00  0.00    -0.039 C 
ATOM     29  C   UNL     1       4.253  -7.132   6.763  0.00  0.00    -0.001 A 
ATOM     30  C   UNL     1       5.577  -6.700   6.298  0.00  0.00    +0.010 A 
ATOM     31  C   UNL     1       6.646  -6.878   7.107  0.00  0.00    +0.001 A 
ATOM     32  C   UNL     1       6.522  -7.463   8.375  0.00  0.00    +0.002 A 
ATOM     33  C   UNL     1       5.340  -7.884   8.871  0.00  0.00    +0.026 A 
ATOM     34  C   UNL     1       4.149  -7.746   8.106  0.00  0.00    +0.043 A 
ATOM     35  N   UNL     1       2.905  -8.071   8.361  0.00  0.00    -0.380 N 
ATOM     36  C   UNL     1       2.077  -7.694   7.209  0.00  0.00    +0.144 C 
ATOM     37  H   UNL     1       2.584  -8.488   9.176  0.00  0.00    +0.160 HD
ENDBRANCH  27  28
ENDBRANCH   1  27
TORSDOF 7
