REMARK  Name = ZINC34927947
REMARK  9 active torsions:
REMARK  status: ('A' for Active; 'I' for Inactive)
REMARK    1  A    between atoms: C_1  and  C_2
REMARK    2  A    between atoms: C_2  and  C_3
REMARK    3  A    between atoms: C_3  and  N_4
REMARK    4  A    between atoms: C_5  and  C_29
REMARK    5  A    between atoms: C_7  and  C_17
REMARK    6  A    between atoms: N_19  and  C_20
REMARK    7  A    between atoms: C_20  and  C_21
REMARK    8  A    between atoms: C_21  and  C_22
REMARK    9  A    between atoms: N_27  and  C_28
REMARK                            x       y       z     vdW  Elec       q    Type
REMARK                         _______ _______ _______ _____ _____    ______ ____
ROOT
ATOM      1  N   UNL     1      -0.140  -3.254  -1.023  0.00  0.00    -0.289 N 
ATOM      2  C   UNL     1       1.092  -3.809  -0.469  0.00  0.00    +0.123 C 
ATOM      3  C   UNL     1       0.803  -4.656   0.768  0.00  0.00    +0.130 C 
ATOM      4  C   UNL     1      -0.287  -5.652   0.470  0.00  0.00    -0.021 A 
ATOM      5  C   UNL     1      -0.287  -6.894   1.067  0.00  0.00    +0.005 A 
ATOM      6  C   UNL     1      -1.304  -7.793   0.793  0.00  0.00    +0.000 A 
ATOM      7  C   UNL     1      -2.325  -7.452  -0.076  0.00  0.00    +0.001 A 
ATOM      8  C   UNL     1      -2.333  -6.212  -0.684  0.00  0.00    +0.013 A 
ATOM      9  C   UNL     1      -1.308  -5.308  -0.417  0.00  0.00    +0.041 A 
ATOM     10  C   UNL     1      -1.270  -3.985  -1.075  0.00  0.00    +0.247 C 
ATOM     11  O   UNL     1      -2.248  -3.564  -1.662  0.00  0.00    -0.270 OA
ENDROOT
BRANCH   2  12
ATOM     12  C   UNL     1       1.760  -4.669  -1.511  0.00  0.00    -0.022 A 
ATOM     13  C   UNL     1       0.996  -5.484  -2.326  0.00  0.00    +0.009 A 
ATOM     14  C   UNL     1       1.604  -6.274  -3.284  0.00  0.00    +0.050 A 
ATOM     15  C   UNL     1       2.982  -6.251  -3.429  0.00  0.00    +0.166 A 
ATOM     16  C   UNL     1       3.751  -5.431  -2.607  0.00  0.00    +0.167 A 
ATOM     17  C   UNL     1       3.135  -4.637  -1.654  0.00  0.00    +0.055 A 
ATOM     18  O   UNL     1       5.065  -5.586  -2.943  0.00  0.00    -0.453 OA
ATOM     19  C   UNL     1       5.127  -6.811  -3.698  0.00  0.00    +0.466 C 
ATOM     20  O   UNL     1       3.813  -6.921  -4.279  0.00  0.00    -0.453 OA
ENDBRANCH   2  12
BRANCH   3  21
ATOM     21  C   UNL     1       2.053  -5.394   1.172  0.00  0.00    +0.223 C 
ATOM     22  O   UNL     1       2.348  -6.434   0.622  0.00  0.00    -0.275 OA
ATOM     23  N   UNL     1       2.844  -4.898   2.144  0.00  0.00    -0.315 N 
ATOM     24  H   UNL     1       2.572  -4.106   2.634  0.00  0.00    +0.149 HD
BRANCH  23  25
ATOM     25  C   UNL     1       4.114  -5.555   2.462  0.00  0.00    +0.102 C 
BRANCH  25  26
ATOM     26  C   UNL     1       4.811  -4.798   3.593  0.00  0.00    +0.003 C 
BRANCH  26  27
ATOM     27  C   UNL     1       6.194  -5.405   3.837  0.00  0.00    -0.068 C 
ATOM     28  C   UNL     1       6.049  -6.855   4.345  0.00  0.00    -0.017 C 
ATOM     29  C   UNL     1       7.177  -6.970   5.404  0.00  0.00    -0.020 C 
ATOM     30  C   UNL     1       7.171  -5.550   6.022  0.00  0.00    -0.079 C 
ATOM     31  N   UNL     1       6.900  -4.642   4.883  0.00  0.00    +0.380 N 
ATOM     32  C   UNL     1       6.060  -3.523   5.330  0.00  0.00    -0.096 C 
ATOM     33  H   UNL     1       7.770  -4.286   4.515  0.00  0.00    -0.082 HD
ENDBRANCH  26  27
ENDBRANCH  25  26
ENDBRANCH  23  25
ENDBRANCH   3  21
BRANCH   1  34
ATOM     34  C   UNL     1      -0.149  -1.877  -1.524  0.00  0.00    +0.108 C 
BRANCH  34  36
ATOM     35  C   UNL     1      -0.529   0.515  -0.911  0.00  0.00    +0.005 C 
ATOM     36  C   UNL     1      -0.520  -0.923  -0.388  0.00  0.00    +0.016 C 
ENDBRANCH  34  36
ENDBRANCH   1  34
TORSDOF 7
