REMARK  Name = ZINC09493278
REMARK  6 active torsions:
REMARK  status: ('A' for Active; 'I' for Inactive)
REMARK    1  A    between atoms: C_4  and  C_7
REMARK    2  A    between atoms: C_15  and  C_18
REMARK    3  A    between atoms: C_18  and  O_19
REMARK    4  A    between atoms: O_19  and  C_20
REMARK    5  A    between atoms: C_20  and  C_22
REMARK    6  A    between atoms: C_25  and  N_28
REMARK                            x       y       z     vdW  Elec       q    Type
REMARK                         _______ _______ _______ _____ _____    ______ ____
ROOT
ATOM      1  C   UNL     1       3.103  -8.386   0.626  0.00  0.00    +0.340 C 
ATOM      2  O   UNL     1       4.340  -8.854   0.076  0.00  0.00    -0.333 OA
ATOM      3  C   UNL     1       5.484  -8.180   0.599  0.00  0.00    +0.203 C 
ATOM      4  C   UNL     1       5.250  -6.691   0.561  0.00  0.00    +0.023 A 
ATOM      5  C   UNL     1       6.318  -5.826   0.715  0.00  0.00    +0.047 A 
ATOM      6  C   UNL     1       6.112  -4.458   0.689  0.00  0.00    +0.124 A 
ATOM      7  C   UNL     1       4.835  -3.952   0.509  0.00  0.00    +0.049 A 
ATOM      8  C   UNL     1       3.767  -4.813   0.353  0.00  0.00    +0.035 A 
ATOM      9  C   UNL     1       3.971  -6.186   0.384  0.00  0.00    +0.136 A 
ATOM     10  O   UNL     1       2.912  -7.026   0.229  0.00  0.00    -0.459 OA
ATOM     11  F   UNL     1       7.157  -3.615   0.839  0.00  0.00    -0.205 F 
ENDROOT
BRANCH   1  15
ATOM     12  C   UNL     1      -0.117 -10.776  -0.846  0.00  0.00    +0.000 A 
ATOM     13  C   UNL     1       0.895 -11.360  -0.108  0.00  0.00    +0.000 A 
ATOM     14  C   UNL     1       1.937 -10.586   0.369  0.00  0.00    +0.010 A 
ATOM     15  C   UNL     1       1.967  -9.229   0.107  0.00  0.00    +0.020 A 
ATOM     16  C   UNL     1       0.952  -8.645  -0.627  0.00  0.00    +0.010 A 
ATOM     17  C   UNL     1      -0.088  -9.419  -1.107  0.00  0.00    +0.000 A 
ENDBRANCH   1  15
BRANCH   8  18
ATOM     18  C   UNL     1       2.378  -4.263   0.157  0.00  0.00    +0.271 C 
BRANCH  18  19
ATOM     19  O   UNL     1       2.427  -2.812   0.169  0.00  0.00    -0.456 OA
BRANCH  19  20
ATOM     20  C   UNL     1       1.259  -2.159   0.004  0.00  0.00    +0.340 C 
ATOM     21  O   UNL     1       0.229  -2.785  -0.146  0.00  0.00    -0.245 OA
BRANCH  20  22
ATOM     22  C   UNL     1       1.232  -0.685   0.005  0.00  0.00    +0.059 A 
ATOM     23  C   UNL     1       0.022  -0.006  -0.166  0.00  0.00    +0.017 A 
ATOM     24  C   UNL     1       0.000   1.370  -0.164  0.00  0.00    +0.024 A 
ATOM     25  C   UNL     1       1.181   2.086   0.008  0.00  0.00    +0.035 A 
ATOM     26  C   UNL     1       2.387   1.414   0.178  0.00  0.00    +0.024 A 
ATOM     27  C   UNL     1       2.417   0.038   0.177  0.00  0.00    +0.017 A 
BRANCH  25  28
ATOM     28  N   UNL     1       1.155   3.480   0.009  0.00  0.00    -0.270 N 
ATOM     29  C   UNL     1       2.197   4.173  -0.490  0.00  0.00    +0.301 C 
ATOM     30  O   UNL     1       3.116   3.587  -1.029  0.00  0.00    -0.253 OA
ATOM     31  N   UNL     1       2.221   5.517  -0.392  0.00  0.00    -0.313 N 
ATOM     32  H   UNL     1       0.387   3.950   0.370  0.00  0.00    +0.156 HD
ATOM     33  H   UNL     1       1.488   5.985   0.038  0.00  0.00    +0.146 HD
ATOM     34  H   UNL     1       2.971   6.016  -0.752  0.00  0.00    +0.146 HD
ENDBRANCH  25  28
ENDBRANCH  20  22
ENDBRANCH  19  20
ENDBRANCH  18  19
ENDBRANCH   8  18
TORSDOF 6
