REMARK  Name = ZINC15969835
REMARK  7 active torsions:
REMARK  status: ('A' for Active; 'I' for Inactive)
REMARK    1  A    between atoms: C_1  and  C_2
REMARK    2  A    between atoms: C_16  and  C_19
REMARK    3  A    between atoms: C_19  and  C_20
REMARK    4  A    between atoms: C_20  and  C_21
REMARK    5  A    between atoms: N_26  and  C_29
REMARK    6  A    between atoms: C_29  and  C_30
REMARK    7  A    between atoms: C_30  and  C_31
REMARK                            x       y       z     vdW  Elec       q    Type
REMARK                         _______ _______ _______ _____ _____    ______ ____
ROOT
ATOM      1  C   UNL     1      -0.018   1.503   0.010  0.00  0.00    +0.046 C 
ATOM      2  C   UNL     1       0.002  -0.004   0.002  0.00  0.00    -0.028 A 
ATOM      3  C   UNL     1       0.006  -0.685  -1.198  0.00  0.00    +0.025 A 
ATOM      4  C   UNL     1       0.025  -2.068  -1.216  0.00  0.00    +0.042 A 
ATOM      5  C   UNL     1       0.040  -2.772  -0.023  0.00  0.00    +0.027 A 
ATOM      6  C   UNL     1       0.035  -2.096   1.175  0.00  0.00    +0.005 A 
ATOM      7  C   UNL     1       0.023  -0.704   1.205  0.00  0.00    +0.042 A 
ATOM      8  N   UNL     1       0.029  -0.250   2.526  0.00  0.00    -0.283 N 
ATOM      9  C   UNL     1       0.051  -1.264   3.413  0.00  0.00    +0.243 C 
ATOM     10  O   UNL     1       0.062  -1.169   4.622  0.00  0.00    -0.273 OA
ATOM     11  C   UNL     1       0.048  -2.537   2.612  0.00  0.00    +0.136 C 
ATOM     12  C   UNL     1       1.285  -3.387   2.929  0.00  0.00    +0.122 C 
ATOM     13  C   UNL     1       0.782  -4.855   2.845  0.00  0.00    +0.107 C 
ATOM     14  C   UNL     1      -0.708  -4.743   2.457  0.00  0.00    +0.068 C 
ATOM     15  N   UNL     1      -1.117  -3.385   2.927  0.00  0.00    -0.295 NA
ATOM     16  C   UNL     1       0.906  -5.349   4.268  0.00  0.00    +0.227 C 
ATOM     17  O   UNL     1       0.608  -6.459   4.653  0.00  0.00    -0.275 OA
ATOM     18  N   UNL     1       1.397  -4.370   5.037  0.00  0.00    -0.241 N 
ATOM     19  C   UNL     1       1.659  -3.214   4.384  0.00  0.00    +0.228 C 
ATOM     20  O   UNL     1       2.115  -2.204   4.875  0.00  0.00    -0.275 OA
ATOM     21 CL   UNL     1       0.029  -2.919  -2.729  0.00  0.00    -0.084 Cl
ATOM     22  H   UNL     1       0.020   0.687   2.776  0.00  0.00    +0.155 HD
ATOM     23  H   UNL     1      -1.312  -3.379   3.917  0.00  0.00    +0.123 HD
ENDROOT
BRANCH  14  24
ATOM     24  C   UNL     1      -1.528  -5.812   3.180  0.00  0.00    +0.028 C 
BRANCH  24  25
ATOM     25  C   UNL     1      -2.976  -5.764   2.688  0.00  0.00    +0.097 C 
BRANCH  25  26
ATOM     26  C   UNL     1      -3.785  -6.817   3.401  0.00  0.00    +0.211 C 
ATOM     27  O   UNL     1      -3.255  -7.536   4.222  0.00  0.00    -0.276 OA
ATOM     28  N   UNL     1      -5.096  -6.960   3.127  0.00  0.00    -0.329 N 
ATOM     29  H   UNL     1      -5.520  -6.385   2.470  0.00  0.00    +0.145 HD
ATOM     30  H   UNL     1      -5.617  -7.638   3.585  0.00  0.00    +0.145 HD
ENDBRANCH  25  26
ENDBRANCH  24  25
ENDBRANCH  14  24
BRANCH  18  31
ATOM     31  C   UNL     1       1.640  -4.536   6.472  0.00  0.00    +0.121 C 
BRANCH  31  32
ATOM     32  C   UNL     1       3.065  -5.047   6.692  0.00  0.00    +0.054 C 
BRANCH  32  33
ATOM     33  C   UNL     1       3.314  -5.218   8.169  0.00  0.00    -0.046 A 
ATOM     34  C   UNL     1       3.818  -4.166   8.911  0.00  0.00    +0.004 A 
ATOM     35  C   UNL     1       4.047  -4.323  10.265  0.00  0.00    +0.000 A 
ATOM     36  C   UNL     1       3.772  -5.531  10.877  0.00  0.00    +0.000 A 
ATOM     37  C   UNL     1       3.267  -6.583  10.135  0.00  0.00    +0.000 A 
ATOM     38  C   UNL     1       3.034  -6.425   8.782  0.00  0.00    +0.004 A 
ENDBRANCH  32  33
ENDBRANCH  31  32
ENDBRANCH  18  31
TORSDOF 6
