REMARK  Name = ZINC36585491
REMARK  14 active torsions:
REMARK  status: ('A' for Active; 'I' for Inactive)
REMARK    1  A    between atoms: C_1  and  C_2
REMARK    2  A    between atoms: C_5  and  S_8
REMARK    3  A    between atoms: S_8  and  C_11
REMARK    4  A    between atoms: C_11  and  N_12
REMARK    5  A    between atoms: C_13  and  C_15
REMARK    6  A    between atoms: C_15  and  C_17
REMARK    7  A    between atoms: C_15  and  N_26
REMARK    8  A    between atoms: C_18  and  O_25
REMARK    9  A    between atoms: C_20  and  O_24
REMARK   10  A    between atoms: C_22  and  O_23
REMARK   11  A    between atoms: N_26  and  C_29
REMARK   12  A    between atoms: C_29  and  C_30
REMARK   13  A    between atoms: C_29  and  C_31
REMARK   14  A    between atoms: C_29  and  C_32
REMARK                            x       y       z     vdW  Elec       q    Type
REMARK                         _______ _______ _______ _____ _____    ______ ____
ROOT
ATOM      1  C   UNL     1       3.932  -5.423   4.501  0.00  0.00    +0.199 C 
ENDROOT
BRANCH   1   2
ATOM      2  C   UNL     1       5.290  -6.047   4.305  0.00  0.00    +0.065 A 
ATOM      3  C   UNL     1       5.403  -7.413   4.096  0.00  0.00    +0.129 A 
ATOM      4  C   UNL     1       6.653  -7.986   3.916  0.00  0.00    +0.091 A 
ATOM      5  C   UNL     1       7.790  -7.193   3.945  0.00  0.00    +0.124 A 
ATOM      6  C   UNL     1       7.677  -5.827   4.153  0.00  0.00    +0.091 A 
ATOM      7  C   UNL     1       6.427  -5.253   4.328  0.00  0.00    +0.129 A 
BRANCH   7   8
ATOM      8  O   UNL     1       6.317  -3.913   4.528  0.00  0.00    -0.506 OA
ATOM      9  H   UNL     1       6.353  -3.649   5.457  0.00  0.00    +0.292 HD
ENDBRANCH   7   8
BRANCH   5  10
ATOM     10  O   UNL     1       9.015  -7.755   3.769  0.00  0.00    -0.507 OA
ATOM     11  H   UNL     1       9.302  -7.791   2.847  0.00  0.00    +0.292 HD
ENDBRANCH   5  10
BRANCH   3  12
ATOM     12  O   UNL     1       4.288  -8.190   4.068  0.00  0.00    -0.506 OA
ATOM     13  H   UNL     1       3.964  -8.381   3.178  0.00  0.00    +0.292 HD
ENDBRANCH   3  12
ENDBRANCH   1   2
BRANCH   1  15
ATOM     14  N   UNL     1       2.964  -4.676   2.351  0.00  0.00    -0.294 N 
ATOM     15  C   UNL     1       3.092  -5.653   3.271  0.00  0.00    +0.240 C 
ATOM     16  O   UNL     1       2.532  -6.716   3.109  0.00  0.00    -0.273 OA
ATOM     17  H   UNL     1       3.412  -3.826   2.480  0.00  0.00    +0.150 HD
BRANCH  14  18
ATOM     18  C   UNL     1       2.147  -4.900   1.155  0.00  0.00    +0.278 C 
BRANCH  18  19
ATOM     19  S   UNL     1       0.474  -4.258   1.437  0.00  0.00    +0.013 S 
ATOM     20  O   UNL     1      -0.013  -4.699   2.697  0.00  0.00    -0.168 OA
ATOM     21  O   UNL     1      -0.312  -4.410   0.263  0.00  0.00    -0.168 OA
BRANCH  19  26
ATOM     22  C   UNL     1       1.178   1.702   2.056  0.00  0.00    +0.044 C 
ATOM     23  C   UNL     1       1.002   0.213   1.901  0.00  0.00    -0.050 A 
ATOM     24  C   UNL     1       0.777  -0.330   0.650  0.00  0.00    +0.005 A 
ATOM     25  C   UNL     1       0.616  -1.695   0.508  0.00  0.00    +0.027 A 
ATOM     26  C   UNL     1       0.681  -2.518   1.618  0.00  0.00    +0.090 A 
ATOM     27  C   UNL     1       0.907  -1.975   2.869  0.00  0.00    +0.027 A 
ATOM     28  C   UNL     1       1.072  -0.610   3.010  0.00  0.00    +0.005 A 
ENDBRANCH  19  26
ENDBRANCH  18  19
ENDBRANCH  14  18
ENDBRANCH   1  15
BRANCH   1  29
ATOM     29  N   UNL     1       3.277  -6.034   5.660  0.00  0.00    -0.283 N 
ATOM     30  C   UNL     1       3.946  -6.923   6.421  0.00  0.00    +0.329 C 
ATOM     31  O   UNL     1       5.123  -7.131   6.217  0.00  0.00    -0.279 OA
BRANCH  29  32
ATOM     32  C   UNL     1       1.895  -5.679   5.992  0.00  0.00    +0.030 C 
ATOM     33  C   UNL     1       0.945  -6.337   4.990  0.00  0.00    +0.031 C 
ATOM     34  C   UNL     1       1.567  -6.170   7.404  0.00  0.00    +0.031 C 
ATOM     35  C   UNL     1       1.730  -4.159   5.930  0.00  0.00    +0.031 C 
ENDBRANCH  29  32
ENDBRANCH   1  29
TORSDOF 10
