REMARK  Name = ZINC21056840
REMARK  11 active torsions:
REMARK  status: ('A' for Active; 'I' for Inactive)
REMARK    1  A    between atoms: C_1  and  C_2
REMARK    2  A    between atoms: C_2  and  C_3
REMARK    3  A    between atoms: C_2  and  C_4
REMARK    4  A    between atoms: C_4  and  N_5
REMARK    5  A    between atoms: C_6  and  N_24
REMARK    6  A    between atoms: C_7  and  N_14
REMARK    7  A    between atoms: N_14  and  C_15
REMARK    8  A    between atoms: C_15  and  C_16
REMARK    9  A    between atoms: C_16  and  C_17
REMARK   10  A    between atoms: C_16  and  C_18
REMARK   11  A    between atoms: C_19  and  C_21
REMARK                            x       y       z     vdW  Elec       q    Type
REMARK                         _______ _______ _______ _____ _____    ______ ____
ROOT
ATOM      1  N   UNL     1       2.592   2.398   0.883  0.00  0.00    -0.280 N 
ATOM      2  C   UNL     1       1.326   2.887   0.658  0.00  0.00    +0.127 A 
ATOM      3  C   UNL     1       0.307   2.007   0.358  0.00  0.00    +0.140 A 
ATOM      4  C   UNL     1       0.595   0.631   0.291  0.00  0.00    +0.277 A 
ATOM      5  O   UNL     1      -0.287  -0.169   0.028  0.00  0.00    -0.266 OA
ATOM      6  N   UNL     1       1.852   0.203   0.519  0.00  0.00    -0.273 N 
ATOM      7  H   UNL     1       2.086  -0.870   0.469  0.00  0.00    +0.173 HD
ATOM      8  C   UNL     1       2.833   1.076   0.810  0.00  0.00    +0.331 A 
ATOM      9  O   UNL     1       3.959   0.663   1.011  0.00  0.00    -0.246 OA
ENDROOT
BRANCH   3  10
ATOM     10  N   UNL     1      -1.001   2.479   0.117  0.00  0.00    -0.264 N 
ATOM     11  C   UNL     1      -2.011   2.115   0.935  0.00  0.00    +0.223 C 
ATOM     12  O   UNL     1      -3.116   2.592   0.784  0.00  0.00    -0.275 OA
BRANCH  11  13
ATOM     13  C   UNL     1      -1.766   1.115   2.035  0.00  0.00    +0.076 C 
ATOM     14  C   UNL     1      -2.530  -0.210   1.969  0.00  0.00    +0.013 C 
ATOM     15  C   UNL     1      -2.913   0.844   3.012  0.00  0.00    +0.013 C 
ENDBRANCH  11  13
BRANCH  10  16
ATOM     16  C   UNL     1      -1.262   3.364  -1.020  0.00  0.00    +0.117 C 
BRANCH  16  17
ATOM     17  C   UNL     1      -1.747   2.534  -2.211  0.00  0.00    +0.001 C 
ATOM     18  C   UNL     1      -2.152   3.469  -3.353  0.00  0.00    +0.009 C 
ATOM     19  C   UNL     1      -0.620   1.612  -2.683  0.00  0.00    +0.009 C 
ENDBRANCH  16  17
ENDBRANCH  10  16
ENDBRANCH   3  10
BRANCH   2  20
ATOM     20  N   UNL     1       1.080   4.237   0.732  0.00  0.00    -0.343 N 
ATOM     21  H   UNL     1       0.065   4.622   0.551  0.00  0.00    +0.144 HD
ATOM     22  H   UNL     1       1.897   4.933   0.971  0.00  0.00    +0.144 HD
ENDBRANCH   2  20
BRANCH   1  23
ATOM     23  C   UNL     1       3.684   3.321   1.202  0.00  0.00    +0.131 C 
BRANCH  23  25
ATOM     24  C   UNL     1       3.374   4.590  -0.928  0.00  0.00    +0.009 C 
ATOM     25  C   UNL     1       4.363   3.774  -0.092  0.00  0.00    +0.003 C 
ATOM     26  C   UNL     1       5.579   4.638   0.246  0.00  0.00    +0.009 C 
ENDBRANCH  23  25
ENDBRANCH   1  23
TORSDOF 7
