REMARK  Name = ZINC07699119
REMARK  6 active torsions:
REMARK  status: ('A' for Active; 'I' for Inactive)
REMARK    1  A    between atoms: C_1  and  C_2
REMARK    2  A    between atoms: C_2  and  C_3
REMARK    3  A    between atoms: C_2  and  C_4
REMARK    4  A    between atoms: C_2  and  C_5
REMARK    5  A    between atoms: C_18  and  C_20
REMARK    6  A    between atoms: C_23  and  C_26
REMARK                            x       y       z     vdW  Elec       q    Type
REMARK                         _______ _______ _______ _____ _____    ______ ____
ROOT
ATOM      1  C   UNL     1       0.094  -0.638  -1.387  0.00  0.00    +0.041 C 
ATOM      2  C   UNL     1      -0.784   0.148  -2.357  0.00  0.00    +0.010 C 
ATOM      3  C   UNL     1      -0.512  -0.365  -3.777  0.00  0.00    +0.005 C 
ATOM      4  C   UNL     1       0.907   0.046  -4.164  0.00  0.00    +0.035 C 
ATOM      5  C   UNL     1       1.883  -0.329  -3.085  0.00  0.00    -0.024 C 
ATOM      6  C   UNL     1       1.534  -0.631  -1.842  0.00  0.00    +0.024 C 
ATOM      7  N   UNL     1       2.472  -0.954  -0.912  0.00  0.00    -0.330 N 
ATOM      8  C   UNL     1       3.763  -1.009  -1.121  0.00  0.00    +0.214 C 
ATOM      9  N   UNL     1       4.805  -1.309  -0.316  0.00  0.00    -0.206 NA
ATOM     10  C   UNL     1       5.927  -1.233  -0.978  0.00  0.00    +0.203 C 
ATOM     11  N   UNL     1       5.670  -0.873  -2.267  0.00  0.00    -0.251 N 
ATOM     12  N   UNL     1       4.286  -0.726  -2.367  0.00  0.00    -0.210 N 
ATOM     13  C   UNL     1       3.362  -0.364  -3.442  0.00  0.00    +0.155 C 
ATOM     14  H   UNL     1       6.321  -0.744  -2.974  0.00  0.00    +0.171 HD
ATOM     15  H   UNL     1       2.158  -1.160  -0.018  0.00  0.00    +0.168 HD
ENDROOT
BRANCH  13  16
ATOM     16  C   UNL     1       3.752   1.000  -3.949  0.00  0.00    -0.021 A 
ATOM     17  C   UNL     1       4.014   2.020  -3.052  0.00  0.00    +0.006 A 
ATOM     18  C   UNL     1       4.372   3.272  -3.510  0.00  0.00    +0.009 A 
ATOM     19  C   UNL     1       4.469   3.507  -4.880  0.00  0.00    -0.018 A 
ATOM     20  C   UNL     1       4.204   2.476  -5.780  0.00  0.00    +0.009 A 
ATOM     21  C   UNL     1       3.853   1.227  -5.310  0.00  0.00    +0.006 A 
BRANCH  19  22
ATOM     22  C   UNL     1       4.852   4.851  -5.380  0.00  0.00    -0.018 A 
ATOM     23  C   UNL     1       5.122   5.880  -4.480  0.00  0.00    +0.008 A 
ATOM     24  C   UNL     1       5.479   7.128  -4.950  0.00  0.00    +0.001 A 
ATOM     25  C   UNL     1       5.568   7.357  -6.311  0.00  0.00    +0.000 A 
ATOM     26  C   UNL     1       5.301   6.339  -7.209  0.00  0.00    +0.001 A 
ATOM     27  C   UNL     1       4.950   5.086  -6.750  0.00  0.00    +0.008 A 
ENDBRANCH  19  22
ENDBRANCH  13  16
BRANCH   1  29
ATOM     28  C   UNL     1       1.037   1.117   0.121  0.00  0.00    +0.011 C 
ATOM     29  C   UNL     1       0.002  -0.004   0.002  0.00  0.00    -0.030 C 
ATOM     30  C   UNL     1       0.277  -1.068   1.067  0.00  0.00    +0.011 C 
ATOM     31  C   UNL     1      -1.400   0.573   0.208  0.00  0.00    +0.011 C 
ENDBRANCH   1  29
TORSDOF 3
