REMARK  Name = ZINC36204050
REMARK  5 active torsions:
REMARK  status: ('A' for Active; 'I' for Inactive)
REMARK    1  A    between atoms: C_1  and  N_2
REMARK    2  A    between atoms: N_2  and  C_3
REMARK    3  A    between atoms: N_2  and  C_24
REMARK    4  A    between atoms: C_3  and  C_4
REMARK    5  A    between atoms: C_10  and  C_15
REMARK                            x       y       z     vdW  Elec       q    Type
REMARK                         _______ _______ _______ _____ _____    ______ ____
ROOT
ATOM      1  C   UNL     1      -2.043  -0.130   1.309  0.00  0.00    +0.094 A 
ATOM      2  N   UNL     1      -3.328  -0.506   1.534  0.00  0.00    -0.312 N 
ATOM      3  H   UNL     1      -3.800  -1.016   0.857  0.00  0.00    +0.170 HD
ATOM      4  C   UNL     1      -3.960  -0.185   2.679  0.00  0.00    +0.260 A 
ATOM      5  O   UNL     1      -5.114  -0.530   2.866  0.00  0.00    -0.267 OA
ATOM      6  C   UNL     1      -3.256   0.568   3.672  0.00  0.00    +0.080 A 
ATOM      7  C   UNL     1      -3.715   1.031   4.976  0.00  0.00    +0.004 A 
ATOM      8  C   UNL     1      -2.860   1.735   5.755  0.00  0.00    +0.056 A 
ATOM      9  S   UNL     1      -1.376   1.816   4.772  0.00  0.00    -0.076 S 
ATOM     10  C   UNL     1      -1.932   0.911   3.351  0.00  0.00    +0.116 A 
ATOM     11  N   UNL     1      -1.373   0.553   2.198  0.00  0.00    -0.229 NA
ENDROOT
BRANCH   7  12
ATOM     12  C   UNL     1      -5.093   0.737   5.439  0.00  0.00    -0.013 A 
ATOM     13  C   UNL     1      -6.180   1.003   4.609  0.00  0.00    +0.012 A 
ATOM     14  C   UNL     1      -7.462   0.729   5.041  0.00  0.00    +0.050 A 
ATOM     15  C   UNL     1      -7.672   0.189   6.301  0.00  0.00    +0.166 A 
ATOM     16  C   UNL     1      -6.588  -0.078   7.136  0.00  0.00    +0.167 A 
ATOM     17  C   UNL     1      -5.302   0.190   6.704  0.00  0.00    +0.058 A 
ATOM     18  O   UNL     1      -7.058  -0.600   8.307  0.00  0.00    -0.453 OA
ATOM     19  C   UNL     1      -8.459  -0.269   8.341  0.00  0.00    +0.466 C 
ATOM     20  O   UNL     1      -8.820  -0.166   6.951  0.00  0.00    -0.453 OA
ENDBRANCH   7  12
BRANCH   1  21
ATOM     21  C   UNL     1      -1.376  -0.512   0.012  0.00  0.00    -0.003 C 
BRANCH  21  23
ATOM     22  C   UNL     1      -0.018   1.465   0.010  0.00  0.00    -0.095 C 
ATOM     23  N   UNL     1       0.002  -0.004   0.002  0.00  0.00    +0.384 N 
ATOM     24  H   UNL     1       0.490  -0.338   0.820  0.00  0.00    -0.081 HD
BRANCH  23  25
ATOM     25  C   UNL     1       0.690  -0.478  -1.207  0.00  0.00    -0.068 C 
ATOM     26  C   UNL     1       0.710  -2.008  -1.215  0.00  0.00    -0.015 C 
ATOM     27  C   UNL     1       1.427  -2.501  -2.474  0.00  0.00    -0.002 C 
ATOM     28  C   UNL     1       2.862  -1.972  -2.485  0.00  0.00    -0.000 C 
ATOM     29  C   UNL     1       2.841  -0.442  -2.476  0.00  0.00    -0.002 C 
ATOM     30  C   UNL     1       2.125   0.052  -1.218  0.00  0.00    -0.015 C 
ENDBRANCH  23  25
ENDBRANCH  21  23
ENDBRANCH   1  21
TORSDOF 4
