REMARK  Name = ZINC34380627
REMARK  10 active torsions:
REMARK  status: ('A' for Active; 'I' for Inactive)
REMARK    1  A    between atoms: C_1  and  C_2
REMARK    2  A    between atoms: C_5  and  N_9
REMARK    3  A    between atoms: C_14  and  C_29
REMARK    4  A    between atoms: C_17  and  C_22
REMARK    5  A    between atoms: C_17  and  C_26
REMARK    6  A    between atoms: C_22  and  C_24
REMARK    7  A    between atoms: C_22  and  O_25
REMARK    8  A    between atoms: C_33  and  O_36
REMARK    9  A    between atoms: C_34  and  O_35
REMARK   10  A    between atoms: O_36  and  C_37
REMARK                            x       y       z     vdW  Elec       q    Type
REMARK                         _______ _______ _______ _____ _____    ______ ____
ROOT
ATOM      1  N   UNL     1       0.005  -4.496  -0.307  0.00  0.00    -0.210 N 
ATOM      2  C   UNL     1      -0.006  -5.383  -1.355  0.00  0.00    +0.229 C 
ATOM      3  O   UNL     1       0.176  -5.145  -2.530  0.00  0.00    -0.275 OA
ATOM      4  C   UNL     1      -0.285  -6.663  -0.746  0.00  0.00    +0.077 C 
ATOM      5  C   UNL     1      -0.173  -8.099  -1.038  0.00  0.00    -0.023 C 
ATOM      6  N   UNL     1      -0.255  -8.758   0.308  0.00  0.00    +0.397 N 
ATOM      7  C   UNL     1      -0.287  -7.672   1.341  0.00  0.00    +0.074 C 
ATOM      8  C   UNL     1       0.476  -6.532   0.634  0.00  0.00    +0.089 C 
ATOM      9  C   UNL     1       0.054  -5.115   0.909  0.00  0.00    +0.229 C 
ATOM     10  O   UNL     1      -0.195  -4.625   1.990  0.00  0.00    -0.275 OA
ATOM     11  H   UNL     1      -1.097  -9.312   0.367  0.00  0.00    -0.083 HD
ATOM     12  H   UNL     1       0.553  -9.344   0.452  0.00  0.00    -0.083 HD
ENDROOT
BRANCH   1  17
ATOM     13  C   UNL     1      -0.115   1.141  -0.964  0.00  0.00    +0.045 C 
ATOM     14  C   UNL     1      -0.083  -0.355  -0.789  0.00  0.00    -0.032 A 
ATOM     15  C   UNL     1      -0.103  -1.180  -1.899  0.00  0.00    +0.006 A 
ATOM     16  C   UNL     1      -0.073  -2.552  -1.742  0.00  0.00    +0.024 A 
ATOM     17  C   UNL     1      -0.024  -3.104  -0.469  0.00  0.00    +0.045 A 
ATOM     18  C   UNL     1      -0.004  -2.274   0.644  0.00  0.00    +0.044 A 
ATOM     19  C   UNL     1      -0.029  -0.901   0.481  0.00  0.00    +0.046 A 
ATOM     20 CL   UNL     1       0.003   0.138   1.871  0.00  0.00    -0.083 Cl
ENDBRANCH   1  17
BRANCH   5  21
ATOM     21  C   UNL     1       1.149  -8.402  -1.695  0.00  0.00    -0.015 A 
ATOM     22  C   UNL     1       2.241  -8.754  -0.923  0.00  0.00    +0.006 A 
ATOM     23  C   UNL     1       3.454  -9.031  -1.524  0.00  0.00    +0.004 A 
ATOM     24  C   UNL     1       3.582  -8.959  -2.899  0.00  0.00    +0.049 A 
ATOM     25  C   UNL     1       2.492  -8.607  -3.678  0.00  0.00    +0.161 A 
ATOM     26  C   UNL     1       1.268  -8.333  -3.074  0.00  0.00    +0.160 A 
BRANCH  26  27
ATOM     27  O   UNL     1       0.194  -7.992  -3.835  0.00  0.00    -0.503 OA
ATOM     28  H   UNL     1       0.109  -7.042  -3.993  0.00  0.00    +0.292 HD
ENDBRANCH  26  27
BRANCH  25  29
ATOM     29  O   UNL     1       2.616  -8.534  -5.030  0.00  0.00    -0.491 OA
ATOM     30  C   UNL     1       3.900  -8.835  -5.581  0.00  0.00    +0.277 C 
ENDBRANCH  25  29
ENDBRANCH   5  21
BRANCH   7  31
ATOM     31  C   UNL     1       0.443  -8.100   2.588  0.00  0.00    +0.349 C 
ATOM     32  O   UNL     1       0.933  -9.214   2.655  0.00  0.00    -0.248 OA
ATOM     33  O   UNL     1       0.543  -7.332   3.529  0.00  0.00    -0.248 OA
ENDBRANCH   7  31
BRANCH   7  34
ATOM     34  C   UNL     1      -1.728  -7.274   1.664  0.00  0.00    +0.112 C 
ATOM     35  C   UNL     1      -2.521  -8.516   2.077  0.00  0.00    +0.037 C 
BRANCH  34  36
ATOM     36  O   UNL     1      -1.732  -6.328   2.736  0.00  0.00    -0.393 OA
ATOM     37  H   UNL     1      -2.615  -6.030   2.994  0.00  0.00    +0.210 HD
ENDBRANCH  34  36
ENDBRANCH   7  34
TORSDOF 7
