REMARK  Name = ZINC19927178
REMARK  5 active torsions:
REMARK  status: ('A' for Active; 'I' for Inactive)
REMARK    1  A    between atoms: C_3  and  C_6
REMARK    2  A    between atoms: N_7  and  N_8
REMARK    3  A    between atoms: C_9  and  C_11
REMARK    4  A    between atoms: C_12  and  C_22
REMARK    5  A    between atoms: C_22  and  N_23
REMARK                            x       y       z     vdW  Elec       q    Type
REMARK                         _______ _______ _______ _____ _____    ______ ____
ROOT
ATOM      1  C   UNL     1       7.181   2.594  -0.037  0.00  0.00    +0.154 A 
ATOM      2  C   UNL     1       8.223   3.483   0.005  0.00  0.00    +0.079 A 
ATOM      3  N   UNL     1       9.339   2.755  -0.034  0.00  0.00    -0.135 NA
ATOM      4  N   UNL     1       9.037   1.508  -0.096  0.00  0.00    -0.058 NA
ATOM      5  N   UNL     1       7.760   1.350  -0.096  0.00  0.00    -0.183 N 
ATOM      6  C   UNL     1       7.082   0.128  -0.149  0.00  0.00    +0.241 A 
ATOM      7  C   UNL     1       7.701  -1.200  -0.099  0.00  0.00    +0.206 A 
ATOM      8  N   UNL     1       6.756  -2.096  -0.173  0.00  0.00    -0.032 NA
ATOM      9  O   UNL     1       5.518  -1.415  -0.273  0.00  0.00    -0.239 OA
ATOM     10  N   UNL     1       5.791  -0.025  -0.246  0.00  0.00    -0.027 NA
ATOM     11  N   UNL     1       9.062  -1.459   0.010  0.00  0.00    -0.337 N 
ATOM     12  H   UNL     1       9.424  -2.498   0.040  0.00  0.00    +0.144 HD
ATOM     13  H   UNL     1       9.778  -0.626   0.066  0.00  0.00    +0.144 HD
ENDROOT
BRANCH   1  15
ATOM     14  N   UNL     1       5.041   2.777   1.125  0.00  0.00    -0.202 N 
ATOM     15  C   UNL     1       5.743   2.906  -0.018  0.00  0.00    +0.284 C 
ATOM     16  O   UNL     1       5.188   3.280  -1.034  0.00  0.00    -0.267 OA
ATOM     17  H   UNL     1       5.526   2.373   2.026  0.00  0.00    +0.178 HD
BRANCH  14  19
ATOM     18  C   UNL     1       3.016   3.035   2.270  0.00  0.00    +0.176 C 
ATOM     19  N   UNL     1       3.693   3.159   1.166  0.00  0.00    -0.184 NA
BRANCH  18  22
ATOM     20  C   UNL     1      -0.474   3.838   2.990  0.00  0.00    +0.042 A 
ATOM     21  C   UNL     1       0.783   3.358   3.399  0.00  0.00    +0.051 A 
ATOM     22  C   UNL     1       1.606   3.435   2.313  0.00  0.00    +0.147 A 
ATOM     23  O   UNL     1       0.895   3.941   1.286  0.00  0.00    -0.462 OA
ATOM     24  C   UNL     1      -0.361   4.189   1.692  0.00  0.00    +0.196 A 
ENDBRANCH  18  22
ENDBRANCH  14  19
ENDBRANCH   1  15
BRANCH   2  25
ATOM     25  C   UNL     1       8.126   4.985   0.082  0.00  0.00    -0.018 C 
BRANCH  25  26
ATOM     26  N   UNL     1       8.098   5.403   1.490  0.00  0.00    +0.383 N 
ATOM     27  C   UNL     1       6.874   4.934   2.153  0.00  0.00    -0.078 C 
ATOM     28  C   UNL     1       6.946   5.260   3.647  0.00  0.00    -0.019 C 
ATOM     29  C   UNL     1       7.099   6.772   3.828  0.00  0.00    -0.004 C 
ATOM     30  C   UNL     1       8.354   7.242   3.087  0.00  0.00    -0.019 C 
ATOM     31  C   UNL     1       8.242   6.859   1.609  0.00  0.00    -0.078 C 
ATOM     32  H   UNL     1       8.954   4.938   1.999  0.00  0.00    -0.081 HD
ENDBRANCH  25  26
ENDBRANCH   2  25
TORSDOF 5
