REMARK  Name = ZINC43395067
REMARK  5 active torsions:
REMARK  status: ('A' for Active; 'I' for Inactive)
REMARK    1  A    between atoms: C_1  and  C_2
REMARK    2  A    between atoms: C_4  and  C_20
REMARK    3  A    between atoms: C_6  and  C_8
REMARK    4  A    between atoms: C_8  and  C_10
REMARK    5  A    between atoms: C_8  and  N_13
REMARK                            x       y       z     vdW  Elec       q    Type
REMARK                         _______ _______ _______ _____ _____    ______ ____
ROOT
ATOM      1  C   UNL     1       0.054  -2.844   2.489  0.00  0.00    +0.078 C 
ENDROOT
BRANCH   1   7
ATOM      2  C   UNL     1      -0.018   1.503   0.010  0.00  0.00    +0.044 C 
ATOM      3  C   UNL     1       0.002  -0.004   0.002  0.00  0.00    -0.050 A 
ATOM      4  C   UNL     1       0.006  -0.689  -1.199  0.00  0.00    +0.006 A 
ATOM      5  C   UNL     1       0.025  -2.071  -1.206  0.00  0.00    -0.050 A 
ATOM      6  C   UNL     1       0.040  -2.768  -0.013  0.00  0.00    +0.006 A 
ATOM      7  C   UNL     1       0.037  -2.084   1.188  0.00  0.00    -0.050 A 
ATOM      8  C   UNL     1       0.023  -0.702   1.195  0.00  0.00    +0.006 A 
ATOM      9  C   UNL     1       0.027  -2.817  -2.516  0.00  0.00    +0.044 C 
ENDBRANCH   1   7
BRANCH   1  10
ATOM     10  N   UNL     1       0.940  -2.164   3.442  0.00  0.00    +0.391 N 
ATOM     11  C   UNL     1       2.279  -2.034   2.834  0.00  0.00    -0.077 C 
ATOM     12  C   UNL     1       2.982  -0.869   3.484  0.00  0.00    -0.019 C 
ATOM     13  C   UNL     1       3.899  -1.333   4.631  0.00  0.00    -0.002 C 
ATOM     14  C   UNL     1       3.241  -2.443   5.476  0.00  0.00    -0.002 C 
ATOM     15  C   UNL     1       1.779  -2.180   5.731  0.00  0.00    -0.019 C 
ATOM     16  C   UNL     1       0.943  -2.881   4.640  0.00  0.00    -0.077 C 
ATOM     17  H   UNL     1       0.576  -1.240   3.619  0.00  0.00    -0.080 HD
ENDBRANCH   1  10
BRANCH   1  18
ATOM     18  C   UNL     1      -1.342  -2.903   3.054  0.00  0.00    +0.347 C 
ATOM     19  O   UNL     1      -2.081  -3.827   2.759  0.00  0.00    -0.248 OA
ATOM     20  O   UNL     1      -1.732  -2.027   3.807  0.00  0.00    -0.248 OA
ENDBRANCH   1  18
TORSDOF 3
