REMARK  Name = ZINC08713216
REMARK  8 active torsions:
REMARK  status: ('A' for Active; 'I' for Inactive)
REMARK    1  A    between atoms: C_1  and  C_2
REMARK    2  A    between atoms: C_5  and  N_9
REMARK    3  A    between atoms: C_6  and  C_8
REMARK    4  A    between atoms: C_13  and  C_15
REMARK    5  A    between atoms: C_15  and  O_16
REMARK    6  A    between atoms: O_16  and  C_17
REMARK    7  A    between atoms: C_17  and  C_19
REMARK    8  A    between atoms: C_28  and  C_31
REMARK                            x       y       z     vdW  Elec       q    Type
REMARK                         _______ _______ _______ _____ _____    ______ ____
ROOT
ATOM      1  C   UNL     1       5.464   7.518  -1.464  0.00  0.00    +0.328 C 
ENDROOT
BRANCH   1   6
ATOM      2  N   UNL     1       7.732  11.706  -2.115  0.00  0.00    -0.269 N 
ATOM      3  C   UNL     1       6.632  11.037  -1.716  0.00  0.00    +0.310 C 
ATOM      4  O   UNL     1       5.669  11.647  -1.295  0.00  0.00    -0.252 OA
ATOM      5  N   UNL     1       6.600   9.691  -1.785  0.00  0.00    -0.237 N 
ATOM      6  C   UNL     1       5.500   9.022  -1.387  0.00  0.00    +0.258 C 
ATOM      7  O   UNL     1       4.539   9.631  -0.966  0.00  0.00    -0.272 OA
ATOM      8  H   UNL     1       8.529  11.218  -2.374  0.00  0.00    +0.156 HD
ATOM      9  H   UNL     1       7.368   9.204  -2.122  0.00  0.00    +0.159 HD
BRANCH   2  14
ATOM     10  C   UNL     1       7.699  17.377  -2.275  0.00  0.00    +0.044 C 
ATOM     11  C   UNL     1       7.707  15.870  -2.233  0.00  0.00    -0.050 A 
ATOM     12  C   UNL     1       6.519  15.170  -2.336  0.00  0.00    +0.005 A 
ATOM     13  C   UNL     1       6.524  13.790  -2.297  0.00  0.00    +0.024 A 
ATOM     14  C   UNL     1       7.723  13.105  -2.155  0.00  0.00    +0.038 A 
ATOM     15  C   UNL     1       8.914  13.811  -2.047  0.00  0.00    -0.029 A 
ATOM     16  C   UNL     1       8.903  15.191  -2.092  0.00  0.00    +0.008 A 
ATOM     17  C   UNL     1      10.218  13.071  -1.887  0.00  0.00    +0.045 C 
ENDBRANCH   2  14
ENDBRANCH   1   6
BRANCH   1  18
ATOM     18  O   UNL     1       4.181   7.039  -0.981  0.00  0.00    -0.452 OA
BRANCH  18  19
ATOM     19  C   UNL     1       3.985   5.705  -0.983  0.00  0.00    +0.340 C 
ATOM     20  O   UNL     1       4.863   4.963  -1.379  0.00  0.00    -0.245 OA
BRANCH  19  21
ATOM     21  C   UNL     1       2.708   5.147  -0.507  0.00  0.00    +0.061 A 
ATOM     22  C   UNL     1       1.699   6.003  -0.052  0.00  0.00    +0.016 A 
ATOM     23  C   UNL     1       0.505   5.478   0.391  0.00  0.00    +0.017 A 
ATOM     24  C   UNL     1       0.305   4.103   0.386  0.00  0.00    +0.030 A 
ATOM     25  C   UNL     1       1.306   3.236  -0.064  0.00  0.00    +0.048 A 
ATOM     26  C   UNL     1       2.506   3.765  -0.511  0.00  0.00    +0.039 A 
ATOM     27  N   UNL     1       1.123   1.855  -0.072  0.00  0.00    -0.284 N 
ATOM     28  C   UNL     1      -0.043   1.215  -0.068  0.00  0.00    +0.230 C 
ATOM     29  O   UNL     1      -0.030   0.002  -0.085  0.00  0.00    -0.274 OA
ATOM     30  C   UNL     1      -1.376   1.911  -0.048  0.00  0.00    +0.134 C 
ATOM     31  S   UNL     1      -1.226   3.428   0.949  0.00  0.00    -0.111 S 
ATOM     32  C   UNL     1      -1.788   2.270  -1.477  0.00  0.00    +0.029 C 
ATOM     33  H   UNL     1       1.924   1.307  -0.082  0.00  0.00    +0.155 HD
ENDBRANCH  19  21
ENDBRANCH  18  19
ENDBRANCH   1  18
TORSDOF 5
