REMARK  Name = ZINC10536877
REMARK  2 active torsions:
REMARK  status: ('A' for Active; 'I' for Inactive)
REMARK    1  A    between atoms: C_8  and  C_12
REMARK    2  A    between atoms: C_12  and  N_13
REMARK                            x       y       z     vdW  Elec       q    Type
REMARK                         _______ _______ _______ _____ _____    ______ ____
ROOT
ATOM      1  N   UNL     1       1.809  -4.678   1.211  0.00  0.00    -0.218 N 
ATOM      2  C   UNL     1       2.537  -4.970   2.318  0.00  0.00    +0.247 C 
ATOM      3  O   UNL     1       3.731  -5.103   2.347  0.00  0.00    -0.273 OA
ATOM      4  C   UNL     1       1.497  -5.052   3.430  0.00  0.00    +0.113 C 
ATOM      5  C   UNL     1       1.415  -3.674   4.107  0.00  0.00    +0.035 C 
ATOM      6  C   UNL     1       1.987  -3.730   5.530  0.00  0.00    +0.003 C 
ATOM      7  C   UNL     1       3.437  -3.259   5.579  0.00  0.00    +0.000 C 
ATOM      8  C   UNL     1       4.346  -4.385   5.056  0.00  0.00    +0.000 C 
ATOM      9  C   UNL     1       3.887  -5.719   5.643  0.00  0.00    +0.000 C 
ATOM     10  C   UNL     1       3.198  -6.562   4.574  0.00  0.00    +0.003 C 
ATOM     11  C   UNL     1       1.734  -6.197   4.384  0.00  0.00    +0.035 C 
ATOM     12  N   UNL     1       0.243  -5.269   2.680  0.00  0.00    -0.285 N 
ATOM     13  C   UNL     1       0.507  -4.920   1.407  0.00  0.00    +0.310 C 
ATOM     14  O   UNL     1      -0.337  -4.836   0.538  0.00  0.00    -0.252 OA
ATOM     15  H   UNL     1      -0.594  -5.595   3.039  0.00  0.00    +0.151 HD
ENDROOT
BRANCH   1  16
ATOM     16  C   UNL     1       2.384  -4.189  -0.042  0.00  0.00    +0.173 C 
BRANCH  16  24
ATOM     17  C   UNL     1      -0.016   1.359   0.009  0.00  0.00    +0.005 A 
ATOM     18  C   UNL     1       1.194   2.067   0.002  0.00  0.00    +0.018 A 
ATOM     19  C   UNL     1       2.370   1.401  -0.013  0.00  0.00    +0.096 A 
ATOM     20  N   UNL     1       2.400   0.039  -0.021  0.00  0.00    -0.268 N 
ATOM     21  C   UNL     1       1.236  -0.679  -0.013  0.00  0.00    +0.141 A 
ATOM     22  C   UNL     1       0.002  -0.004   0.002  0.00  0.00    +0.047 A 
ATOM     23  N   UNL     1       1.256  -2.011  -0.020  0.00  0.00    -0.232 NA
ATOM     24  C   UNL     1       2.397  -2.682  -0.034  0.00  0.00    +0.067 A 
ATOM     25  C   UNL     1       3.600  -2.003  -0.042  0.00  0.00    +0.095 A 
ATOM     26  C   UNL     1       3.587  -0.603  -0.035  0.00  0.00    +0.259 A 
ATOM     27  O   UNL     1       4.633   0.026  -0.043  0.00  0.00    -0.267 OA
ENDBRANCH  16  24
ENDBRANCH   1  16
TORSDOF 2
