REMARK  Name = ZINC38554284
REMARK  4 active torsions:
REMARK  status: ('A' for Active; 'I' for Inactive)
REMARK    1  A    between atoms: C_1  and  C_2
REMARK    2  A    between atoms: N_15  and  S_18
REMARK    3  A    between atoms: S_18  and  C_21
REMARK    4  A    between atoms: C_26  and  C_27
REMARK                            x       y       z     vdW  Elec       q    Type
REMARK                         _______ _______ _______ _____ _____    ______ ____
ROOT
ATOM      1  C   UNL     1      -0.018   1.503   0.010  0.00  0.00    +0.044 C 
ATOM      2  C   UNL     1       0.002  -0.004   0.002  0.00  0.00    -0.048 A 
ATOM      3  C   UNL     1       0.006  -0.686  -1.206  0.00  0.00    +0.005 A 
ATOM      4  C   UNL     1       0.025  -2.065  -1.230  0.00  0.00    +0.028 A 
ATOM      5  C   UNL     1       0.041  -2.776  -0.040  0.00  0.00    +0.065 A 
ATOM      6  C   UNL     1       0.037  -2.091   1.187  0.00  0.00    +0.066 A 
ATOM      7  C   UNL     1       0.023  -0.694   1.194  0.00  0.00    +0.031 A 
ATOM      8  N   UNL     1       0.055  -3.029   2.169  0.00  0.00    -0.327 N 
ATOM      9  C   UNL     1       0.069  -4.225   1.635  0.00  0.00    +0.174 A 
ATOM     10  N   UNL     1       0.061  -4.125   0.273  0.00  0.00    -0.327 N 
ATOM     11  H   UNL     1       0.068  -4.862  -0.357  0.00  0.00    +0.169 HD
ATOM     12  N   UNL     1       0.089  -5.409   2.343  0.00  0.00    -0.300 N 
ATOM     13  C   UNL     1       0.220  -6.695   1.645  0.00  0.00    +0.125 C 
ATOM     14  C   UNL     1       1.422  -7.448   2.227  0.00  0.00    +0.128 C 
ATOM     15  N   UNL     1       1.313  -7.446   3.692  0.00  0.00    -0.174 NA
ATOM     16  C   UNL     1       1.182  -6.159   4.391  0.00  0.00    +0.128 C 
ATOM     17  C   UNL     1      -0.015  -5.405   3.809  0.00  0.00    +0.125 C 
ATOM     18  H   UNL     1       0.057  -2.842   3.121  0.00  0.00    +0.169 HD
ENDROOT
BRANCH  15  19
ATOM     19  S   UNL     1       1.337  -8.867   4.542  0.00  0.00    +0.061 S 
ATOM     20  O   UNL     1       0.677  -8.614   5.775  0.00  0.00    -0.153 OA
ATOM     21  O   UNL     1       0.913  -9.884   3.645  0.00  0.00    -0.153 OA
BRANCH  19  22
ATOM     22  C   UNL     1       3.020  -9.211   4.934  0.00  0.00    +0.110 A 
ATOM     23  C   UNL     1       3.435  -9.223   6.253  0.00  0.00    +0.029 A 
ATOM     24  C   UNL     1       4.755  -9.493   6.561  0.00  0.00    +0.003 A 
ATOM     25  C   UNL     1       5.662  -9.752   5.550  0.00  0.00    +0.020 A 
ATOM     26  C   UNL     1       5.248  -9.740   4.230  0.00  0.00    +0.046 A 
ATOM     27  C   UNL     1       3.925  -9.476   3.923  0.00  0.00    -0.006 A 
ATOM     28  C   UNL     1       3.471  -9.469   2.485  0.00  0.00    +0.047 C 
ATOM     29 CL   UNL     1       6.386 -10.065   2.960  0.00  0.00    -0.083 Cl
ENDBRANCH  19  22
ENDBRANCH  15  19
TORSDOF 2
