REMARK  Name = ZINC44593563
REMARK  5 active torsions:
REMARK  status: ('A' for Active; 'I' for Inactive)
REMARK    1  A    between atoms: C_1  and  N_2
REMARK    2  A    between atoms: C_3  and  N_7
REMARK    3  A    between atoms: N_7  and  S_8
REMARK    4  A    between atoms: S_8  and  C_11
REMARK    5  A    between atoms: C_14  and  N_18
REMARK                            x       y       z     vdW  Elec       q    Type
REMARK                         _______ _______ _______ _____ _____    ______ ____
ROOT
ATOM      1  S   UNL     1      -0.072  -1.540  -3.582  0.00  0.00    +0.076 S 
ATOM      2  O   UNL     1      -0.034  -0.964  -4.880  0.00  0.00    -0.150 OA
ATOM      3  O   UNL     1       0.902  -2.472  -3.134  0.00  0.00    -0.150 OA
ENDROOT
BRANCH   1   4
ATOM      4  C   UNL     1      -1.637  -2.334  -3.429  0.00  0.00    +0.144 A 
ATOM      5  C   UNL     1      -2.519  -2.331  -4.494  0.00  0.00    +0.033 A 
ATOM      6  C   UNL     1      -3.747  -2.953  -4.378  0.00  0.00    +0.025 A 
ATOM      7  C   UNL     1      -4.097  -3.582  -3.190  0.00  0.00    +0.027 A 
ATOM      8  C   UNL     1      -3.210  -3.585  -2.121  0.00  0.00    +0.063 A 
ATOM      9  C   UNL     1      -1.980  -2.965  -2.245  0.00  0.00    +0.152 A 
ATOM     10  F   UNL     1      -1.113  -2.971  -1.208  0.00  0.00    -0.203 F 
BRANCH   7  11
ATOM     11  N   UNL     1      -5.338  -4.211  -3.070  0.00  0.00    -0.358 N 
ATOM     12  H   UNL     1      -5.957  -4.209  -3.817  0.00  0.00    +0.142 HD
ATOM     13  H   UNL     1      -5.581  -4.651  -2.240  0.00  0.00    +0.142 HD
ENDBRANCH   7  11
ENDBRANCH   1   4
BRANCH   1  14
ATOM     14  N   UNL     1      -0.054  -0.282  -2.505  0.00  0.00    -0.200 N 
ATOM     15  H   UNL     1       0.585  -0.278  -1.775  0.00  0.00    +0.175 HD
BRANCH  14  18
ATOM     16  C   UNL     1      -0.389   2.009  -0.538  0.00  0.00    +0.174 C 
ATOM     17  N   UNL     1      -1.123   1.800  -1.789  0.00  0.00    -0.252 N 
ATOM     18  C   UNL     1      -0.955   0.770  -2.648  0.00  0.00    +0.136 A 
ATOM     19  C   UNL     1      -1.826   0.948  -3.679  0.00  0.00    +0.066 A 
ATOM     20  C   UNL     1      -2.543   2.123  -3.435  0.00  0.00    +0.136 A 
ATOM     21  N   UNL     1      -2.128   2.629  -2.302  0.00  0.00    -0.178 NA
ENDBRANCH  14  18
ENDBRANCH   1  14
TORSDOF 4
