REMARK  Name = ZINC16069212
REMARK  10 active torsions:
REMARK  status: ('A' for Active; 'I' for Inactive)
REMARK    1  A    between atoms: C_1  and  C_2
REMARK    2  A    between atoms: C_5  and  O_22
REMARK    3  A    between atoms: C_6  and  N_8
REMARK    4  A    between atoms: C_9  and  C_11
REMARK    5  A    between atoms: C_11  and  C_13
REMARK    6  A    between atoms: C_11  and  S_14
REMARK    7  A    between atoms: S_14  and  C_15
REMARK    8  A    between atoms: C_18  and  C_21
REMARK    9  A    between atoms: N_19  and  N_20
REMARK   10  A    between atoms: O_22  and  C_23
REMARK                            x       y       z     vdW  Elec       q    Type
REMARK                         _______ _______ _______ _____ _____    ______ ____
ROOT
ATOM      1  N   UNL     1      -2.418  -0.038   0.037  0.00  0.00    -0.282 N 
ATOM      2  C   UNL     1      -3.573  -0.727  -0.052  0.00  0.00    +0.230 C 
ATOM      3  O   UNL     1      -3.557  -1.940  -0.059  0.00  0.00    -0.274 OA
ATOM      4  H   UNL     1      -2.435   0.928   0.123  0.00  0.00    +0.155 HD
ENDROOT
BRANCH   1  10
ATOM      5  C   UNL     1       0.203  -3.978  -1.300  0.00  0.00    +0.044 C 
ATOM      6  C   UNL     1       0.106  -2.628  -0.636  0.00  0.00    -0.048 A 
ATOM      7  C   UNL     1       1.227  -2.064  -0.055  0.00  0.00    +0.007 A 
ATOM      8  C   UNL     1       1.145  -0.826   0.555  0.00  0.00    +0.048 A 
ATOM      9  C   UNL     1      -0.063  -0.147   0.585  0.00  0.00    +0.141 A 
ATOM     10  C   UNL     1      -1.193  -0.718   0.004  0.00  0.00    +0.076 A 
ATOM     11  C   UNL     1      -1.102  -1.958  -0.611  0.00  0.00    +0.030 A 
BRANCH   9  12
ATOM     12  O   UNL     1      -0.145   1.070   1.185  0.00  0.00    -0.493 OA
ATOM     13  C   UNL     1       1.052   1.590   1.765  0.00  0.00    +0.277 C 
ENDBRANCH   9  12
ENDBRANCH   1  10
BRANCH   2  14
ATOM     14  C   UNL     1      -4.885   0.010  -0.143  0.00  0.00    +0.137 C 
ATOM     15  C   UNL     1      -5.163   0.378  -1.602  0.00  0.00    +0.029 C 
BRANCH  14  16
ATOM     16  S   UNL     1      -6.216  -1.049   0.476  0.00  0.00    -0.072 S 
BRANCH  16  17
ATOM     17  C   UNL     1      -7.566   0.081   0.400  0.00  0.00    +0.209 A 
ATOM     18  N   UNL     1      -7.519   1.327  -0.008  0.00  0.00    -0.121 NA
ATOM     19  N   UNL     1      -8.687   1.857   0.070  0.00  0.00    -0.132 NA
ATOM     20  C   UNL     1      -9.543   0.988   0.528  0.00  0.00    +0.148 A 
ATOM     21  N   UNL     1      -8.861  -0.177   0.750  0.00  0.00    -0.228 N 
ATOM     22  C   UNL     1     -11.013   1.220   0.765  0.00  0.00    +0.090 C 
BRANCH  21  23
ATOM     23  N   UNL     1      -9.368  -1.353   1.226  0.00  0.00    -0.295 N 
ATOM     24  H   UNL     1      -9.320  -1.386   2.233  0.00  0.00    +0.163 HD
ATOM     25  H   UNL     1     -10.314  -1.494   0.904  0.00  0.00    +0.163 HD
ENDBRANCH  21  23
ENDBRANCH  16  17
ENDBRANCH  14  16
ENDBRANCH   2  14
TORSDOF 6
