REMARK  Name = ZINC31625139
REMARK  3 active torsions:
REMARK  status: ('A' for Active; 'I' for Inactive)
REMARK    1  A    between atoms: C_1  and  C_2
REMARK    2  A    between atoms: C_9  and  C_13
REMARK    3  A    between atoms: C_13  and  N_14
REMARK                            x       y       z     vdW  Elec       q    Type
REMARK                         _______ _______ _______ _____ _____    ______ ____
ROOT
ATOM      1  C   UNL     1       0.207   3.159   7.007  0.00  0.00    +0.173 C 
ENDROOT
BRANCH   1   2
ATOM      2  N   UNL     1       0.763   1.892   7.487  0.00  0.00    -0.218 N 
ATOM      3  C   UNL     1       0.142   1.073   8.361  0.00  0.00    +0.247 C 
ATOM      4  O   UNL     1      -0.941   1.240   8.879  0.00  0.00    -0.273 OA
ATOM      5  C   UNL     1       1.080  -0.095   8.557  0.00  0.00    +0.113 C 
ATOM      6  C   UNL     1       1.510  -0.190  10.017  0.00  0.00    +0.035 C 
ATOM      7  C   UNL     1       2.487  -1.355  10.188  0.00  0.00    +0.003 C 
ATOM      8  C   UNL     1       1.810  -2.656   9.753  0.00  0.00    +0.000 C 
ATOM      9  C   UNL     1       1.404  -2.554   8.281  0.00  0.00    +0.003 C 
ATOM     10  C   UNL     1       0.422  -1.393   8.103  0.00  0.00    +0.035 C 
ATOM     11  N   UNL     1       2.231   0.224   7.702  0.00  0.00    -0.285 N 
ATOM     12  C   UNL     1       1.954   1.405   7.116  0.00  0.00    +0.310 C 
ATOM     13  O   UNL     1       2.701   1.965   6.339  0.00  0.00    -0.252 OA
ATOM     14  H   UNL     1       3.086  -0.466   7.650  0.00  0.00    +0.151 HD
ENDBRANCH   1   2
BRANCH   1  23
ATOM     15  C   UNL     1      -0.013   1.086   0.008  0.00  0.00    +0.044 C 
ATOM     16  C   UNL     1      -0.718   1.572   1.248  0.00  0.00    -0.046 A 
ATOM     17  C   UNL     1      -2.102   1.794   1.231  0.00  0.00    +0.021 A 
ATOM     18  C   UNL     1      -2.734   2.226   2.345  0.00  0.00    +0.096 A 
ATOM     19  N   UNL     1      -2.040   2.460   3.493  0.00  0.00    -0.268 N 
ATOM     20  C   UNL     1      -0.689   2.258   3.539  0.00  0.00    +0.141 A 
ATOM     21  C   UNL     1      -0.014   1.804   2.391  0.00  0.00    +0.050 A 
ATOM     22  N   UNL     1      -0.002   2.485   4.657  0.00  0.00    -0.232 NA
ATOM     23  C   UNL     1      -0.601   2.912   5.758  0.00  0.00    +0.067 A 
ATOM     24  C   UNL     1      -1.964   3.132   5.764  0.00  0.00    +0.095 A 
ATOM     25  C   UNL     1      -2.693   2.896   4.592  0.00  0.00    +0.259 A 
ATOM     26  O   UNL     1      -3.899   3.079   4.564  0.00  0.00    -0.267 OA
ENDBRANCH   1  23
TORSDOF 2
