REMARK  Name = ZINC37774524
REMARK  6 active torsions:
REMARK  status: ('A' for Active; 'I' for Inactive)
REMARK    1  A    between atoms: C_1  and  C_2
REMARK    2  A    between atoms: C_2  and  C_3
REMARK    3  A    between atoms: C_3  and  N_4
REMARK    4  A    between atoms: C_6  and  N_11
REMARK    5  A    between atoms: N_11  and  C_12
REMARK    6  A    between atoms: C_20  and  O_22
REMARK                            x       y       z     vdW  Elec       q    Type
REMARK                         _______ _______ _______ _____ _____    ______ ____
ROOT
ATOM      1  N   UNL     1      -1.389  -4.699  -2.442  0.00  0.00    -0.333 N 
ATOM      2  H   UNL     1      -1.400  -4.196  -3.271  0.00  0.00    +0.147 HD
ENDROOT
BRANCH   1   3
ATOM      3  C   UNL     1      -1.369  -6.163  -2.472  0.00  0.00    +0.142 C 
ATOM      4  C   UNL     1      -2.806  -6.736  -2.462  0.00  0.00    +0.256 C 
ATOM      5  O   UNL     1      -2.698  -7.884  -3.320  0.00  0.00    -0.489 OA
ATOM      6  C   UNL     1      -1.698  -7.679  -4.221  0.00  0.00    +0.129 A 
ATOM      7  C   UNL     1      -0.839  -6.670  -3.800  0.00  0.00    +0.018 A 
ATOM      8  C   UNL     1       0.253  -6.308  -4.557  0.00  0.00    +0.013 A 
ATOM      9  C   UNL     1       0.504  -6.945  -5.759  0.00  0.00    +0.046 A 
ATOM     10  C   UNL     1      -0.349  -7.948  -6.197  0.00  0.00    +0.120 A 
ATOM     11  C   UNL     1      -1.446  -8.315  -5.433  0.00  0.00    +0.091 A 
BRANCH  10  12
ATOM     12  O   UNL     1      -0.108  -8.574  -7.379  0.00  0.00    -0.507 OA
ATOM     13  H   UNL     1       0.455  -9.356  -7.302  0.00  0.00    +0.292 HD
ENDBRANCH  10  12
ENDBRANCH   1   3
BRANCH   1  16
ATOM     14  N   UNL     1      -1.413  -1.998   0.005  0.00  0.00    -0.313 N 
ATOM     15  C   UNL     1      -1.410  -2.664  -1.182  0.00  0.00    +0.112 A 
ATOM     16  C   UNL     1      -1.392  -4.023  -1.212  0.00  0.00    +0.044 A 
ATOM     17  C   UNL     1      -1.376  -4.749  -0.008  0.00  0.00    +0.030 A 
ATOM     18  C   UNL     1      -1.380  -4.075   1.177  0.00  0.00    +0.072 A 
ATOM     19  C   UNL     1      -1.393  -2.670   1.172  0.00  0.00    +0.251 A 
ATOM     20  O   UNL     1      -1.391  -2.057   2.228  0.00  0.00    -0.268 OA
BRANCH  14  21
ATOM     21  C   UNL     1      -1.433  -0.534   0.013  0.00  0.00    +0.124 C 
BRANCH  21  23
ATOM     22  C   UNL     1      -0.019   1.526   0.010  0.00  0.00    +0.005 C 
ATOM     23  C   UNL     1       0.002  -0.004   0.002  0.00  0.00    +0.018 C 
ENDBRANCH  21  23
ENDBRANCH  14  21
ENDBRANCH   1  16
TORSDOF 5
