REMARK  Name = ZINC37299687
REMARK  5 active torsions:
REMARK  status: ('A' for Active; 'I' for Inactive)
REMARK    1  A    between atoms: C_1  and  C_2
REMARK    2  A    between atoms: C_2  and  C_4
REMARK    3  A    between atoms: C_2  and  N_13
REMARK    4  A    between atoms: N_13  and  C_14
REMARK    5  A    between atoms: C_17  and  N_20
REMARK                            x       y       z     vdW  Elec       q    Type
REMARK                         _______ _______ _______ _____ _____    ______ ____
ROOT
ATOM      1  C   UNL     1      -0.019   1.526   0.010  0.00  0.00    +0.033 C 
ATOM      2  C   UNL     1       0.002  -0.004   0.002  0.00  0.00    +0.098 C 
ENDROOT
BRANCH   2   3
ATOM      3  C   UNL     1       0.731  -0.503   1.223  0.00  0.00    -0.027 A 
ATOM      4  C   UNL     1       2.114  -0.515   1.249  0.00  0.00    +0.009 A 
ATOM      5  C   UNL     1       2.785  -0.967   2.366  0.00  0.00    +0.046 A 
ATOM      6  C   UNL     1       2.076  -1.416   3.477  0.00  0.00    +0.124 A 
ATOM      7  C   UNL     1       0.688  -1.407   3.436  0.00  0.00    -0.002 A 
ATOM      8  C   UNL     1       0.019  -0.946   2.324  0.00  0.00    +0.012 A 
ATOM      9  C   UNL     1       0.201  -1.966   4.758  0.00  0.00    +0.080 C 
ATOM     10  C   UNL     1       1.482  -2.627   5.318  0.00  0.00    +0.234 C 
ATOM     11  O   UNL     1       2.531  -1.886   4.671  0.00  0.00    -0.491 OA
ENDBRANCH   2   3
BRANCH   2  12
ATOM     12  N   UNL     1       0.688  -0.476  -1.203  0.00  0.00    -0.337 N 
ATOM     13  H   UNL     1       1.632  -0.695  -1.170  0.00  0.00    +0.147 HD
BRANCH  12  14
ATOM     14  C   UNL     1      -0.019  -0.613  -2.401  0.00  0.00    +0.028 A 
ATOM     15  C   UNL     1      -1.370  -0.296  -2.451  0.00  0.00    +0.025 A 
ATOM     16  C   UNL     1      -2.065  -0.431  -3.637  0.00  0.00    +0.034 A 
ATOM     17  C   UNL     1      -1.418  -0.882  -4.772  0.00  0.00    +0.126 A 
ATOM     18  C   UNL     1      -0.072  -1.199  -4.725  0.00  0.00    +0.034 A 
ATOM     19  C   UNL     1       0.630  -1.061  -3.544  0.00  0.00    +0.025 A 
BRANCH  17  20
ATOM     20  N   UNL     1      -2.166  -1.027  -6.041  0.00  0.00    +0.056 N 
ATOM     21  O   UNL     1      -3.342  -0.750  -6.084  0.00  0.00    -0.126 OA
ATOM     22  O   UNL     1      -1.601  -1.421  -7.035  0.00  0.00    -0.126 OA
ENDBRANCH  17  20
ENDBRANCH  12  14
ENDBRANCH   2  12
TORSDOF 4
