REMARK  Name = ZINC13005279
REMARK  4 active torsions:
REMARK  status: ('A' for Active; 'I' for Inactive)
REMARK    1  A    between atoms: C_1  and  C_2
REMARK    2  A    between atoms: C_4  and  C_23
REMARK    3  A    between atoms: N_8  and  N_9
REMARK    4  A    between atoms: C_10  and  C_12
REMARK                            x       y       z     vdW  Elec       q    Type
REMARK                         _______ _______ _______ _____ _____    ______ ____
ROOT
ATOM      1  N   UNL     1       0.529  -4.608   3.973  0.00  0.00    -0.230 N 
ATOM      2  C   UNL     1       0.625  -3.334   4.401  0.00  0.00    +0.267 C 
ATOM      3  O   UNL     1       0.784  -3.100   5.585  0.00  0.00    -0.268 OA
ATOM      4  H   UNL     1       0.402  -4.795   3.030  0.00  0.00    +0.173 HD
ENDROOT
BRANCH   2   5
ATOM      5  C   UNL     1       0.537  -2.229   3.441  0.00  0.00    +0.076 A 
ATOM      6  C   UNL     1       0.609  -0.872   3.666  0.00  0.00    +0.024 A 
ATOM      7  C   UNL     1       0.516  -0.014   2.567  0.00  0.00    -0.036 A 
ATOM      8  C   UNL     1       0.277  -0.578   1.368  0.00  0.00    -0.006 A 
ATOM      9  S   UNL     1       0.307  -2.288   1.675  0.00  0.00    -0.088 S 
ATOM     10  C   UNL     1       0.002  -0.004   0.002  0.00  0.00    +0.043 C 
ATOM     11  C   UNL     1      -0.019   1.525   0.010  0.00  0.00    +0.005 C 
ATOM     12  C   UNL     1       1.394   2.086   0.000  0.00  0.00    +0.000 C 
ATOM     13  C   UNL     1       2.356   1.274   0.843  0.00  0.00    +0.000 C 
ATOM     14  C   UNL     1       2.214   1.768   2.287  0.00  0.00    +0.005 C 
ATOM     15  C   UNL     1       0.797   1.468   2.775  0.00  0.00    +0.036 C 
ENDBRANCH   2   5
BRANCH   1  23
ATOM     16  C   UNL     1       0.046  -8.709   1.236  0.00  0.00    +0.066 C 
ATOM     17  C   UNL     1       0.243  -8.448   2.707  0.00  0.00    +0.044 A 
ATOM     18  C   UNL     1       0.324  -9.504   3.601  0.00  0.00    +0.046 A 
ATOM     19  C   UNL     1       0.506  -9.220   4.946  0.00  0.00    +0.044 A 
ATOM     20  N   UNL     1       0.597  -7.958   5.333  0.00  0.00    -0.219 NA
ATOM     21  C   UNL     1       0.515  -6.972   4.451  0.00  0.00    +0.232 A 
ATOM     22  N   UNL     1       0.336  -7.209   3.160  0.00  0.00    -0.219 NA
ATOM     23  N   UNL     1       0.613  -5.663   4.891  0.00  0.00    -0.232 N 
ATOM     24  C   UNL     1       0.601 -10.335   5.955  0.00  0.00    +0.066 C 
ATOM     25  H   UNL     1       0.740  -5.477   5.834  0.00  0.00    +0.173 HD
ENDBRANCH   1  23
TORSDOF 2
