REMARK  Name = ZINC10468025
REMARK  8 active torsions:
REMARK  status: ('A' for Active; 'I' for Inactive)
REMARK    1  A    between atoms: C_1  and  C_2
REMARK    2  A    between atoms: C_2  and  O_3
REMARK    3  A    between atoms: O_3  and  C_4
REMARK    4  A    between atoms: C_9  and  N_10
REMARK    5  A    between atoms: C_11  and  C_13
REMARK    6  A    between atoms: C_17  and  N_19
REMARK    7  A    between atoms: C_20  and  C_22
REMARK    8  A    between atoms: C_24  and  C_27
REMARK                            x       y       z     vdW  Elec       q    Type
REMARK                         _______ _______ _______ _____ _____    ______ ____
ROOT
ATOM      1  N   UNL     1       2.349   3.901   0.004  0.00  0.00    -0.277 N 
ATOM      2  C   UNL     1       2.382   5.153   0.502  0.00  0.00    +0.267 C 
ATOM      3  O   UNL     1       1.396   5.621   1.036  0.00  0.00    -0.268 OA
ATOM      4  H   UNL     1       3.157   3.498  -0.350  0.00  0.00    +0.155 HD
ENDROOT
BRANCH   1  10
ATOM      5  C   UNL     1       1.171   1.789  -0.011  0.00  0.00    +0.142 A 
ATOM      6  C   UNL     1      -0.022   1.084  -0.014  0.00  0.00    +0.055 A 
ATOM      7  C   UNL     1      -1.223   1.761  -0.013  0.00  0.00    +0.001 A 
ATOM      8  C   UNL     1      -1.260   3.150  -0.007  0.00  0.00    +0.126 A 
ATOM      9  C   UNL     1      -0.062   3.857  -0.002  0.00  0.00    +0.073 A 
ATOM     10  C   UNL     1       1.147   3.182  -0.003  0.00  0.00    +0.079 A 
ATOM     11  O   UNL     1      -2.543   3.608  -0.018  0.00  0.00    -0.488 OA
ATOM     12  C   UNL     1      -3.424   2.560   0.420  0.00  0.00    +0.175 C 
ATOM     13  C   UNL     1      -2.661   1.278   0.012  0.00  0.00    +0.083 C 
ATOM     14  C   UNL     1      -3.619   2.615   1.937  0.00  0.00    +0.052 C 
BRANCH   5  15
ATOM     15  O   UNL     1       2.358   1.125  -0.016  0.00  0.00    -0.490 OA
BRANCH  15  17
ATOM     16  C   UNL     1       3.725  -0.869  -0.029  0.00  0.00    +0.048 C 
ATOM     17  C   UNL     1       2.303  -0.303  -0.024  0.00  0.00    +0.226 C 
ENDBRANCH  15  17
ENDBRANCH   5  15
ENDBRANCH   1  10
BRANCH   2  18
ATOM     18  C   UNL     1       3.621   5.958   0.398  0.00  0.00    +0.128 A 
ATOM     19  C   UNL     1       3.648   7.251   0.915  0.00  0.00    +0.033 A 
ATOM     20  C   UNL     1       4.813   7.996   0.812  0.00  0.00    +0.006 A 
ATOM     21  C   UNL     1       5.913   7.425   0.197  0.00  0.00    +0.044 A 
ATOM     22  C   UNL     1       5.818   6.126  -0.299  0.00  0.00    +0.126 A 
ATOM     23  N   UNL     1       4.697   5.439  -0.182  0.00  0.00    -0.227 NA
BRANCH  22  24
ATOM     24  N   UNL     1       6.921   5.543  -0.920  0.00  0.00    -0.271 N 
ATOM     25  C   UNL     1       6.809   4.328  -1.492  0.00  0.00    +0.215 C 
ATOM     26  O   UNL     1       5.776   3.702  -1.387  0.00  0.00    -0.276 OA
ATOM     27  C   UNL     1       7.968   3.747  -2.261  0.00  0.00    +0.109 C 
ATOM     28  H   UNL     1       7.770   6.012  -0.941  0.00  0.00    +0.156 HD
ENDBRANCH  22  24
ENDBRANCH   2  18
TORSDOF 5
