REMARK  Name = ZINC04177819
REMARK  13 active torsions:
REMARK  status: ('A' for Active; 'I' for Inactive)
REMARK    1  A    between atoms: C_1  and  C_2
REMARK    2  A    between atoms: C_2  and  N_3
REMARK    3  A    between atoms: N_3  and  C_4
REMARK    4  A    between atoms: N_3  and  S_6
REMARK    5  A    between atoms: C_4  and  C_5
REMARK    6  A    between atoms: S_6  and  C_9
REMARK    7  A    between atoms: C_12  and  C_15
REMARK    8  A    between atoms: N_17  and  C_18
REMARK    9  A    between atoms: C_19  and  C_30
REMARK   10  A    between atoms: C_23  and  C_28
REMARK   11  A    between atoms: C_23  and  C_29
REMARK   12  A    between atoms: C_24  and  C_26
REMARK   13  A    between atoms: C_24  and  C_27
REMARK                            x       y       z     vdW  Elec       q    Type
REMARK                         _______ _______ _______ _____ _____    ______ ____
ROOT
ATOM      1  C   UNL     1       2.413   0.244  -0.025  0.00  0.00    +0.085 A 
ATOM      2  C   UNL     1       1.315  -0.611  -0.020  0.00  0.00    +0.068 A 
ATOM      3  C   UNL     1       0.002  -0.004   0.002  0.00  0.00    -0.026 A 
ATOM      4  C   UNL     1      -0.016   1.349   0.009  0.00  0.00    -0.016 A 
ATOM      5  S   UNL     1       1.690   1.818  -0.004  0.00  0.00    -0.079 S 
ATOM      6  C   UNL     1      -1.228   2.222   0.018  0.00  0.00    -0.041 C 
ATOM      7  C   UNL     1      -2.328   0.118   0.795  0.00  0.00    -0.069 C 
ATOM      8  C   UNL     1      -1.327  -0.748   0.023  0.00  0.00    +0.024 C 
ATOM      9  C   UNL     1      -3.703  -0.572   0.722  0.00  0.00    -0.010 C 
ATOM     10  C   UNL     1      -1.912   0.180   2.268  0.00  0.00    -0.010 C 
ATOM     11  C   UNL     1      -1.076   3.292   1.109  0.00  0.00    -0.005 C 
ATOM     12  C   UNL     1      -1.319   2.940  -1.342  0.00  0.00    -0.005 C 
ATOM     13  N   UNL     1      -2.504   1.475   0.217  0.00  0.00    +0.389 N 
ATOM     14  H   UNL     1      -2.966   1.380  -0.695  0.00  0.00    -0.084 HD
ATOM     15  H   UNL     1      -3.102   2.020   0.849  0.00  0.00    -0.084 HD
ENDROOT
BRANCH   2  16
ATOM     16  C   UNL     1       1.496  -2.066  -0.039  0.00  0.00    +0.244 C 
ATOM     17  O   UNL     1       1.559  -2.658  -1.100  0.00  0.00    -0.270 OA
ATOM     18  N   UNL     1       1.593  -2.748   1.120  0.00  0.00    -0.325 N 
ATOM     19  H   UNL     1       1.543  -2.276   1.966  0.00  0.00    +0.145 HD
ATOM     20  H   UNL     1       1.712  -3.710   1.108  0.00  0.00    +0.145 HD
ENDBRANCH   2  16
BRANCH   1  23
ATOM     21  C   UNL     1       4.691   0.886  -0.046  0.00  0.00    +0.249 C 
ATOM     22  O   UNL     1       4.352   2.054  -0.031  0.00  0.00    -0.270 OA
ATOM     23  N   UNL     1       3.758  -0.087  -0.043  0.00  0.00    -0.275 N 
ATOM     24  H   UNL     1       4.029  -1.018  -0.055  0.00  0.00    +0.156 HD
BRANCH  21  28
ATOM     25  C   UNL     1       8.815  -0.126  -0.101  0.00  0.00    +0.106 A 
ATOM     26  C   UNL     1       8.433   1.203  -0.085  0.00  0.00    +0.029 A 
ATOM     27  C   UNL     1       7.095   1.539  -0.067  0.00  0.00    +0.015 A 
ATOM     28  C   UNL     1       6.126   0.534  -0.065  0.00  0.00    +0.037 A 
ATOM     29  C   UNL     1       6.519  -0.806  -0.076  0.00  0.00    +0.015 A 
ATOM     30  C   UNL     1       7.860  -1.127  -0.099  0.00  0.00    +0.029 A 
BRANCH  25  31
ATOM     31  S   UNL     1      10.526  -0.546  -0.123  0.00  0.00    +0.061 S 
ATOM     32  O   UNL     1      10.618  -1.848  -0.686  0.00  0.00    -0.153 OA
ATOM     33  O   UNL     1      11.212   0.571  -0.672  0.00  0.00    -0.153 OA
BRANCH  31  34
ATOM     34  N   UNL     1      11.020  -0.676   1.452  0.00  0.00    -0.177 NA
BRANCH  34  36
ATOM     35  C   UNL     1      12.281  -2.686   2.043  0.00  0.00    +0.022 C 
ATOM     36  C   UNL     1      10.935  -1.966   2.142  0.00  0.00    +0.106 C 
ENDBRANCH  34  36
BRANCH  34  37
ATOM     37  C   UNL     1      11.540   0.498   2.156  0.00  0.00    +0.106 C 
ATOM     38  C   UNL     1      10.411   1.161   2.947  0.00  0.00    +0.022 C 
ENDBRANCH  34  37
ENDBRANCH  31  34
ENDBRANCH  25  31
ENDBRANCH  21  28
ENDBRANCH   1  23
TORSDOF 7
