REMARK  Name = ZINC64517045
REMARK  6 active torsions:
REMARK  status: ('A' for Active; 'I' for Inactive)
REMARK    1  A    between atoms: C_1  and  C_2
REMARK    2  A    between atoms: C_2  and  C_3
REMARK    3  A    between atoms: C_3  and  C_4
REMARK    4  A    between atoms: C_6  and  C_10
REMARK    5  A    between atoms: N_15  and  S_16
REMARK    6  A    between atoms: S_16  and  C_19
REMARK                            x       y       z     vdW  Elec       q    Type
REMARK                         _______ _______ _______ _____ _____    ______ ____
ROOT
ATOM      1  C   UNL     1       0.961  -4.814  -0.371  0.00  0.00    +0.104 C 
ATOM      2  C   UNL     1       2.099  -4.742  -1.410  0.00  0.00    +0.024 C 
ATOM      3  C   UNL     1       1.957  -6.084  -2.175  0.00  0.00    +0.019 C 
ATOM      4  C   UNL     1       1.515  -7.043  -1.042  0.00  0.00    +0.110 C 
ATOM      5  N   UNL     1       0.622  -6.233  -0.188  0.00  0.00    -0.170 NA
ENDROOT
BRANCH   1   8
ATOM      6  C   UNL     1       3.691  -4.366   1.303  0.00  0.00    +0.123 C 
ATOM      7  C   UNL     1       2.575  -5.023   1.536  0.00  0.00    +0.040 C 
ATOM      8  C   UNL     1       1.429  -4.216   0.957  0.00  0.00    +0.137 C 
ATOM      9  N   UNL     1       2.045  -2.879   0.749  0.00  0.00    -0.147 NA
ATOM     10  O   UNL     1       3.476  -3.208   0.635  0.00  0.00    -0.411 OA
ATOM     11  H   UNL     1       1.878  -2.277   1.542  0.00  0.00    +0.168 HD
BRANCH   6  12
ATOM     12  C   UNL     1       5.053  -4.844   1.737  0.00  0.00    +0.076 C 
BRANCH  12  14
ATOM     13  C   UNL     1       7.103  -6.083   1.024  0.00  0.00    +0.004 C 
ATOM     14  C   UNL     1       5.720  -5.597   0.584  0.00  0.00    +0.004 C 
ENDBRANCH  12  14
ENDBRANCH   6  12
ENDBRANCH   1   8
BRANCH   5  15
ATOM     15  S   UNL     1      -0.561  -6.822   0.810  0.00  0.00    +0.080 S 
ATOM     16  O   UNL     1      -0.136  -8.112   1.227  0.00  0.00    -0.151 OA
ATOM     17  O   UNL     1      -0.867  -5.785   1.732  0.00  0.00    -0.151 OA
BRANCH  15  18
ATOM     18  C   UNL     1      -2.002  -7.061  -0.175  0.00  0.00    +0.211 A 
ATOM     19  H   UNL     1      -4.013  -8.563  -2.029  0.00  0.00    +0.166 HD
ATOM     20  C   UNL     1      -2.330  -8.186  -0.839  0.00  0.00    +0.133 A 
ATOM     21  N   UNL     1      -3.519  -7.942  -1.470  0.00  0.00    -0.349 N 
ATOM     22  C   UNL     1      -3.878  -6.675  -1.170  0.00  0.00    +0.198 A 
ATOM     23  N   UNL     1      -2.969  -6.156  -0.391  0.00  0.00    -0.217 NA
ENDBRANCH  15  18
ENDBRANCH   5  15
TORSDOF 5
