REMARK  Name = ZINC06601033
REMARK  16 active torsions:
REMARK  status: ('A' for Active; 'I' for Inactive)
REMARK    1  A    between atoms: C_1  and  C_2
REMARK    2  A    between atoms: C_2  and  O_3
REMARK    3  A    between atoms: O_3  and  C_4
REMARK    4  A    between atoms: C_7  and  N_10
REMARK    5  A    between atoms: N_10  and  C_11
REMARK    6  A    between atoms: C_11  and  C_13
REMARK    7  A    between atoms: C_11  and  C_20
REMARK    8  A    between atoms: C_16  and  C_19
REMARK    9  A    between atoms: N_22  and  C_23
REMARK   10  A    between atoms: C_23  and  C_24
REMARK   11  A    between atoms: C_24  and  C_25
REMARK   12  A    between atoms: C_25  and  C_26
REMARK   13  A    between atoms: C_25  and  C_27
REMARK   14  A    between atoms: C_28  and  C_30
REMARK   15  A    between atoms: C_31  and  N_38
REMARK   16  A    between atoms: C_32  and  C_35
REMARK                            x       y       z     vdW  Elec       q    Type
REMARK                         _______ _______ _______ _____ _____    ______ ____
ROOT
ATOM      1  N   UNL     1      -1.837   3.537   0.717  0.00  0.00    -0.251 N 
ATOM      2  C   UNL     1      -2.275   3.279   1.965  0.00  0.00    +0.262 C 
ATOM      3  O   UNL     1      -1.969   4.018   2.882  0.00  0.00    -0.269 OA
ENDROOT
BRANCH   1   7
ATOM      4  C   UNL     1       0.876   6.634   0.059  0.00  0.00    +0.121 A 
ATOM      5  C   UNL     1       0.536   6.274   1.355  0.00  0.00    +0.047 A 
ATOM      6  C   UNL     1      -0.362   5.248   1.573  0.00  0.00    +0.027 A 
ATOM      7  C   UNL     1      -0.925   4.577   0.496  0.00  0.00    +0.038 A 
ATOM      8  C   UNL     1      -0.581   4.935  -0.801  0.00  0.00    +0.027 A 
ATOM      9  C   UNL     1       0.314   5.965  -1.018  0.00  0.00    +0.047 A 
BRANCH   4  10
ATOM     10  O   UNL     1       1.761   7.644  -0.155  0.00  0.00    -0.492 OA
BRANCH  10  12
ATOM     11  C   UNL     1       3.070   9.115  -1.556  0.00  0.00    +0.048 C 
ATOM     12  C   UNL     1       2.065   7.963  -1.515  0.00  0.00    +0.225 C 
ENDBRANCH  10  12
ENDBRANCH   4  10
ENDBRANCH   1   7
BRANCH   2  13
ATOM     13  C   UNL     1      -3.118   2.109   2.217  0.00  0.00    +0.116 A 
ATOM     14  C   UNL     1      -4.226   1.981   3.057  0.00  0.00    +0.076 A 
ATOM     15  C   UNL     1      -4.773   0.698   3.028  0.00  0.00    +0.155 A 
ATOM     16  N   UNL     1      -4.222  -0.219   2.264  0.00  0.00    -0.203 NA
ATOM     17  S   UNL     1      -3.001   0.466   1.540  0.00  0.00    +0.019 S 
BRANCH  15  18
ATOM     18  C   UNL     1      -5.954   0.373   3.849  0.00  0.00    +0.262 C 
ATOM     19  O   UNL     1      -6.458   1.226   4.553  0.00  0.00    -0.269 OA
ATOM     20  N   UNL     1      -6.474  -0.870   3.819  0.00  0.00    -0.324 N 
ATOM     21  H   UNL     1      -6.071  -1.551   3.257  0.00  0.00    +0.145 HD
ATOM     22  H   UNL     1      -7.250  -1.084   4.359  0.00  0.00    +0.145 HD
ENDBRANCH  15  18
BRANCH  14  23
ATOM     23  N   UNL     1      -4.729   3.017   3.833  0.00  0.00    -0.355 N 
ATOM     24  H   UNL     1      -4.306   3.889   3.810  0.00  0.00    +0.142 HD
ATOM     25  H   UNL     1      -5.503   2.867   4.399  0.00  0.00    +0.142 HD
ENDBRANCH  14  23
ENDBRANCH   2  13
BRANCH   1  26
ATOM     26  C   UNL     1      -2.313   2.730  -0.409  0.00  0.00    +0.197 C 
BRANCH  26  27
ATOM     27  C   UNL     1      -1.143   2.045  -1.067  0.00  0.00    -0.018 A 
ATOM     28  C   UNL     1       0.139   2.269  -0.603  0.00  0.00    +0.006 A 
ATOM     29  C   UNL     1       1.213   1.647  -1.211  0.00  0.00    +0.004 A 
ATOM     30  C   UNL     1       1.005   0.800  -2.284  0.00  0.00    -0.050 A 
ATOM     31  C   UNL     1      -0.278   0.575  -2.748  0.00  0.00    +0.004 A 
ATOM     32  C   UNL     1      -1.352   1.198  -2.140  0.00  0.00    +0.006 A 
ATOM     33  C   UNL     1       2.175   0.121  -2.947  0.00  0.00    +0.044 C 
ENDBRANCH  26  27
BRANCH  26  34
ATOM     34  C   UNL     1      -3.002   3.621  -1.410  0.00  0.00    +0.238 C 
ATOM     35  O   UNL     1      -3.087   4.813  -1.204  0.00  0.00    -0.273 OA
ATOM     36  N   UNL     1      -3.525   3.093  -2.535  0.00  0.00    -0.313 N 
ATOM     37  H   UNL     1      -3.457   2.139  -2.700  0.00  0.00    +0.149 HD
BRANCH  36  38
ATOM     38  C   UNL     1      -4.195   3.959  -3.508  0.00  0.00    +0.104 C 
BRANCH  38  39
ATOM     39  C   UNL     1      -4.693   3.116  -4.683  0.00  0.00    +0.022 C 
BRANCH  39  40
ATOM     40  C   UNL     1      -5.393   4.020  -5.700  0.00  0.00    -0.016 C 
ATOM     41  C   UNL     1      -5.780   3.200  -6.931  0.00  0.00    +0.007 C 
ATOM     42  C   UNL     1      -6.652   4.618  -5.069  0.00  0.00    +0.007 C 
ENDBRANCH  39  40
ENDBRANCH  38  39
ENDBRANCH  36  38
ENDBRANCH  26  34
ENDBRANCH   1  26
TORSDOF 12
