REMARK  Name = ZINC39264945
REMARK  9 active torsions:
REMARK  status: ('A' for Active; 'I' for Inactive)
REMARK    1  A    between atoms: C_1  and  N_2
REMARK    2  A    between atoms: N_2  and  C_3
REMARK    3  A    between atoms: C_3  and  C_4
REMARK    4  A    between atoms: C_4  and  C_5
REMARK    5  A    between atoms: N_20  and  C1*_23
REMARK    6  A    between atoms: C2*_25  and  O2*_35
REMARK    7  A    between atoms: C3*_27  and  O3*_34
REMARK    8  A    between atoms: C4*_29  and  C5*_32
REMARK    9  A    between atoms: C5*_32  and  O5*_33
REMARK                            x       y       z     vdW  Elec       q    Type
REMARK                         _______ _______ _______ _____ _____    ______ ____
ROOT
ATOM      1  C   UNL     1      -0.018   1.461   0.010  0.00  0.00    +0.130 C 
ATOM      2  N   UNL     1       0.002  -0.004   0.002  0.00  0.00    -0.316 N 
ATOM      3  C   UNL     1       0.000  -0.690  -1.200  0.00  0.00    +0.152 A 
ATOM      4  C   UNL     1      -0.015   0.003  -2.423  0.00  0.00    +0.148 A 
ATOM      5  C   UNL     1      -0.017  -0.747  -3.611  0.00  0.00    +0.167 A 
ATOM      6  N   UNL     1      -0.003  -2.074  -3.536  0.00  0.00    -0.216 NA
ATOM      7  C   UNL     1       0.011  -2.680  -2.368  0.00  0.00    +0.225 A 
ATOM      8  N   UNL     1       0.018  -2.018  -1.225  0.00  0.00    -0.218 NA
ATOM      9  N   UNL     1      -0.033   0.166  -4.635  0.00  0.00    -0.286 N 
ATOM     10  C   UNL     1      -0.041   1.408  -4.075  0.00  0.00    +0.203 A 
ATOM     11  N   UNL     1      -0.030   1.311  -2.777  0.00  0.00    -0.231 NA
ENDROOT
BRANCH   9  12
ATOM     12  C1* UNL     1      -0.040  -0.140  -6.068  0.00  0.00    +0.253 C 
ATOM     13  C2* UNL     1      -1.487  -0.351  -6.565  0.00  0.00    +0.195 C 
ATOM     14  C3* UNL     1      -1.494   0.277  -7.977  0.00  0.00    +0.178 C 
ATOM     15  C4* UNL     1      -0.050   0.794  -8.165  0.00  0.00    +0.177 C 
ATOM     16  O4* UNL     1       0.452   0.988  -6.824  0.00  0.00    -0.346 OA
BRANCH  14  17
ATOM     17  O3* UNL     1      -1.808  -0.709  -8.962  0.00  0.00    -0.386 OA
ATOM     18  H3* UNL     1      -1.826  -0.369  -9.867  0.00  0.00    +0.210 HD
ENDBRANCH  14  17
BRANCH  13  19
ATOM     19  O2* UNL     1      -1.794  -1.745  -6.633  0.00  0.00    -0.385 OA
ATOM     20  H2* UNL     1      -2.691  -1.935  -6.940  0.00  0.00    +0.210 HD
ENDBRANCH  13  19
BRANCH  15  21
ATOM     21  C5* UNL     1      -0.054   2.117  -8.933  0.00  0.00    +0.190 C 
BRANCH  21  22
ATOM     22  O5* UNL     1       1.292   2.518  -9.198  0.00  0.00    -0.392 OA
ATOM     23  H5* UNL     1       1.365   3.351  -9.683  0.00  0.00    +0.210 HD
ENDBRANCH  21  22
ENDBRANCH  15  21
ENDBRANCH   9  12
BRANCH   2  24
ATOM     24  C   UNL     1       0.024  -0.743   1.267  0.00  0.00    +0.111 C 
BRANCH  24  25
ATOM     25  C   UNL     1      -1.411  -1.020   1.720  0.00  0.00    +0.056 C 
BRANCH  25  26
ATOM     26  C   UNL     1      -1.388  -1.781   3.021  0.00  0.00    -0.021 A 
ATOM     27  C   UNL     1      -1.280  -1.206   4.365  0.00  0.00    +0.003 A 
ATOM     28  C   UNL     1      -1.174   0.095   4.858  0.00  0.00    +0.010 A 
ATOM     29  C   UNL     1      -1.089   0.305   6.205  0.00  0.00    +0.001 A 
ATOM     30  C   UNL     1      -1.107  -0.765   7.088  0.00  0.00    +0.002 A 
ATOM     31  C   UNL     1      -1.212  -2.058   6.623  0.00  0.00    +0.026 A 
ATOM     32  C   UNL     1      -1.300  -2.295   5.256  0.00  0.00    +0.047 A 
ATOM     33  N   UNL     1      -1.411  -3.439   4.497  0.00  0.00    -0.360 N 
ATOM     34  C   UNL     1      -1.468  -3.112   3.169  0.00  0.00    +0.087 A 
ATOM     35  H   UNL     1      -1.448  -4.341   4.851  0.00  0.00    +0.165 HD
ENDBRANCH  25  26
ENDBRANCH  24  25
ENDBRANCH   2  24
TORSDOF 8
