REMARK  Name = ZINC02231678
REMARK  9 active torsions:
REMARK  status: ('A' for Active; 'I' for Inactive)
REMARK    1  A    between atoms: C_1  and  C_2
REMARK    2  A    between atoms: C_5  and  N_9
REMARK    3  A    between atoms: C_7  and  C_8
REMARK    4  A    between atoms: C_10  and  N_28
REMARK    5  A    between atoms: C_11  and  C_22
REMARK    6  A    between atoms: C_22  and  O_24
REMARK    7  A    between atoms: O_24  and  C_25
REMARK    8  A    between atoms: C_25  and  C_26
REMARK    9  A    between atoms: C_25  and  C_27
REMARK                            x       y       z     vdW  Elec       q    Type
REMARK                         _______ _______ _______ _____ _____    ______ ____
ROOT
ATOM      1  N   UNL     1      -0.986  -0.970   0.006  0.00  0.00    -0.280 N 
ATOM      2  C   UNL     1      -0.440  -2.218  -0.006  0.00  0.00    +0.119 A 
ATOM      3  C   UNL     1       0.949  -2.140  -0.019  0.00  0.00    +0.126 A 
ATOM      4  C   UNL     1       1.288  -0.707  -0.014  0.00  0.00    +0.125 A 
ATOM      5  C   UNL     1       0.002  -0.004   0.002  0.00  0.00    +0.167 A 
ATOM      6  N   UNL     1      -0.016   1.312   0.009  0.00  0.00    -0.225 NA
ATOM      7  C   UNL     1       1.136   1.994   0.002  0.00  0.00    +0.092 A 
ATOM      8  C   UNL     1       1.126   3.402   0.009  0.00  0.00    +0.030 A 
ATOM      9  C   UNL     1       2.301   4.087   0.002  0.00  0.00    +0.002 A 
ATOM     10  C   UNL     1       3.523   3.416  -0.013  0.00  0.00    +0.002 A 
ATOM     11  C   UNL     1       3.573   2.057  -0.021  0.00  0.00    +0.030 A 
ATOM     12  C   UNL     1       2.378   1.312  -0.014  0.00  0.00    +0.090 A 
ATOM     13  N   UNL     1       2.416  -0.026  -0.021  0.00  0.00    -0.241 NA
ENDROOT
BRANCH   1  18
ATOM     14  C   UNL     1      -6.556   0.114   0.062  0.00  0.00    +0.044 C 
ATOM     15  C   UNL     1      -5.077  -0.173   0.047  0.00  0.00    -0.047 A 
ATOM     16  C   UNL     1      -4.313   0.198  -1.044  0.00  0.00    +0.005 A 
ATOM     17  C   UNL     1      -2.957  -0.065  -1.061  0.00  0.00    +0.026 A 
ATOM     18  C   UNL     1      -2.361  -0.702   0.020  0.00  0.00    +0.050 A 
ATOM     19  C   UNL     1      -3.132  -1.078   1.111  0.00  0.00    +0.030 A 
ATOM     20  C   UNL     1      -4.487  -0.808   1.125  0.00  0.00    -0.046 A 
ATOM     21  C   UNL     1      -5.323  -1.210   2.312  0.00  0.00    +0.044 C 
ENDBRANCH   1  18
BRANCH   2  22
ATOM     22  N   UNL     1      -1.158  -3.385  -0.006  0.00  0.00    -0.343 N 
ATOM     23  H   UNL     1      -2.127  -3.358   0.003  0.00  0.00    +0.144 HD
ATOM     24  H   UNL     1      -0.696  -4.238  -0.015  0.00  0.00    +0.144 HD
ENDBRANCH   2  22
BRANCH   3  25
ATOM     25  C   UNL     1       1.859  -3.226  -0.034  0.00  0.00    +0.345 C 
ATOM     26  O   UNL     1       2.240  -3.686  -1.094  0.00  0.00    -0.245 OA
BRANCH  25  27
ATOM     27  O   UNL     1       2.303  -3.749   1.128  0.00  0.00    -0.458 OA
BRANCH  27  28
ATOM     28  C   UNL     1       3.219  -4.843   1.039  0.00  0.00    +0.171 C 
ATOM     29  C   UNL     1       4.651  -4.307   1.002  0.00  0.00    +0.052 C 
ATOM     30  C   UNL     1       3.046  -5.753   2.256  0.00  0.00    +0.052 C 
ENDBRANCH  27  28
ENDBRANCH  25  27
ENDBRANCH   3  25
TORSDOF 5
