REMARK  Name = ZINC48257378
REMARK  11 active torsions:
REMARK  status: ('A' for Active; 'I' for Inactive)
REMARK    1  A    between atoms: C_1  and  C_2
REMARK    2  A    between atoms: C_2  and  C_3
REMARK    3  A    between atoms: N_5  and  C_6
REMARK    4  A    between atoms: C_9  and  C_24
REMARK    5  A    between atoms: C_10  and  N_12
REMARK    6  A    between atoms: N_15  and  C_16
REMARK    7  A    between atoms: C_16  and  C_17
REMARK    8  A    between atoms: N_19  and  C_20
REMARK    9  A    between atoms: C_20  and  C_21
REMARK   10  A    between atoms: C_20  and  C_22
REMARK   11  A    between atoms: C_20  and  C_23
REMARK                            x       y       z     vdW  Elec       q    Type
REMARK                         _______ _______ _______ _____ _____    ______ ____
ROOT
ATOM      1  N   UNL     1      -4.412  -5.700   0.260  0.00  0.00    -0.269 N 
ATOM      2  C   UNL     1      -3.321  -6.487   0.339  0.00  0.00    +0.304 C 
ATOM      3  O   UNL     1      -2.210  -5.996   0.270  0.00  0.00    -0.252 OA
ATOM      4  N   UNL     1      -3.460  -7.819   0.493  0.00  0.00    -0.291 N 
ATOM      5  H   UNL     1      -5.296  -6.097   0.248  0.00  0.00    +0.156 HD
ATOM      6  H   UNL     1      -4.346  -8.210   0.548  0.00  0.00    +0.151 HD
ENDROOT
BRANCH   1  11
ATOM      7  C   UNL     1      -3.049  -2.374  -0.535  0.00  0.00    +0.035 A 
ATOM      8  C   UNL     1      -3.990  -1.554   0.075  0.00  0.00    +0.024 A 
ATOM      9  C   UNL     1      -5.064  -2.111   0.741  0.00  0.00    +0.007 A 
ATOM     10  C   UNL     1      -5.206  -3.485   0.803  0.00  0.00    -0.029 A 
ATOM     11  C   UNL     1      -4.268  -4.309   0.196  0.00  0.00    +0.039 A 
ATOM     12  C   UNL     1      -3.191  -3.753  -0.479  0.00  0.00    +0.047 A 
ATOM     13  C   UNL     1      -6.379  -4.088   1.532  0.00  0.00    +0.045 C 
BRANCH   7  16
ATOM     14  C   UNL     1      -1.394  -0.677  -0.747  0.00  0.00    +0.217 C 
ATOM     15  O   UNL     1      -1.878  -0.103   0.206  0.00  0.00    -0.275 OA
ATOM     16  N   UNL     1      -1.961  -1.809  -1.210  0.00  0.00    -0.285 N 
ATOM     17  H   UNL     1      -1.615  -2.232  -2.012  0.00  0.00    +0.155 HD
BRANCH  14  19
ATOM     18  C   UNL     1       0.276   1.155  -0.697  0.00  0.00    +0.013 C 
ATOM     19  C   UNL     1      -0.160  -0.125  -1.413  0.00  0.00    +0.093 C 
ENDBRANCH  14  19
ENDBRANCH   7  16
ENDBRANCH   1  11
BRANCH   4  20
ATOM     20  C   UNL     1      -2.274  -8.675   0.578  0.00  0.00    +0.201 C 
BRANCH  20  21
ATOM     21  C   UNL     1      -2.702 -10.110   0.748  0.00  0.00    +0.231 C 
ATOM     22  O   UNL     1      -3.881 -10.390   0.793  0.00  0.00    -0.274 OA
ATOM     23  N   UNL     1      -1.774 -11.082   0.849  0.00  0.00    -0.309 N 
ATOM     24  H   UNL     1      -0.830 -10.857   0.813  0.00  0.00    +0.149 HD
BRANCH  23  25
ATOM     25  C   UNL     1      -2.189 -12.477   1.014  0.00  0.00    +0.026 C 
ATOM     26  C   UNL     1      -3.039 -12.901  -0.185  0.00  0.00    +0.031 C 
ATOM     27  C   UNL     1      -0.950 -13.371   1.103  0.00  0.00    +0.031 C 
ATOM     28  C   UNL     1      -3.012 -12.616   2.296  0.00  0.00    +0.031 C 
ENDBRANCH  23  25
ENDBRANCH  20  21
ENDBRANCH   4  20
TORSDOF 6
