REMARK  Name = ZINC50423029
REMARK  7 active torsions:
REMARK  status: ('A' for Active; 'I' for Inactive)
REMARK    1  A    between atoms: C_1  and  C_2
REMARK    2  A    between atoms: C_5  and  C_8
REMARK    3  A    between atoms: C_5  and  N_11
REMARK    4  A    between atoms: N_11  and  C_12
REMARK    5  A    between atoms: C_12  and  C_14
REMARK    6  A    between atoms: C_12  and  C_15
REMARK    7  A    between atoms: N_19  and  C_20
REMARK                            x       y       z     vdW  Elec       q    Type
REMARK                         _______ _______ _______ _____ _____    ______ ____
ROOT
ATOM      1  N   UNL     1      -1.833  -2.682   1.798  0.00  0.00    +0.396 N 
ATOM      2  H   UNL     1      -1.976  -2.987   2.749  0.00  0.00    -0.083 HD
ATOM      3  H   UNL     1      -2.225  -1.760   1.678  0.00  0.00    -0.083 HD
ENDROOT
BRANCH   1   8
ATOM      4  C   UNL     1      -0.721   1.536   0.435  0.00  0.00    +0.007 C 
ATOM      5  C   UNL     1      -0.112   0.156   0.691  0.00  0.00    -0.014 C 
ATOM      6  C   UNL     1      -0.789  -0.876  -0.214  0.00  0.00    +0.002 C 
ATOM      7  C   UNL     1      -0.180  -2.256   0.042  0.00  0.00    -0.001 C 
ATOM      8  C   UNL     1      -0.394  -2.644   1.507  0.00  0.00    +0.036 C 
ATOM      9  C   UNL     1       0.282  -1.613   2.412  0.00  0.00    -0.001 C 
ATOM     10  C   UNL     1      -0.326  -0.232   2.156  0.00  0.00    +0.002 C 
BRANCH   8  11
ATOM     11  C   UNL     1       0.205  -4.003   1.759  0.00  0.00    +0.346 C 
ATOM     12  O   UNL     1       0.976  -4.490   0.948  0.00  0.00    -0.248 OA
ATOM     13  O   UNL     1      -0.080  -4.617   2.773  0.00  0.00    -0.248 OA
ENDBRANCH   8  11
ENDBRANCH   1   8
BRANCH   1  14
ATOM     14  C   UNL     1      -2.495  -3.618   0.879  0.00  0.00    -0.004 C 
ATOM     15  C   UNL     1      -2.007  -5.040   1.161  0.00  0.00    -0.006 C 
BRANCH  14  16
ATOM     16  C   UNL     1      -3.987  -3.549   1.079  0.00  0.00    +0.119 A 
ATOM     17  N   UNL     1      -4.613  -3.530   2.224  0.00  0.00    -0.136 NA
ATOM     18  N   UNL     1      -5.882  -3.467   2.023  0.00  0.00    -0.138 NA
ATOM     19  C   UNL     1      -6.122  -3.444   0.740  0.00  0.00    +0.224 A 
ATOM     20  N   UNL     1      -4.926  -3.490   0.105  0.00  0.00    -0.322 N 
ATOM     21  C   UNL     1      -4.696  -3.482  -1.342  0.00  0.00    +0.151 C 
ENDBRANCH  14  16
ENDBRANCH   1  14
TORSDOF 4
