REMARK  Name = ZINC44319235
REMARK  10 active torsions:
REMARK  status: ('A' for Active; 'I' for Inactive)
REMARK    1  A    between atoms: C_1  and  C_2
REMARK    2  A    between atoms: C_2  and  C_3
REMARK    3  A    between atoms: C_2  and  C_4
REMARK    4  A    between atoms: C_2  and  O_5
REMARK    5  A    between atoms: O_5  and  C_6
REMARK    6  A    between atoms: N_8  and  CA_9
REMARK    7  A    between atoms: CA_9  and  C_11
REMARK    8  A    between atoms: CA_9  and  C_22
REMARK    9  A    between atoms: C_11  and  C_12
REMARK   10  A    between atoms: C_17  and  O_18
REMARK                            x       y       z     vdW  Elec       q    Type
REMARK                         _______ _______ _______ _____ _____    ______ ____
ROOT
ATOM      1  CA  UNL     1       4.035  -0.071  -2.601  0.00  0.00    +0.193 C 
ENDROOT
BRANCH   1   4
ATOM      2  C   UNL     1       1.952  -0.085  -1.337  0.00  0.00    +0.401 C 
ATOM      3  O   UNL     1       2.488   0.619  -0.503  0.00  0.00    -0.226 OA
ATOM      4  N   UNL     1       2.641  -0.485  -2.424  0.00  0.00    -0.267 N 
ATOM      5  H   UNL     1       2.213  -1.047  -3.089  0.00  0.00    +0.153 HD
BRANCH   2   6
ATOM      6  O   UNL     1       0.671  -0.465  -1.174  0.00  0.00    -0.445 OA
BRANCH   6   8
ATOM      7  C   UNL     1      -0.019   1.526   0.010  0.00  0.00    +0.055 C 
ATOM      8  C   UNL     1       0.002  -0.004   0.002  0.00  0.00    +0.107 C 
ATOM      9  C   UNL     1       0.742  -0.511   1.242  0.00  0.00    +0.055 C 
ATOM     10  C   UNL     1      -1.433  -0.534   0.013  0.00  0.00    +0.055 C 
ENDBRANCH   6   8
ENDBRANCH   2   6
ENDBRANCH   1   4
BRANCH   1  11
ATOM     11  C   UNL     1       4.077   1.287  -3.253  0.00  0.00    +0.376 C 
ATOM     12  O   UNL     1       5.001   2.047  -3.018  0.00  0.00    -0.244 OA
ATOM     13  OXT UNL     1       3.187   1.625  -4.015  0.00  0.00    -0.244 OA
ENDBRANCH   1  11
BRANCH   1  14
ATOM     14  C   UNL     1       4.759  -1.086  -3.489  0.00  0.00    +0.073 C 
BRANCH  14  15
ATOM     15  C   UNL     1       4.824  -2.415  -2.783  0.00  0.00    -0.001 A 
ATOM     16  C   UNL     1       5.943  -2.751  -2.044  0.00  0.00    +0.030 A 
ATOM     17  C   UNL     1       6.005  -3.971  -1.395  0.00  0.00    +0.078 A 
ATOM     18  C   UNL     1       4.944  -4.859  -1.484  0.00  0.00    +0.159 A 
ATOM     19  C   UNL     1       3.823  -4.525  -2.222  0.00  0.00    +0.096 A 
ATOM     20  C   UNL     1       3.759  -3.299  -2.869  0.00  0.00    +0.137 A 
ATOM     21 BR   UNL     1       2.375  -5.736  -2.344  0.00  0.00    -0.043 Br
ATOM     22  F   UNL     1       5.006  -6.050  -0.850  0.00  0.00    -0.203 F 
ATOM     23 CL   UNL     1       7.412  -4.390  -0.469  0.00  0.00    -0.081 Cl
BRANCH  20  24
ATOM     24  O   UNL     1       2.656  -2.967  -3.591  0.00  0.00    -0.505 OA
ATOM     25  H   UNL     1       2.698  -3.235  -4.519  0.00  0.00    +0.292 HD
ENDBRANCH  20  24
ENDBRANCH  14  15
ENDBRANCH   1  14
TORSDOF 7
