REMARK  Name = ZINC12472382
REMARK  17 active torsions:
REMARK  status: ('A' for Active; 'I' for Inactive)
REMARK    1  A    between atoms: C_1  and  C_2
REMARK    2  A    between atoms: C_2  and  C_3
REMARK    3  A    between atoms: C_2  and  C_4
REMARK    4  A    between atoms: C_4  and  C_5
REMARK    5  A    between atoms: C_5  and  N_6
REMARK    6  A    between atoms: C_7  and  C_9
REMARK    7  A    between atoms: C_9  and  C_11
REMARK    8  A    between atoms: C_9  and  N_15
REMARK    9  A    between atoms: C_11  and  C_12
REMARK   10  A    between atoms: C_12  and  C_13
REMARK   11  A    between atoms: C_12  and  C_14
REMARK   12  A    between atoms: N_15  and  C_16
REMARK   13  A    between atoms: C_16  and  C_17
REMARK   14  A    between atoms: C_17  and  C_18
REMARK   15  A    between atoms: C_24  and  C_26
REMARK   16  A    between atoms: C_27  and  N_34
REMARK   17  A    between atoms: C_28  and  C_31
REMARK                            x       y       z     vdW  Elec       q    Type
REMARK                         _______ _______ _______ _____ _____    ______ ____
ROOT
ATOM      1  N   UNL     1      -0.966   1.330   0.030  0.00  0.00    -0.285 N 
ATOM      2  C   UNL     1      -0.279   0.297  -0.497  0.00  0.00    +0.257 C 
ATOM      3  O   UNL     1      -0.781  -0.811  -0.537  0.00  0.00    -0.269 OA
ENDROOT
BRANCH   2   4
ATOM      4  C   UNL     1       1.070   0.508  -1.026  0.00  0.00    +0.115 A 
ATOM      5  C   UNL     1       1.986  -0.426  -1.514  0.00  0.00    +0.076 A 
ATOM      6  C   UNL     1       3.178   0.164  -1.934  0.00  0.00    +0.155 A 
ATOM      7  N   UNL     1       3.320   1.468  -1.837  0.00  0.00    -0.203 NA
ATOM      8  S   UNL     1       1.979   2.026  -1.226  0.00  0.00    +0.019 S 
BRANCH   6   9
ATOM      9  C   UNL     1       4.267  -0.665  -2.481  0.00  0.00    +0.262 C 
ATOM     10  O   UNL     1       4.129  -1.870  -2.568  0.00  0.00    -0.269 OA
ATOM     11  N   UNL     1       5.416  -0.088  -2.885  0.00  0.00    -0.324 N 
ATOM     12  H   UNL     1       5.527   0.873  -2.815  0.00  0.00    +0.145 HD
ATOM     13  H   UNL     1       6.133  -0.633  -3.244  0.00  0.00    +0.145 HD
ENDBRANCH   6   9
BRANCH   5  14
ATOM     14  N   UNL     1       1.737  -1.790  -1.576  0.00  0.00    -0.355 N 
ATOM     15  H   UNL     1       0.887  -2.143  -1.269  0.00  0.00    +0.142 HD
ATOM     16  H   UNL     1       2.413  -2.391  -1.926  0.00  0.00    +0.142 HD
ENDBRANCH   5  14
ENDBRANCH   2   4
BRANCH   1  17
ATOM     17  C   UNL     1      -2.270   1.099   0.656  0.00  0.00    +0.162 C 
BRANCH  17  19
ATOM     18  N   UNL     1      -4.641   1.562   0.124  0.00  0.00    -0.314 N 
ATOM     19  C   UNL     1      -3.341   1.795  -0.144  0.00  0.00    +0.234 C 
ATOM     20  O   UNL     1      -3.033   2.565  -1.029  0.00  0.00    -0.274 OA
ATOM     21  H   UNL     1      -4.887   0.947   0.832  0.00  0.00    +0.149 HD
BRANCH  18  22
ATOM     22  C   UNL     1      -5.682   2.239  -0.653  0.00  0.00    +0.104 C 
BRANCH  22  23
ATOM     23  C   UNL     1      -7.059   1.802  -0.150  0.00  0.00    +0.022 C 
BRANCH  23  25
ATOM     24  C   UNL     1      -9.520   1.979  -0.545  0.00  0.00    +0.007 C 
ATOM     25  C   UNL     1      -8.147   2.508  -0.962  0.00  0.00    -0.016 C 
ATOM     26  C   UNL     1      -8.080   4.015  -0.702  0.00  0.00    +0.007 C 
ENDBRANCH  23  25
ENDBRANCH  22  23
ENDBRANCH  18  22
ENDBRANCH  17  19
BRANCH  17  27
ATOM     27  C   UNL     1      -2.257   1.653   2.082  0.00  0.00    +0.035 C 
BRANCH  27  28
ATOM     28  C   UNL     1      -1.257   0.863   2.927  0.00  0.00    -0.015 C 
ATOM     29  C   UNL     1      -1.152   1.495   4.317  0.00  0.00    +0.007 C 
ATOM     30  C   UNL     1      -1.734  -0.585   3.060  0.00  0.00    +0.007 C 
ENDBRANCH  27  28
ENDBRANCH  17  27
ENDBRANCH   1  17
BRANCH   1  31
ATOM     31  C   UNL     1      -0.408   2.683  -0.023  0.00  0.00    +0.113 C 
BRANCH  31  32
ATOM     32  C   UNL     1       0.556   2.884   1.148  0.00  0.00    +0.054 C 
BRANCH  32  33
ATOM     33  C   UNL     1       1.023   4.317   1.174  0.00  0.00    -0.046 A 
ATOM     34  C   UNL     1       2.162   4.685   0.482  0.00  0.00    +0.004 A 
ATOM     35  C   UNL     1       2.588   6.000   0.502  0.00  0.00    +0.000 A 
ATOM     36  C   UNL     1       1.881   6.944   1.223  0.00  0.00    +0.000 A 
ATOM     37  C   UNL     1       0.745   6.575   1.919  0.00  0.00    +0.000 A 
ATOM     38  C   UNL     1       0.317   5.261   1.895  0.00  0.00    +0.004 A 
ENDBRANCH  32  33
ENDBRANCH  31  32
ENDBRANCH   1  31
TORSDOF 13
