REMARK  Name = ZINC36500704
REMARK  13 active torsions:
REMARK  status: ('A' for Active; 'I' for Inactive)
REMARK    1  A    between atoms: C_1  and  C_2
REMARK    2  A    between atoms: C_2  and  C_3
REMARK    3  A    between atoms: C_2  and  C_4
REMARK    4  A    between atoms: C_2  and  N_5
REMARK    5  A    between atoms: C_6  and  C_8
REMARK    6  A    between atoms: C_8  and  C_10
REMARK    7  A    between atoms: C_8  and  N_17
REMARK    8  A    between atoms: C_13  and  O_16
REMARK    9  A    between atoms: N_17  and  C_18
REMARK   10  A    between atoms: C_18  and  C_19
REMARK   11  A    between atoms: C_24  and  C_26
REMARK   12  A    between atoms: C_30  and  O_33
REMARK   13  A    between atoms: C_31  and  O_32
REMARK                            x       y       z     vdW  Elec       q    Type
REMARK                         _______ _______ _______ _____ _____    ______ ____
ROOT
ATOM      1  N   UNL     1       3.806   0.731  -3.940  0.00  0.00    -0.275 N 
ATOM      2  C   UNL     1       3.196  -0.470  -3.908  0.00  0.00    +0.252 C 
ATOM      3  O   UNL     1       2.041  -0.575  -4.272  0.00  0.00    -0.270 OA
ENDROOT
BRANCH   2   4
ATOM      4  C   UNL     1       3.930  -1.658  -3.432  0.00  0.00    +0.082 A 
ATOM      5  C   UNL     1       4.867  -1.539  -2.401  0.00  0.00    +0.017 A 
ATOM      6  C   UNL     1       5.550  -2.650  -1.959  0.00  0.00    +0.005 A 
ATOM      7  C   UNL     1       5.315  -3.890  -2.532  0.00  0.00    +0.049 A 
ATOM      8  C   UNL     1       4.391  -4.024  -3.554  0.00  0.00    +0.159 A 
ATOM      9  C   UNL     1       3.689  -2.911  -4.007  0.00  0.00    +0.171 A 
BRANCH   9  10
ATOM     10  O   UNL     1       2.778  -3.040  -5.005  0.00  0.00    -0.503 OA
ATOM     11  H   UNL     1       3.147  -2.925  -5.892  0.00  0.00    +0.292 HD
ENDBRANCH   9  10
BRANCH   8  12
ATOM     12  O   UNL     1       4.166  -5.244  -4.111  0.00  0.00    -0.503 OA
ATOM     13  H   UNL     1       3.466  -5.751  -3.678  0.00  0.00    +0.292 HD
ENDBRANCH   8  12
ENDBRANCH   2   4
BRANCH   1  14
ATOM     14  C   UNL     1       5.266   0.815  -3.840  0.00  0.00    +0.193 C 
BRANCH  14  15
ATOM     15  C   UNL     1       5.640   1.732  -2.705  0.00  0.00    -0.018 A 
ATOM     16  C   UNL     1       4.713   2.030  -1.724  0.00  0.00    +0.009 A 
ATOM     17  C   UNL     1       5.053   2.871  -0.682  0.00  0.00    +0.046 A 
ATOM     18  C   UNL     1       6.327   3.416  -0.621  0.00  0.00    +0.117 A 
ATOM     19  C   UNL     1       7.256   3.115  -1.606  0.00  0.00    +0.046 A 
ATOM     20  C   UNL     1       6.912   2.269  -2.643  0.00  0.00    +0.009 A 
BRANCH  18  21
ATOM     21  O   UNL     1       6.665   4.244   0.403  0.00  0.00    -0.507 OA
ATOM     22  H   UNL     1       7.037   3.788   1.171  0.00  0.00    +0.292 HD
ENDBRANCH  18  21
ENDBRANCH  14  15
BRANCH  14  24
ATOM     23  N   UNL     1       7.161   1.452  -5.296  0.00  0.00    -0.309 N 
ATOM     24  C   UNL     1       5.827   1.356  -5.130  0.00  0.00    +0.239 C 
ATOM     25  O   UNL     1       5.078   1.706  -6.017  0.00  0.00    -0.273 OA
ATOM     26  H   UNL     1       7.760   1.172  -4.587  0.00  0.00    +0.149 HD
BRANCH  23  28
ATOM     27  C   UNL     1       7.204   3.408  -6.764  0.00  0.00    +0.031 C 
ATOM     28  C   UNL     1       7.706   1.978  -6.550  0.00  0.00    +0.026 C 
ATOM     29  C   UNL     1       7.250   1.097  -7.715  0.00  0.00    +0.031 C 
ATOM     30  C   UNL     1       9.235   1.980  -6.480  0.00  0.00    +0.031 C 
ENDBRANCH  23  28
ENDBRANCH  14  24
ENDBRANCH   1  14
BRANCH   1  31
ATOM     31  C   UNL     1       3.010   1.954  -4.074  0.00  0.00    +0.183 C 
BRANCH  31  32
ATOM     32  C   UNL     1       2.064   1.812  -5.238  0.00  0.00    +0.122 A 
ATOM     33  C   UNL     1       0.796   1.369  -5.173  0.00  0.00    +0.046 A 
ATOM     34  C   UNL     1       0.283   1.399  -6.490  0.00  0.00    +0.041 A 
ATOM     35  C   UNL     1       1.268   1.859  -7.282  0.00  0.00    +0.195 A 
ATOM     36  O   UNL     1       2.343   2.113  -6.517  0.00  0.00    -0.466 OA
ENDBRANCH  31  32
ENDBRANCH   1  31
TORSDOF 10
