REMARK  Name = ZINC67284308
REMARK  4 active torsions:
REMARK  status: ('A' for Active; 'I' for Inactive)
REMARK    1  A    between atoms: C_1  and  C_2
REMARK    2  A    between atoms: C_5  and  C_16
REMARK    3  A    between atoms: C_7  and  N_8
REMARK    4  A    between atoms: C_9  and  C_11
REMARK                            x       y       z     vdW  Elec       q    Type
REMARK                         _______ _______ _______ _____ _____    ______ ____
ROOT
ATOM      1  C   UNL     1      -0.022   1.495   0.005  0.00  0.00    +0.045 C 
ATOM      2  C   UNL     1      -0.010  -0.012   0.002  0.00  0.00    -0.029 A 
ATOM      3  C   UNL     1      -0.016  -0.698  -1.198  0.00  0.00    +0.006 A 
ATOM      4  C   UNL     1      -0.005  -2.078  -1.209  0.00  0.00    +0.013 A 
ATOM      5  C   UNL     1       0.012  -2.786  -0.005  0.00  0.00    +0.039 A 
ATOM      6  C   UNL     1       0.018  -2.094   1.205  0.00  0.00    +0.036 A 
ATOM      7  C   UNL     1       0.013  -0.707   1.205  0.00  0.00    +0.037 A 
ENDROOT
BRANCH   5   8
ATOM      8  C   UNL     1       0.023  -4.264  -0.015  0.00  0.00    +0.251 C 
ATOM      9  O   UNL     1       0.038  -4.878   1.034  0.00  0.00    -0.270 OA
ATOM     10  N   UNL     1       0.016  -4.931  -1.186  0.00  0.00    -0.249 N 
ATOM     11  C   UNL     1       0.026  -6.326  -1.194  0.00  0.00    +0.243 A 
ATOM     12  N   UNL     1       0.037  -7.101  -0.113  0.00  0.00    -0.176 NA
ATOM     13  C   UNL     1       0.045  -8.379  -0.477  0.00  0.00    +0.254 A 
ATOM     14  N   UNL     1       0.056  -9.517   0.227  0.00  0.00    -0.219 NA
ATOM     15  C   UNL     1       0.061 -10.683  -0.378  0.00  0.00    +0.116 A 
ATOM     16  C   UNL     1       0.055 -10.754  -1.776  0.00  0.00    +0.040 A 
ATOM     17  C   UNL     1       0.044  -9.603  -2.499  0.00  0.00    +0.118 A 
ATOM     18  N   UNL     1       0.038  -8.413  -1.843  0.00  0.00    -0.202 N 
ATOM     19  N   UNL     1       0.021  -7.080  -2.274  0.00  0.00    -0.127 NA
ATOM     20  H   UNL     1       0.004  -4.441  -2.023  0.00  0.00    +0.158 HD
ENDBRANCH   5   8
BRANCH   7  21
ATOM     21  N   UNL     1       0.025  -0.008   2.417  0.00  0.00    -0.279 N 
ATOM     22  C   UNL     1       0.533  -0.586   3.523  0.00  0.00    +0.284 C 
ATOM     23  O   UNL     1       1.070  -1.675   3.449  0.00  0.00    -0.266 OA
ATOM     24  H   UNL     1      -0.331   0.893   2.460  0.00  0.00    +0.155 HD
BRANCH  22  25
ATOM     25  C   UNL     1       0.437   0.097   4.817  0.00  0.00    +0.189 A 
ATOM     26  C   UNL     1       0.911  -0.371   6.009  0.00  0.00    +0.054 A 
ATOM     27  C   UNL     1       0.604   0.600   6.975  0.00  0.00    +0.042 A 
ATOM     28  C   UNL     1      -0.036   1.605   6.339  0.00  0.00    +0.196 A 
ATOM     29  O   UNL     1      -0.131   1.301   5.038  0.00  0.00    -0.458 OA
ENDBRANCH  22  25
ENDBRANCH   7  21
TORSDOF 3
