REMARK  Name = ZINC59461818
REMARK  9 active torsions:
REMARK  status: ('A' for Active; 'I' for Inactive)
REMARK    1  A    between atoms: C_4  and  C_7
REMARK    2  A    between atoms: C_8  and  C_16
REMARK    3  A    between atoms: C_9  and  O_15
REMARK    4  A    between atoms: N_10  and  C_12
REMARK    5  A    between atoms: C_12  and  N_14
REMARK    6  A    between atoms: C_16  and  C_18
REMARK    7  A    between atoms: C_16  and  C_25
REMARK    8  A    between atoms: C_25  and  C_27
REMARK    9  A    between atoms: C_25  and  C_29
REMARK                            x       y       z     vdW  Elec       q    Type
REMARK                         _______ _______ _______ _____ _____    ______ ____
ROOT
ATOM      1  C   UNL     1       3.274  -0.532  -0.049  0.00  0.00    +0.101 A 
ATOM      2  C   UNL     1       3.729  -1.777   0.431  0.00  0.00    +0.051 A 
ATOM      3  C   UNL     1       4.942  -2.018  -0.124  0.00  0.00    +0.222 A 
ATOM      4  N   UNL     1       5.246  -0.960  -0.931  0.00  0.00    -0.179 N 
ATOM      5  N   UNL     1       4.184  -0.050  -0.868  0.00  0.00    -0.161 NA
ENDROOT
BRANCH   1   9
ATOM      6  C   UNL     1      -0.411   1.335   0.960  0.00  0.00    +0.000 A 
ATOM      7  C   UNL     1       0.715   2.107   0.739  0.00  0.00    +0.001 A 
ATOM      8  C   UNL     1       1.914   1.507   0.411  0.00  0.00    +0.010 A 
ATOM      9  C   UNL     1       1.988   0.119   0.304  0.00  0.00    +0.003 A 
ATOM     10  C   UNL     1       0.851  -0.654   0.528  0.00  0.00    +0.010 A 
ATOM     11  C   UNL     1      -0.342  -0.043   0.855  0.00  0.00    +0.001 A 
ENDBRANCH   1   9
BRANCH   4  12
ATOM     12  C   UNL     1       6.369  -0.819  -1.662  0.00  0.00    +0.167 C 
ATOM     13  S   UNL     1       7.572  -2.036  -1.629  0.00  0.00    -0.014 S 
BRANCH  12  14
ATOM     14  N   UNL     1       6.545   0.282  -2.420  0.00  0.00    -0.337 N 
ATOM     15  H   UNL     1       5.864   0.972  -2.439  0.00  0.00    +0.144 HD
ATOM     16  H   UNL     1       7.354   0.384  -2.947  0.00  0.00    +0.144 HD
ENDBRANCH  12  14
ENDBRANCH   4  12
BRANCH   3  17
ATOM     17  O   UNL     1       5.715  -3.114   0.085  0.00  0.00    -0.492 OA
ATOM     18  H   UNL     1       5.604  -3.806  -0.581  0.00  0.00    +0.294 HD
ENDBRANCH   3  17
BRANCH   2  19
ATOM     19  C   UNL     1       2.998  -2.679   1.392  0.00  0.00    +0.082 C 
BRANCH  19  20
ATOM     20  C   UNL     1       2.744  -4.011   0.736  0.00  0.00    -0.038 A 
ATOM     21  C   UNL     1       3.767  -4.935   0.630  0.00  0.00    +0.005 A 
ATOM     22  C   UNL     1       3.534  -6.158   0.028  0.00  0.00    +0.015 A 
ATOM     23  C   UNL     1       2.278  -6.457  -0.468  0.00  0.00    +0.018 A 
ATOM     24  C   UNL     1       1.255  -5.532  -0.361  0.00  0.00    +0.015 A 
ATOM     25  C   UNL     1       1.487  -4.312   0.245  0.00  0.00    +0.005 A 
ATOM     26 BR   UNL     1       1.959  -8.129  -1.291  0.00  0.00    -0.050 Br
ENDBRANCH  19  20
BRANCH  19  27
ATOM     27  C   UNL     1       3.847  -2.882   2.648  0.00  0.00    +0.189 C 
BRANCH  27  28
ATOM     28  C   UNL     1       4.101  -1.550   3.304  0.00  0.00    +0.228 C 
ATOM     29  O   UNL     1       3.724  -1.351   4.440  0.00  0.00    -0.275 OA
ATOM     30  N   UNL     1       4.746  -0.578   2.629  0.00  0.00    -0.328 N 
ATOM     31  H   UNL     1       5.047  -0.736   1.721  0.00  0.00    +0.145 HD
ATOM     32  H   UNL     1       4.909   0.280   3.051  0.00  0.00    +0.145 HD
ENDBRANCH  27  28
BRANCH  27  33
ATOM     33  C   UNL     1       3.132  -3.763   3.586  0.00  0.00    +0.076 C 
ATOM     34  N   UNL     1       2.581  -4.443   4.310  0.00  0.00    -0.196 NA
ENDBRANCH  27  33
ENDBRANCH  19  27
ENDBRANCH   2  19
TORSDOF 9
