REMARK  Name = ZINC39324204
REMARK  3 active torsions:
REMARK  status: ('A' for Active; 'I' for Inactive)
REMARK    1  A    between atoms: C_1  and  C_2
REMARK    2  A    between atoms: C_5  and  N_9
REMARK    3  A    between atoms: C_18  and  C_32
REMARK                            x       y       z     vdW  Elec       q    Type
REMARK                         _______ _______ _______ _____ _____    ______ ____
ROOT
ATOM      1  N   UNL     1       0.058  -4.173  -0.023  0.00  0.00    -0.209 N 
ATOM      2  C   UNL     1      -1.058  -4.913  -0.027  0.00  0.00    +0.231 C 
ATOM      3  O   UNL     1      -2.189  -4.478  -0.024  0.00  0.00    -0.274 OA
ATOM      4  C   UNL     1      -0.682  -6.379  -0.038  0.00  0.00    +0.101 C 
ATOM      5  C   UNL     1       0.856  -6.358  -0.037  0.00  0.00    +0.114 C 
ATOM      6  C   UNL     1       1.194  -4.883  -0.033  0.00  0.00    +0.232 C 
ATOM      7  O   UNL     1       2.313  -4.418  -0.035  0.00  0.00    -0.274 OA
ATOM      8  C   UNL     1       1.422  -7.001  -1.322  0.00  0.00    +0.134 C 
ATOM      9  C   UNL     1       0.810  -8.392  -1.382  0.00  0.00    -0.022 A 
ATOM     10  C   UNL     1       1.524  -9.555  -1.430  0.00  0.00    +0.005 A 
ATOM     11  C   UNL     1       0.835 -10.760  -1.482  0.00  0.00    +0.000 A 
ATOM     12  C   UNL     1      -0.547 -10.778  -1.485  0.00  0.00    +0.000 A 
ATOM     13  C   UNL     1      -1.266  -9.591  -1.435  0.00  0.00    +0.004 A 
ATOM     14  C   UNL     1      -0.583  -8.409  -1.384  0.00  0.00    -0.035 A 
ATOM     15  C   UNL     1      -1.242  -7.024  -1.323  0.00  0.00    +0.062 C 
ATOM     16  C   UNL     1      -0.633  -6.234  -2.471  0.00  0.00    -0.035 A 
ATOM     17  C   UNL     1       0.784  -6.236  -2.471  0.00  0.00    -0.022 A 
ATOM     18  C   UNL     1       1.475  -5.572  -3.444  0.00  0.00    +0.005 A 
ATOM     19  C   UNL     1       0.763  -4.912  -4.438  0.00  0.00    +0.000 A 
ATOM     20  C   UNL     1      -0.619  -4.930  -4.439  0.00  0.00    +0.000 A 
ATOM     21  C   UNL     1      -1.349  -5.579  -3.433  0.00  0.00    +0.004 A 
ENDROOT
BRANCH   1  26
ATOM     22  C   UNL     1      -0.018   1.503   0.010  0.00  0.00    +0.044 C 
ATOM     23  C   UNL     1       0.002  -0.004   0.002  0.00  0.00    -0.049 A 
ATOM     24  C   UNL     1       0.006  -0.688  -1.200  0.00  0.00    +0.005 A 
ATOM     25  C   UNL     1       0.024  -2.068  -1.212  0.00  0.00    +0.025 A 
ATOM     26  C   UNL     1       0.040  -2.771  -0.014  0.00  0.00    +0.058 A 
ATOM     27  C   UNL     1       0.036  -2.082   1.192  0.00  0.00    +0.040 A 
ATOM     28  C   UNL     1       0.023  -0.700   1.196  0.00  0.00    +0.020 A 
ATOM     29 BR   UNL     1       0.056  -3.034   2.825  0.00  0.00    -0.048 Br
ENDBRANCH   1  26
BRANCH   8  30
ATOM     30  C   UNL     1       2.928  -6.994  -1.372  0.00  0.00    +0.371 C 
ATOM     31  O   UNL     1       3.522  -7.878  -1.967  0.00  0.00    -0.245 OA
ATOM     32  O   UNL     1       3.553  -6.106  -0.817  0.00  0.00    -0.245 OA
ENDBRANCH   8  30
TORSDOF 2
