REMARK  Name = ZINC26123610
REMARK  13 active torsions:
REMARK  status: ('A' for Active; 'I' for Inactive)
REMARK    1  A    between atoms: C_1  and  C_2
REMARK    2  A    between atoms: C_2  and  C_4
REMARK    3  A    between atoms: C_2  and  S_16
REMARK    4  A    between atoms: N_9  and  C_10
REMARK    5  A    between atoms: S_16  and  C_17
REMARK    6  A    between atoms: C_20  and  C_23
REMARK    7  A    between atoms: N_21  and  N_22
REMARK    8  A    between atoms: C_23  and  O_24
REMARK    9  A    between atoms: O_24  and  C_25
REMARK   10  A    between atoms: C_28  and  C_31
REMARK   11  A    between atoms: C_31  and  C_32
REMARK   12  A    between atoms: C_31  and  C_33
REMARK   13  A    between atoms: C_31  and  C_34
REMARK                            x       y       z     vdW  Elec       q    Type
REMARK                         _______ _______ _______ _____ _____    ______ ____
ROOT
ATOM      1  C   UNL     1      -0.189  -0.057  -2.809  0.00  0.00    +0.209 A 
ATOM      2  N   UNL     1      -1.312   0.614  -2.696  0.00  0.00    -0.121 NA
ATOM      3  N   UNL     1      -1.808   0.835  -3.860  0.00  0.00    -0.128 NA
ATOM      4  C   UNL     1      -1.040   0.322  -4.779  0.00  0.00    +0.189 A 
ATOM      5  N   UNL     1       0.022  -0.259  -4.143  0.00  0.00    -0.225 N 
ENDROOT
BRANCH   5   6
ATOM      6  N   UNL     1       1.075  -0.910  -4.721  0.00  0.00    -0.295 N 
ATOM      7  H   UNL     1       0.878  -1.894  -4.827  0.00  0.00    +0.163 HD
ATOM      8  H   UNL     1       1.316  -0.492  -5.607  0.00  0.00    +0.163 HD
ENDBRANCH   5   6
BRANCH   1   9
ATOM      9  S   UNL     1       0.851  -0.589  -1.490  0.00  0.00    -0.072 S 
BRANCH   9  11
ATOM     10  C   UNL     1      -0.019   1.526   0.010  0.00  0.00    +0.029 C 
ATOM     11  C   UNL     1       0.002  -0.004   0.002  0.00  0.00    +0.137 C 
BRANCH  11  12
ATOM     12  C   UNL     1       0.731  -0.503   1.223  0.00  0.00    +0.234 C 
ATOM     13  O   UNL     1       1.911  -0.775   1.156  0.00  0.00    -0.274 OA
ATOM     14  N   UNL     1       0.071  -0.647   2.389  0.00  0.00    -0.239 N 
ATOM     15  C   UNL     1       0.723  -1.094   3.481  0.00  0.00    +0.306 C 
ATOM     16  O   UNL     1       1.906  -1.367   3.414  0.00  0.00    -0.252 OA
ATOM     17  N   UNL     1       0.064  -1.238   4.648  0.00  0.00    -0.296 N 
ATOM     18  H   UNL     1      -0.872  -0.430   2.443  0.00  0.00    +0.159 HD
ATOM     19  H   UNL     1      -0.880  -1.020   4.702  0.00  0.00    +0.151 HD
BRANCH  17  20
ATOM     20  C   UNL     1       0.772  -1.723   5.835  0.00  0.00    +0.074 C 
ATOM     21  C   UNL     1       1.457  -0.548   6.536  0.00  0.00    +0.022 C 
ATOM     22  C   UNL     1       2.197  -1.055   7.775  0.00  0.00    +0.002 C 
ATOM     23  C   UNL     1       1.200  -1.709   8.733  0.00  0.00    +0.000 C 
ATOM     24  C   UNL     1       0.515  -2.884   8.032  0.00  0.00    +0.002 C 
ATOM     25  C   UNL     1      -0.225  -2.377   6.793  0.00  0.00    +0.022 C 
ENDBRANCH  17  20
ENDBRANCH  11  12
ENDBRANCH   9  11
ENDBRANCH   1   9
BRANCH   4  26
ATOM     26  C   UNL     1      -1.274   0.367  -6.267  0.00  0.00    +0.306 C 
BRANCH  26  27
ATOM     27  O   UNL     1      -0.662   1.539  -6.810  0.00  0.00    -0.484 OA
BRANCH  27  28
ATOM     28  C   UNL     1      -0.781   1.732  -8.150  0.00  0.00    +0.121 A 
ATOM     29  C   UNL     1      -1.477   0.815  -8.925  0.00  0.00    +0.046 A 
ATOM     30  C   UNL     1      -1.597   1.014 -10.287  0.00  0.00    +0.008 A 
ATOM     31  C   UNL     1      -1.024   2.125 -10.878  0.00  0.00    -0.042 A 
ATOM     32  C   UNL     1      -0.330   3.040 -10.107  0.00  0.00    +0.008 A 
ATOM     33  C   UNL     1      -0.212   2.849  -8.744  0.00  0.00    +0.046 A 
BRANCH  31  34
ATOM     34  C   UNL     1      -1.155   2.339 -12.364  0.00  0.00    -0.013 C 
ATOM     35  C   UNL     1      -2.636   2.445 -12.734  0.00  0.00    +0.015 C 
ATOM     36  C   UNL     1      -0.437   3.631 -12.758  0.00  0.00    +0.015 C 
ATOM     37  C   UNL     1      -0.527   1.159 -13.107  0.00  0.00    +0.015 C 
ENDBRANCH  31  34
ENDBRANCH  27  28
ENDBRANCH  26  27
ENDBRANCH   4  26
TORSDOF 9
