REMARK  Name = ZINC16771207
REMARK  4 active torsions:
REMARK  status: ('A' for Active; 'I' for Inactive)
REMARK    1  A    between atoms: C_4  and  O_19
REMARK    2  A    between atoms: C_5  and  C_7
REMARK    3  A    between atoms: N_8  and  N_9
REMARK    4  A    between atoms: N_9  and  C_10
REMARK                            x       y       z     vdW  Elec       q    Type
REMARK                         _______ _______ _______ _____ _____    ______ ____
ROOT
ATOM      1  N   UNL     1      -1.045   3.000   0.777  0.00  0.00    -0.235 N 
ATOM      2  H   UNL     1      -0.202   3.482   0.773  0.00  0.00    +0.174 HD
ENDROOT
BRANCH   1   3
ATOM      3  C   UNL     1      -2.212   3.653   1.129  0.00  0.00    +0.087 A 
ATOM      4  C   UNL     1      -2.186   5.019   1.484  0.00  0.00    +0.158 A 
ATOM      5  N   UNL     1      -3.285   5.636   1.815  0.00  0.00    -0.177 NA
ATOM      6  N   UNL     1      -4.512   4.966   1.830  0.00  0.00    -0.242 N 
ATOM      7  H   UNL     1      -5.318   5.444   2.080  0.00  0.00    +0.192 HD
ATOM      8  C   UNL     1      -4.585   3.662   1.500  0.00  0.00    +0.281 A 
ATOM      9  O   UNL     1      -5.660   3.082   1.515  0.00  0.00    -0.265 OA
ATOM     10  C   UNL     1      -3.419   2.974   1.133  0.00  0.00    +0.107 A 
ATOM     11 BR   UNL     1      -3.492   1.146   0.656  0.00  0.00    -0.043 Br
ENDBRANCH   1   3
BRANCH   1  13
ATOM     12  C   UNL     1      -0.006   1.060  -0.014  0.00  0.00    +0.141 C 
ATOM     13  N   UNL     1      -1.079   1.644   0.427  0.00  0.00    -0.190 NA
BRANCH  12  18
ATOM     14  C   UNL     1       2.146   3.943  -1.082  0.00  0.00    +0.001 A 
ATOM     15  C   UNL     1       3.408   3.376  -1.026  0.00  0.00    +0.004 A 
ATOM     16  C   UNL     1       3.565   2.058  -0.642  0.00  0.00    +0.046 A 
ATOM     17  C   UNL     1       2.458   1.294  -0.310  0.00  0.00    +0.125 A 
ATOM     18  C   UNL     1       1.179   1.864  -0.365  0.00  0.00    +0.036 A 
ATOM     19  C   UNL     1       1.033   3.196  -0.759  0.00  0.00    +0.013 A 
BRANCH  17  20
ATOM     20  O   UNL     1       2.612  -0.002   0.067  0.00  0.00    -0.506 OA
ATOM     21  H   UNL     1       2.656  -0.624  -0.672  0.00  0.00    +0.292 HD
ENDBRANCH  17  20
ENDBRANCH  12  18
ENDBRANCH   1  13
TORSDOF 4
