REMARK  Name = ZINC16033787
REMARK  2 active torsions:
REMARK  status: ('A' for Active; 'I' for Inactive)
REMARK    1  A    between atoms: C_1  and  C_2
REMARK    2  A    between atoms: N_25  and  C_28
REMARK                            x       y       z     vdW  Elec       q    Type
REMARK                         _______ _______ _______ _____ _____    ______ ____
ROOT
ATOM      1  C   UNL     1      -1.229   2.622  -4.879  0.00  0.00    +0.044 C 
ATOM      2  C   UNL     1      -1.411   2.730  -3.387  0.00  0.00    -0.049 A 
ATOM      3  C   UNL     1      -0.565   2.043  -2.534  0.00  0.00    +0.008 A 
ATOM      4  C   UNL     1      -0.731   2.143  -1.171  0.00  0.00    -0.026 A 
ATOM      5  C   UNL     1      -1.744   2.931  -0.635  0.00  0.00    +0.054 A 
ATOM      6  C   UNL     1      -2.592   3.620  -1.501  0.00  0.00    +0.063 A 
ATOM      7  C   UNL     1      -2.422   3.517  -2.867  0.00  0.00    +0.025 A 
ATOM      8 CL   UNL     1      -3.865   4.611  -0.860  0.00  0.00    -0.082 Cl
ATOM      9  N   UNL     1      -1.713   2.875   0.760  0.00  0.00    -0.285 N 
ATOM     10  C   UNL     1      -0.724   2.083   1.214  0.00  0.00    +0.212 C 
ATOM     11  O   UNL     1      -0.460   1.847   2.375  0.00  0.00    -0.277 OA
ATOM     12  C   UNL     1      -0.009   1.545   0.004  0.00  0.00    +0.053 C 
ATOM     13  C   UNL     1       1.472   1.940   0.009  0.00  0.00    +0.089 C 
ATOM     14  C   UNL     1       2.212   0.685   0.550  0.00  0.00    +0.074 C 
ATOM     15  C   UNL     1       1.105  -0.350   0.821  0.00  0.00    -0.054 C 
ATOM     16  N   UNL     1      -0.045   0.074  -0.034  0.00  0.00    +0.395 N 
ATOM     17  C   UNL     1       0.302  -0.403  -1.394  0.00  0.00    -0.076 C 
ATOM     18  C   UNL     1       0.998  -1.762  -1.181  0.00  0.00    -0.020 C 
ATOM     19  C   UNL     1       1.538  -1.717   0.261  0.00  0.00    -0.016 C 
ATOM     20  C   UNL     1       3.053   0.227  -0.620  0.00  0.00    +0.228 C 
ATOM     21  O   UNL     1       3.794  -0.733  -0.617  0.00  0.00    -0.275 OA
ATOM     22  N   UNL     1       2.852   1.045  -1.659  0.00  0.00    -0.210 N 
ATOM     23  C   UNL     1       1.986   2.038  -1.426  0.00  0.00    +0.229 C 
ATOM     24  O   UNL     1       1.663   2.889  -2.227  0.00  0.00    -0.275 OA
ATOM     25  H   UNL     1      -2.448   3.443   1.350  0.00  0.00    +0.155 HD
ATOM     26  H   UNL     1      -1.036  -0.296   0.269  0.00  0.00    -0.079 HD
ENDROOT
BRANCH  22  27
ATOM     27  C   UNL     1       3.496   0.876  -2.894  0.00  0.00    +0.045 A 
ATOM     28  C   UNL     1       2.764   0.511  -4.016  0.00  0.00    +0.027 A 
ATOM     29  C   UNL     1       3.399   0.350  -5.232  0.00  0.00    +0.041 A 
ATOM     30  C   UNL     1       4.767   0.541  -5.331  0.00  0.00    +0.142 A 
ATOM     31  C   UNL     1       5.501   0.899  -4.211  0.00  0.00    +0.078 A 
ATOM     32  C   UNL     1       4.867   1.067  -2.994  0.00  0.00    +0.046 A 
ATOM     33 CL   UNL     1       7.215   1.138  -4.338  0.00  0.00    -0.081 Cl
ATOM     34  F   UNL     1       5.386   0.378  -6.520  0.00  0.00    -0.204 F 
ENDBRANCH  22  27
TORSDOF 1
