REMARK  Name = ZINC50900272
REMARK  9 active torsions:
REMARK  status: ('A' for Active; 'I' for Inactive)
REMARK    1  A    between atoms: C_1  and  C_2
REMARK    2  A    between atoms: C_2  and  C_3
REMARK    3  A    between atoms: C_3  and  N_4
REMARK    4  A    between atoms: C_5  and  C_7
REMARK    5  A    between atoms: N_12  and  C_14
REMARK    6  A    between atoms: C_14  and  N_15
REMARK    7  A    between atoms: N_18  and  C_21
REMARK    8  A    between atoms: C_24  and  C_28
REMARK    9  A    between atoms: C_26  and  C_27
REMARK                            x       y       z     vdW  Elec       q    Type
REMARK                         _______ _______ _______ _____ _____    ______ ____
ROOT
ATOM      1  C   UNL     1      -5.347  -6.697  -0.052  0.00  0.00    +0.073 C 
ENDROOT
BRANCH   1   6
ATOM      2  C   UNL     1      -2.551  -4.195   0.004  0.00  0.00    +0.058 C 
ATOM      3  C   UNL     1      -1.812  -4.703   1.245  0.00  0.00    +0.009 C 
ATOM      4  C   UNL     1      -1.865  -6.234   1.268  0.00  0.00    -0.018 C 
ATOM      5  C   UNL     1      -3.326  -6.689   1.235  0.00  0.00    -0.076 C 
ATOM      6  N   UNL     1      -3.969  -6.193   0.013  0.00  0.00    +0.393 N 
ATOM      7  C   UNL     1      -3.986  -4.726   0.017  0.00  0.00    -0.064 C 
ATOM      8  H   UNL     1      -3.455  -6.520  -0.792  0.00  0.00    -0.079 HD
BRANCH   2  10
ATOM      9  N   UNL     1      -1.413  -1.998   0.005  0.00  0.00    -0.315 N 
ATOM     10  C   UNL     1      -2.571  -2.688   0.012  0.00  0.00    +0.214 C 
ATOM     11  O   UNL     1      -3.630  -2.096   0.025  0.00  0.00    -0.276 OA
ATOM     12  H   UNL     1      -0.567  -2.472  -0.006  0.00  0.00    +0.149 HD
BRANCH   9  13
ATOM     13  C   UNL     1      -1.433  -0.534   0.013  0.00  0.00    +0.104 C 
BRANCH  13  15
ATOM     14  C   UNL     1      -0.019   1.526   0.010  0.00  0.00    +0.005 C 
ATOM     15  C   UNL     1       0.002  -0.004   0.002  0.00  0.00    +0.015 C 
ENDBRANCH  13  15
ENDBRANCH   9  13
ENDBRANCH   2  10
ENDBRANCH   1   6
BRANCH   1  16
ATOM     16  N   UNL     1      -5.328  -8.156  -0.187  0.00  0.00    -0.238 N 
ATOM     17  C   UNL     1      -5.580  -8.857  -1.314  0.00  0.00    +0.199 A 
ATOM     18  S   UNL     1      -5.982  -8.219  -2.851  0.00  0.00    -0.010 S 
ATOM     19  N   UNL     1      -5.453 -10.162  -0.987  0.00  0.00    -0.188 N 
ATOM     20  N   UNL     1      -5.116 -10.225   0.370  0.00  0.00    -0.040 NA
ATOM     21  N   UNL     1      -5.039  -9.078   0.826  0.00  0.00    -0.046 NA
BRANCH  19  22
ATOM     22  C   UNL     1      -5.627 -11.252  -1.849  0.00  0.00    +0.073 A 
ATOM     23  C   UNL     1      -4.896 -11.330  -3.028  0.00  0.00    +0.028 A 
ATOM     24  C   UNL     1      -5.069 -12.407  -3.875  0.00  0.00    +0.005 A 
ATOM     25  C   UNL     1      -5.969 -13.406  -3.551  0.00  0.00    -0.050 A 
ATOM     26  C   UNL     1      -6.698 -13.331  -2.379  0.00  0.00    +0.008 A 
ATOM     27  C   UNL     1      -6.525 -12.260  -1.524  0.00  0.00    -0.025 A 
ATOM     28  C   UNL     1      -7.314 -12.182  -0.243  0.00  0.00    +0.046 C 
ATOM     29  C   UNL     1      -6.155 -14.580  -4.479  0.00  0.00    +0.044 C 
ENDBRANCH  19  22
ENDBRANCH   1  16
TORSDOF 6
