REMARK  Name = ZINC63816126
REMARK  12 active torsions:
REMARK  status: ('A' for Active; 'I' for Inactive)
REMARK    1  A    between atoms: C_1  and  C_2
REMARK    2  A    between atoms: C_5  and  C_27
REMARK    3  A    between atoms: C_7  and  N_8
REMARK    4  A    between atoms: C_9  and  C_11
REMARK    5  A    between atoms: N_13  and  C_14
REMARK    6  A    between atoms: C_14  and  C_15
REMARK    7  A    between atoms: C_15  and  C_16
REMARK    8  A    between atoms: C_15  and  N_24
REMARK    9  A    between atoms: C_21  and  O_22
REMARK   10  A    between atoms: O_22  and  C_23
REMARK   11  A    between atoms: N_24  and  C_25
REMARK   12  A    between atoms: N_24  and  C_26
REMARK                            x       y       z     vdW  Elec       q    Type
REMARK                         _______ _______ _______ _____ _____    ______ ____
ROOT
ATOM      1  C   UNL     1      -1.045   1.703   6.098  0.00  0.00    +0.299 C 
ATOM      2  O   UNL     1      -0.132   1.808   5.305  0.00  0.00    -0.265 OA
ATOM      3  N   UNL     1      -0.890   0.956   7.209  0.00  0.00    -0.309 N 
ATOM      4  H   UNL     1      -1.620   0.872   7.843  0.00  0.00    +0.149 HD
ENDROOT
BRANCH   1   6
ATOM      5  N   UNL     1      -2.495   3.150   4.732  0.00  0.00    -0.277 N 
ATOM      6  C   UNL     1      -2.340   2.402   5.843  0.00  0.00    +0.303 C 
ATOM      7  O   UNL     1      -3.253   2.298   6.636  0.00  0.00    -0.265 OA
ATOM      8  H   UNL     1      -1.795   3.171   4.061  0.00  0.00    +0.155 HD
BRANCH   5  15
ATOM      9  C   UNL     1      -2.291   5.649   3.394  0.00  0.00    +0.045 C 
ATOM     10  C   UNL     1      -3.610   5.122   3.899  0.00  0.00    -0.029 A 
ATOM     11  C   UNL     1      -4.763   5.860   3.710  0.00  0.00    +0.006 A 
ATOM     12  C   UNL     1      -5.975   5.386   4.169  0.00  0.00    +0.019 A 
ATOM     13  C   UNL     1      -6.039   4.155   4.827  0.00  0.00    +0.054 A 
ATOM     14  C   UNL     1      -4.875   3.410   5.018  0.00  0.00    +0.042 A 
ATOM     15  C   UNL     1      -3.663   3.894   4.548  0.00  0.00    +0.038 A 
BRANCH  13  16
ATOM     16  C   UNL     1      -7.295   3.660   5.305  0.00  0.00    +0.099 C 
ATOM     17  N   UNL     1      -8.291   3.268   5.684  0.00  0.00    -0.191 NA
ENDBRANCH  13  16
ENDBRANCH   5  15
ENDBRANCH   1   6
BRANCH   3  18
ATOM     18  C   UNL     1       0.380   0.269   7.459  0.00  0.00    +0.094 C 
BRANCH  18  19
ATOM     19  C   UNL     1       0.250  -0.605   8.707  0.00  0.00    -0.017 C 
BRANCH  19  20
ATOM     20  C   UNL     1       0.020   0.271   9.912  0.00  0.00    -0.018 A 
ATOM     21  C   UNL     1      -1.256   0.428  10.419  0.00  0.00    +0.005 A 
ATOM     22  C   UNL     1      -1.468   1.232  11.524  0.00  0.00    +0.000 A 
ATOM     23  C   UNL     1      -0.404   1.879  12.125  0.00  0.00    +0.004 A 
ATOM     24  C   UNL     1       0.873   1.724  11.623  0.00  0.00    +0.046 A 
ATOM     25  C   UNL     1       1.089   0.914  10.517  0.00  0.00    +0.122 A 
BRANCH  25  26
ATOM     26  O   UNL     1       2.346   0.756  10.024  0.00  0.00    -0.495 OA
ATOM     27  C   UNL     1       3.398   1.449  10.698  0.00  0.00    +0.277 C 
ENDBRANCH  25  26
ENDBRANCH  19  20
BRANCH  19  28
ATOM     28  N   UNL     1      -0.885  -1.524   8.546  0.00  0.00    +0.382 N 
ATOM     29  C   UNL     1      -0.706  -2.312   7.319  0.00  0.00    -0.096 C 
ATOM     30  C   UNL     1      -0.952  -2.427   9.702  0.00  0.00    -0.096 C 
ATOM     31  H   UNL     1      -1.741  -0.993   8.483  0.00  0.00    -0.082 HD
ENDBRANCH  19  28
ENDBRANCH  18  19
ENDBRANCH   3  18
TORSDOF 8
