REMARK  Name = ZINC06264167
REMARK  12 active torsions:
REMARK  status: ('A' for Active; 'I' for Inactive)
REMARK    1  A    between atoms: C_1  and  C_2
REMARK    2  A    between atoms: C_2  and  C_3
REMARK    3  A    between atoms: C_3  and  C_4
REMARK    4  A    between atoms: C_4  and  C_5
REMARK    5  A    between atoms: C_5  and  N_6
REMARK    6  A    between atoms: C_7  and  C_9
REMARK    7  A    between atoms: C_9  and  N_65
REMARK    8  A    between atoms: C_12  and  O_30
REMARK    9  A    between atoms: C_19  and  C_21
REMARK   10  A    between atoms: C_24  and  O_29
REMARK   11  A    between atoms: C_25  and  O_27
REMARK   12  A    between atoms: O_27  and  C_28
REMARK                            x       y       z     vdW  Elec       q    Type
REMARK                         _______ _______ _______ _____ _____    ______ ____
ROOT
ATOM      1  C   UNL     1      -4.357   7.997   4.873  0.00  0.00    -0.075 C 
ATOM      2  C   UNL     1      -4.917   8.475   6.215  0.00  0.00    +0.016 C 
ATOM      3  C   UNL     1      -4.548   9.945   6.417  0.00  0.00    +0.066 C 
ATOM      4  C   UNL     1      -5.051  10.431   7.777  0.00  0.00    +0.035 C 
ATOM      5  C   UNL     1      -4.676  11.904   7.957  0.00  0.00    +0.003 C 
ATOM      6  C   UNL     1      -3.156  12.061   7.886  0.00  0.00    +0.000 C 
ATOM      7  C   UNL     1      -2.652  11.564   6.530  0.00  0.00    +0.005 C 
ATOM      8  C   UNL     1      -3.024  10.091   6.360  0.00  0.00    +0.011 C 
ATOM      9  C   UNL     1      -2.520   9.575   5.011  0.00  0.00    -0.031 C 
ATOM     10  N   UNL     1      -2.886   8.148   4.881  0.00  0.00    +0.390 N 
ATOM     11  H   UNL     1      -2.503   7.631   5.681  0.00  0.00    -0.080 HD
ENDROOT
BRANCH   9  12
ATOM     12  C   UNL     1      -3.137  10.386   3.901  0.00  0.00    -0.057 A 
ATOM     13  C   UNL     1      -3.902   9.761   2.934  0.00  0.00    +0.006 A 
ATOM     14  C   UNL     1      -4.475  10.501   1.916  0.00  0.00    +0.049 A 
ATOM     15  C   UNL     1      -4.272  11.870   1.857  0.00  0.00    +0.158 A 
ATOM     16  C   UNL     1      -3.497  12.498   2.827  0.00  0.00    +0.161 A 
ATOM     17  C   UNL     1      -2.931  11.752   3.848  0.00  0.00    +0.051 A 
BRANCH  16  18
ATOM     18  O   UNL     1      -3.295  13.842   2.773  0.00  0.00    -0.491 OA
ATOM     19  C   UNL     1      -2.489  14.419   3.801  0.00  0.00    +0.277 C 
ENDBRANCH  16  18
BRANCH  15  20
ATOM     20  O   UNL     1      -4.830  12.599   0.853  0.00  0.00    -0.503 OA
ATOM     21  H   UNL     1      -4.271  12.682   0.069  0.00  0.00    +0.292 HD
ENDBRANCH  15  20
ENDBRANCH   9  12
BRANCH   3  22
ATOM     22  O   UNL     1      -5.140  10.732   5.381  0.00  0.00    -0.388 OA
ATOM     23  H   UNL     1      -6.106  10.688   5.357  0.00  0.00    +0.210 HD
ENDBRANCH   3  22
BRANCH  10  24
ATOM     24  C   UNL     1      -2.316   7.593   3.636  0.00  0.00    +0.019 C 
BRANCH  24  26
ATOM     25  N   UNL     1      -1.896   5.347   2.689  0.00  0.00    -0.317 N 
ATOM     26  C   UNL     1      -2.377   6.089   3.706  0.00  0.00    +0.196 C 
ATOM     27  O   UNL     1      -2.858   5.546   4.678  0.00  0.00    -0.278 OA
ATOM     28  H   UNL     1      -1.511   5.781   1.912  0.00  0.00    +0.149 HD
BRANCH  25  29
ATOM     29  C   UNL     1      -1.955   3.885   2.757  0.00  0.00    +0.104 C 
BRANCH  29  30
ATOM     30  C   UNL     1      -1.348   3.289   1.485  0.00  0.00    +0.019 C 
BRANCH  30  31
ATOM     31  C   UNL     1      -1.410   1.762   1.557  0.00  0.00    +0.001 C 
BRANCH  31  33
ATOM     32  C   UNL     1      -0.865  -0.360   0.356  0.00  0.00    +0.004 C 
ATOM     33  C   UNL     1      -0.803   1.167   0.284  0.00  0.00    -0.003 C 
ENDBRANCH  31  33
ENDBRANCH  30  31
ENDBRANCH  29  30
ENDBRANCH  25  29
ENDBRANCH  24  26
ENDBRANCH  10  24
TORSDOF 10
