REMARK  Name = ZINC08306816
REMARK  10 active torsions:
REMARK  status: ('A' for Active; 'I' for Inactive)
REMARK    1  A    between atoms: C_1  and  C_2
REMARK    2  A    between atoms: C_5  and  C_29
REMARK    3  A    between atoms: C_6  and  C_8
REMARK    4  A    between atoms: C_10  and  C_25
REMARK    5  A    between atoms: C_11  and  C_16
REMARK    6  A    between atoms: C_16  and  N_52
REMARK    7  A    between atoms: C_17  and  C_18
REMARK    8  A    between atoms: C_17  and  N_52
REMARK    9  A    between atoms: C_25  and  O_27
REMARK   10  A    between atoms: O_27  and  C_28
REMARK                            x       y       z     vdW  Elec       q    Type
REMARK                         _______ _______ _______ _____ _____    ______ ____
ROOT
ATOM      1  C   UNL     1       3.525   2.321   0.203  0.00  0.00    +0.144 C 
ATOM      2  C   UNL     1       3.858   1.949   1.633  0.00  0.00    +0.076 C 
ATOM      3  C   UNL     1       3.635   2.874   2.592  0.00  0.00    +0.007 C 
ATOM      4  N   UNL     1       3.128   4.103   2.281  0.00  0.00    -0.274 N 
ATOM      5  C   UNL     1       2.816   4.484   1.036  0.00  0.00    +0.304 C 
ATOM      6  O   UNL     1       2.368   5.600   0.858  0.00  0.00    -0.252 OA
ATOM      7  N   UNL     1       2.982   3.671  -0.026  0.00  0.00    -0.288 N 
ATOM      8  H   UNL     1       2.985   4.735   3.003  0.00  0.00    +0.156 HD
ATOM      9  H   UNL     1       2.749   3.967  -0.919  0.00  0.00    +0.151 HD
ENDROOT
BRANCH   1  15
ATOM     10  C   UNL     1       0.042  -1.169   1.062  0.00  0.00    +0.044 C 
ATOM     11  C   UNL     1       0.858  -0.349   0.096  0.00  0.00    -0.050 A 
ATOM     12  C   UNL     1       0.683  -0.510  -1.266  0.00  0.00    +0.003 A 
ATOM     13  C   UNL     1       1.427   0.245  -2.152  0.00  0.00    +0.004 A 
ATOM     14  C   UNL     1       2.347   1.162  -1.677  0.00  0.00    -0.045 A 
ATOM     15  C   UNL     1       2.522   1.323  -0.315  0.00  0.00    -0.019 A 
ATOM     16  C   UNL     1       1.777   0.567   0.571  0.00  0.00    +0.009 A 
ATOM     17  C   UNL     1       3.159   1.985  -2.643  0.00  0.00    +0.044 C 
ENDBRANCH   1  15
BRANCH   2  18
ATOM     18  C   UNL     1       4.385   0.675   1.954  0.00  0.00    +0.338 C 
ATOM     19  O   UNL     1       5.534   0.402   1.663  0.00  0.00    -0.245 OA
BRANCH  18  20
ATOM     20  O   UNL     1       3.612  -0.235   2.583  0.00  0.00    -0.465 OA
ATOM     21  C   UNL     1       4.172  -1.536   2.779  0.00  0.00    +0.280 C 
ENDBRANCH  18  20
ENDBRANCH   2  18
BRANCH   3  22
ATOM     22  C   UNL     1       3.953   2.544   4.028  0.00  0.00    -0.030 C 
BRANCH  22  23
ATOM     23  N   UNL     1       5.040   3.424   4.496  0.00  0.00    +0.385 N 
ATOM     24  H   UNL     1       4.740   4.403   4.421  0.00  0.00    -0.085 HD
ATOM     25  H   UNL     1       5.872   3.276   3.913  0.00  0.00    -0.085 HD
BRANCH  23  26
ATOM     26  C   UNL     1       5.373   3.124   5.902  0.00  0.00    -0.046 C 
BRANCH  26  27
ATOM     27  C   UNL     1       6.484   4.036   6.352  0.00  0.00    -0.064 A 
ATOM     28  C   UNL     1       7.802   3.647   6.200  0.00  0.00    +0.004 A 
ATOM     29  C   UNL     1       8.822   4.486   6.608  0.00  0.00    +0.038 A 
ATOM     30  C   UNL     1       8.524   5.711   7.179  0.00  0.00    +0.123 A 
ATOM     31  C   UNL     1       7.204   6.097   7.336  0.00  0.00    +0.038 A 
ATOM     32  C   UNL     1       6.185   5.260   6.922  0.00  0.00    +0.004 A 
ATOM     33  F   UNL     1       9.520   6.529   7.584  0.00  0.00    -0.205 F 
ENDBRANCH  26  27
ENDBRANCH  23  26
ENDBRANCH  22  23
ENDBRANCH   3  22
TORSDOF 7
