REMARK  Name = ZINC04124644
REMARK  6 active torsions:
REMARK  status: ('A' for Active; 'I' for Inactive)
REMARK    1  A    between atoms: C_1  and  C_2
REMARK    2  A    between atoms: C_2  and  N_3
REMARK    3  A    between atoms: C_6  and  O_26
REMARK    4  A    between atoms: N_15  and  C_19
REMARK    5  A    between atoms: C_22  and  O_25
REMARK    6  A    between atoms: O_26  and  C_27
REMARK                            x       y       z     vdW  Elec       q    Type
REMARK                         _______ _______ _______ _____ _____    ______ ____
ROOT
ATOM      1  N   UNL     1      -7.282   4.079  -0.095  0.00  0.00    -0.293 N 
ATOM      2  C   UNL     1      -8.491   3.414  -0.189  0.00  0.00    +0.052 A 
ATOM      3  C   UNL     1      -9.779   3.978  -0.186  0.00  0.00    +0.070 A 
ATOM      4  C   UNL     1     -10.900   3.182  -0.287  0.00  0.00    +0.122 A 
ATOM      5  C   UNL     1     -10.793   1.801  -0.395  0.00  0.00    +0.047 A 
ATOM      6  C   UNL     1      -9.536   1.222  -0.400  0.00  0.00    +0.020 A 
ATOM      7  C   UNL     1      -8.419   2.018  -0.299  0.00  0.00    +0.036 A 
ATOM      8  S   UNL     1      -6.673   1.690  -0.275  0.00  0.00    -0.071 S 
ATOM      9  C   UNL     1      -6.107   3.376  -0.113  0.00  0.00    +0.092 C 
ATOM     10  C   UNL     1      -4.806   3.853  -0.032  0.00  0.00    +0.105 C 
ATOM     11  C   UNL     1      -3.590   3.144  -0.049  0.00  0.00    +0.265 C 
ATOM     12  O   UNL     1      -3.580   1.927  -0.147  0.00  0.00    -0.269 OA
ATOM     13  N   UNL     1      -2.461   3.823   0.044  0.00  0.00    -0.224 N 
ATOM     14  C   UNL     1      -2.471   5.171   0.158  0.00  0.00    +0.125 C 
ATOM     15  S   UNL     1      -1.149   6.250   0.297  0.00  0.00    -0.027 S 
ATOM     16  S   UNL     1      -4.220   5.535   0.124  0.00  0.00    -0.058 S 
ENDROOT
BRANCH  13  17
ATOM     17  C   UNL     1      -1.236   3.138   0.029  0.00  0.00    +0.043 A 
ATOM     18  C   UNL     1      -0.673   2.697   1.219  0.00  0.00    +0.027 A 
ATOM     19  C   UNL     1       0.534   2.027   1.205  0.00  0.00    +0.047 A 
ATOM     20  C   UNL     1       1.179   1.785   0.001  0.00  0.00    +0.117 A 
ATOM     21  C   UNL     1       0.614   2.221  -1.189  0.00  0.00    +0.047 A 
ATOM     22  C   UNL     1      -0.591   2.895  -1.175  0.00  0.00    +0.027 A 
BRANCH  20  23
ATOM     23  O   UNL     1       2.365   1.121  -0.013  0.00  0.00    -0.507 OA
ATOM     24  H   UNL     1       2.277   0.161  -0.094  0.00  0.00    +0.292 HD
ENDBRANCH  20  23
ENDBRANCH  13  17
BRANCH   1  26
ATOM     25  C   UNL     1      -7.202   6.163  -1.372  0.00  0.00    +0.025 C 
ATOM     26  C   UNL     1      -7.258   5.539   0.023  0.00  0.00    +0.108 C 
ENDBRANCH   1  26
BRANCH   4  27
ATOM     27  O   UNL     1     -12.131   3.758  -0.281  0.00  0.00    -0.495 OA
ATOM     28  C   UNL     1     -13.257   2.885  -0.388  0.00  0.00    +0.277 C 
ENDBRANCH   4  27
TORSDOF 4
