REMARK  Name = ZINC62552590
REMARK  5 active torsions:
REMARK  status: ('A' for Active; 'I' for Inactive)
REMARK    1  A    between atoms: C_1  and  C_2
REMARK    2  A    between atoms: C_5  and  O_8
REMARK    3  A    between atoms: O_8  and  C_9
REMARK    4  A    between atoms: C_9  and  C_10
REMARK    5  A    between atoms: C_15  and  O_23
REMARK                            x       y       z     vdW  Elec       q    Type
REMARK                         _______ _______ _______ _____ _____    ______ ____
ROOT
ATOM      1  C   UNL     1       0.090  -6.277   1.043  0.00  0.00    +0.257 C 
ATOM      2  O   UNL     1       0.187  -5.080   1.210  0.00  0.00    -0.272 OA
ATOM      3  N   UNL     1       0.004  -7.101   2.106  0.00  0.00    -0.268 N 
ATOM      4  C   UNL     1       0.027  -8.559   1.925  0.00  0.00    +0.116 C 
ATOM      5  C   UNL     1       0.970  -9.148   2.982  0.00  0.00    +0.055 C 
ATOM      6  C   UNL     1       0.400  -8.857   4.370  0.00  0.00    +0.148 C 
ATOM      7  C   UNL     1       0.078  -7.393   4.512  0.00  0.00    +0.002 A 
ATOM      8  C   UNL     1      -0.102  -6.582   3.404  0.00  0.00    +0.042 A 
ATOM      9  C   UNL     1      -0.397  -5.234   3.571  0.00  0.00    +0.024 A 
ATOM     10  C   UNL     1      -0.503  -4.702   4.841  0.00  0.00    +0.002 A 
ATOM     11  C   UNL     1      -0.314  -5.512   5.946  0.00  0.00    +0.000 A 
ATOM     12  C   UNL     1      -0.035  -6.852   5.781  0.00  0.00    +0.008 A 
ENDROOT
BRANCH   6  13
ATOM     13  O   UNL     1       1.361  -9.226   5.362  0.00  0.00    -0.387 OA
ATOM     14  H   UNL     1       1.069  -9.070   6.270  0.00  0.00    +0.210 HD
ENDBRANCH   6  13
BRANCH   1  15
ATOM     15  C   UNL     1       0.065  -6.844  -0.353  0.00  0.00    +0.325 C 
BRANCH  15  16
ATOM     16  O   UNL     1       0.046  -5.774  -1.301  0.00  0.00    -0.483 OA
BRANCH  16  21
ATOM     17  C   UNL     1      -0.050  -7.190  -6.752  0.00  0.00    +0.044 C 
ATOM     18  C   UNL     1      -0.025  -6.811  -5.293  0.00  0.00    -0.050 A 
ATOM     19  C   UNL     1      -0.021  -5.478  -4.926  0.00  0.00    +0.007 A 
ATOM     20  C   UNL     1       0.003  -5.128  -3.590  0.00  0.00    +0.046 A 
ATOM     21  C   UNL     1       0.022  -6.116  -2.616  0.00  0.00    +0.121 A 
ATOM     22  C   UNL     1       0.018  -7.453  -2.987  0.00  0.00    +0.046 A 
ATOM     23  C   UNL     1      -0.011  -7.797  -4.324  0.00  0.00    +0.007 A 
ENDBRANCH  16  21
ENDBRANCH  15  16
ENDBRANCH   1  15
TORSDOF 4
