REMARK  Name = ZINC07450672
REMARK  6 active torsions:
REMARK  status: ('A' for Active; 'I' for Inactive)
REMARK    1  A    between atoms: C_4  and  C_7
REMARK    2  A    between atoms: C_8  and  C_9
REMARK    3  A    between atoms: C_9  and  N_10
REMARK    4  A    between atoms: N_10  and  C_11
REMARK    5  A    between atoms: C_21  and  C_23
REMARK    6  A    between atoms: C_23  and  N_55
REMARK                            x       y       z     vdW  Elec       q    Type
REMARK                         _______ _______ _______ _____ _____    ______ ____
ROOT
ATOM      1  N   UNL     1       4.075  -0.648   0.807  0.00  0.00    -0.269 N 
ATOM      2  C   UNL     1       4.985   0.057   0.106  0.00  0.00    +0.203 C 
ATOM      3  O   UNL     1       5.980  -0.491  -0.320  0.00  0.00    -0.277 OA
ENDROOT
BRANCH   1   4
ATOM      4  C   UNL     1       2.887  -0.036   1.228  0.00  0.00    +0.040 A 
ATOM      5  C   UNL     1       1.686  -0.351   0.607  0.00  0.00    +0.027 A 
ATOM      6  C   UNL     1       0.514   0.252   1.021  0.00  0.00    +0.051 A 
ATOM      7  C   UNL     1       0.534   1.175   2.057  0.00  0.00    +0.162 A 
ATOM      8  C   UNL     1       1.735   1.490   2.682  0.00  0.00    +0.164 A 
ATOM      9  C   UNL     1       2.911   0.885   2.265  0.00  0.00    +0.073 A 
ATOM     10  O   UNL     1       1.773   2.386   3.706  0.00  0.00    -0.485 OA
ATOM     11  C   UNL     1       0.639   3.249   3.849  0.00  0.00    +0.270 C 
ATOM     12  C   UNL     1      -0.631   2.397   3.732  0.00  0.00    +0.270 C 
ATOM     13  O   UNL     1      -0.630   1.766   2.446  0.00  0.00    -0.485 OA
ENDBRANCH   1   4
BRANCH   1  14
ATOM     14  C   UNL     1       4.328  -2.055   1.128  0.00  0.00    +0.141 C 
BRANCH  14  16
ATOM     15  C   UNL     1       4.577  -3.800  -0.580  0.00  0.00    +0.005 C 
ATOM     16  C   UNL     1       3.784  -2.927   0.026  0.00  0.00    -0.007 C 
BRANCH  15  20
ATOM     17  C   UNL     1       3.044  -6.259  -3.686  0.00  0.00    +0.000 A 
ATOM     18  C   UNL     1       4.371  -6.371  -3.310  0.00  0.00    +0.001 A 
ATOM     19  C   UNL     1       4.875  -5.575  -2.302  0.00  0.00    +0.008 A 
ATOM     20  C   UNL     1       4.043  -4.656  -1.661  0.00  0.00    -0.025 A 
ATOM     21  C   UNL     1       2.705  -4.551  -2.042  0.00  0.00    +0.008 A 
ATOM     22  C   UNL     1       2.215  -5.349  -3.055  0.00  0.00    +0.001 A 
ENDBRANCH  15  20
ENDBRANCH  14  16
ENDBRANCH   1  14
BRANCH   2  23
ATOM     23  C   UNL     1       4.767   1.527  -0.147  0.00  0.00    +0.020 C 
BRANCH  23  31
ATOM     24  C   UNL     1       5.614   3.457  -1.344  0.00  0.00    -0.059 C 
ATOM     25  C   UNL     1       6.876   4.000  -2.017  0.00  0.00    +0.085 C 
ATOM     26  N   UNL     1       7.264   3.134  -3.126  0.00  0.00    -0.319 N 
ATOM     27  C   UNL     1       6.822   1.878  -3.257  0.00  0.00    +0.196 C 
ATOM     28  O   UNL     1       7.220   1.217  -4.193  0.00  0.00    -0.278 OA
ATOM     29  C   UNL     1       5.854   1.253  -2.293  0.00  0.00    +0.019 C 
ATOM     30  H   UNL     1       7.870   3.484  -3.798  0.00  0.00    +0.149 HD
ATOM     31  N   UNL     1       5.837   2.029  -1.039  0.00  0.00    +0.392 N 
ATOM     32  H   UNL     1       6.742   1.924  -0.567  0.00  0.00    -0.080 HD
ENDBRANCH  23  31
ENDBRANCH   2  23
TORSDOF 6
