REMARK  Name = ZINC13471707
REMARK  11 active torsions:
REMARK  status: ('A' for Active; 'I' for Inactive)
REMARK    1  A    between atoms: C_1  and  C_2
REMARK    2  A    between atoms: C_4  and  C_30
REMARK    3  A    between atoms: C_6  and  C_9
REMARK    4  A    between atoms: C_7  and  O_8
REMARK    5  A    between atoms: N_11  and  N_12
REMARK    6  A    between atoms: C_13  and  C_24
REMARK    7  A    between atoms: N_14  and  S_15
REMARK    8  A    between atoms: S_15  and  C_18
REMARK    9  A    between atoms: C_30  and  C_31
REMARK   10  A    between atoms: C_30  and  C_32
REMARK   11  A    between atoms: C_30  and  C_33
REMARK                            x       y       z     vdW  Elec       q    Type
REMARK                         _______ _______ _______ _____ _____    ______ ____
ROOT
ATOM      1  N   UNL     1      -0.021  -5.016   3.750  0.00  0.00    -0.246 N 
ATOM      2  C   UNL     1      -0.008  -6.381   3.564  0.00  0.00    +0.164 C 
ATOM      3  N   UNL     1       0.074  -6.874   2.361  0.00  0.00    -0.112 NA
ATOM      4  H   UNL     1      -0.082  -4.649   4.645  0.00  0.00    +0.172 HD
ENDROOT
BRANCH   2   5
ATOM      5  C   UNL     1      -0.089  -7.288   4.731  0.00  0.00    +0.018 A 
ATOM      6  C   UNL     1       1.002  -8.085   5.076  0.00  0.00    +0.011 A 
ATOM      7  C   UNL     1       0.920  -8.928   6.165  0.00  0.00    +0.001 A 
ATOM      8  C   UNL     1      -0.241  -8.984   6.915  0.00  0.00    +0.000 A 
ATOM      9  C   UNL     1      -1.327  -8.196   6.578  0.00  0.00    +0.001 A 
ATOM     10  C   UNL     1      -1.255  -7.344   5.495  0.00  0.00    +0.011 A 
ENDBRANCH   2   5
BRANCH   1  13
ATOM     11  C   UNL     1       0.044  -2.822   2.827  0.00  0.00    +0.264 C 
ATOM     12  O   UNL     1      -0.033  -2.362   3.950  0.00  0.00    -0.269 OA
ATOM     13  N   UNL     1       0.056  -4.158   2.645  0.00  0.00    -0.231 N 
ATOM     14  H   UNL     1       0.118  -4.525   1.749  0.00  0.00    +0.173 HD
BRANCH  11  20
ATOM     15  C   UNL     1       0.175   1.805   0.939  0.00  0.00    +0.047 C 
ATOM     16  C   UNL     1       0.188   0.311   0.747  0.00  0.00    -0.008 A 
ATOM     17  C   UNL     1       0.276  -0.221  -0.525  0.00  0.00    +0.011 A 
ATOM     18  C   UNL     1       0.289  -1.593  -0.711  0.00  0.00    -0.041 A 
ATOM     19  C   UNL     1       0.214  -2.443   0.372  0.00  0.00    +0.021 A 
ATOM     20  C   UNL     1       0.125  -1.919   1.663  0.00  0.00    +0.080 A 
ATOM     21  C   UNL     1       0.117  -0.529   1.848  0.00  0.00    +0.132 A 
BRANCH  18  22
ATOM     22  C   UNL     1       0.384  -2.160  -2.104  0.00  0.00    -0.013 C 
ATOM     23  C   UNL     1       1.681  -1.684  -2.761  0.00  0.00    +0.015 C 
ATOM     24  C   UNL     1       0.379  -3.688  -2.034  0.00  0.00    +0.015 C 
ATOM     25  C   UNL     1      -0.811  -1.683  -2.932  0.00  0.00    +0.015 C 
ENDBRANCH  18  22
BRANCH  21  26
ATOM     26  O   UNL     1       0.036  -0.009   3.098  0.00  0.00    -0.506 OA
ATOM     27  H   UNL     1      -0.869   0.142   3.403  0.00  0.00    +0.292 HD
ENDBRANCH  21  26
ENDBRANCH  11  20
ENDBRANCH   1  13
BRANCH   3  28
ATOM     28  S   UNL     1       0.184  -8.512   2.143  0.00  0.00    +0.100 S 
ATOM     29  O   UNL     1       1.432  -8.912   2.692  0.00  0.00    -0.146 OA
ATOM     30  O   UNL     1      -1.052  -9.063   2.578  0.00  0.00    -0.146 OA
BRANCH  28  31
ATOM     31  C   UNL     1       0.281  -8.801   0.407  0.00  0.00    +0.113 A 
ATOM     32  C   UNL     1      -0.875  -8.981  -0.329  0.00  0.00    +0.029 A 
ATOM     33  C   UNL     1      -0.798  -9.208  -1.690  0.00  0.00    +0.002 A 
ATOM     34  C   UNL     1       0.434  -9.254  -2.316  0.00  0.00    +0.000 A 
ATOM     35  C   UNL     1       1.590  -9.073  -1.579  0.00  0.00    +0.002 A 
ATOM     36  C   UNL     1       1.513  -8.842  -0.218  0.00  0.00    +0.029 A 
ENDBRANCH  28  31
ENDBRANCH   3  28
TORSDOF 7
