REMARK  Name = ZINC07091494
REMARK  6 active torsions:
REMARK  status: ('A' for Active; 'I' for Inactive)
REMARK    1  A    between atoms: C_1  and  C_2
REMARK    2  A    between atoms: C_2  and  C_4
REMARK    3  A    between atoms: C_2  and  N_47
REMARK    4  A    between atoms: C_10  and  C_12
REMARK    5  A    between atoms: C_10  and  C_13
REMARK    6  A    between atoms: C_10  and  N_47
REMARK                            x       y       z     vdW  Elec       q    Type
REMARK                         _______ _______ _______ _____ _____    ______ ____
ROOT
ATOM      1  N   UNL     1      -0.675   1.629   3.632  0.00  0.00    +0.388 N 
ATOM      2  H   UNL     1      -0.193   2.536   3.624  0.00  0.00    -0.084 HD
ATOM      3  H   UNL     1      -1.682   1.775   3.495  0.00  0.00    -0.084 HD
ENDROOT
BRANCH   1   5
ATOM      4  C   UNL     1       0.755   1.608   5.625  0.00  0.00    -0.004 C 
ATOM      5  C   UNL     1      -0.452   0.971   4.934  0.00  0.00    +0.014 C 
BRANCH   5   6
ATOM      6  C   UNL     1      -1.675   1.148   5.795  0.00  0.00    +0.206 C 
ATOM      7  O   UNL     1      -2.635   1.754   5.369  0.00  0.00    -0.277 OA
ATOM      8  N   UNL     1      -1.704   0.632   7.040  0.00  0.00    -0.242 N 
ATOM      9  C   UNL     1      -2.798   0.790   7.811  0.00  0.00    +0.303 C 
ATOM     10  O   UNL     1      -3.760   1.398   7.383  0.00  0.00    -0.253 OA
ATOM     11  N   UNL     1      -2.826   0.274   9.055  0.00  0.00    -0.313 N 
ATOM     12  H   UNL     1      -0.936   0.147   7.381  0.00  0.00    +0.159 HD
ATOM     13  H   UNL     1      -2.059  -0.211   9.397  0.00  0.00    +0.146 HD
ATOM     14  H   UNL     1      -3.614   0.388   9.610  0.00  0.00    +0.146 HD
ENDBRANCH   5   6
ENDBRANCH   1   5
BRANCH   1  15
ATOM     15  C   UNL     1      -0.151   0.790   2.538  0.00  0.00    -0.068 C 
ATOM     16  C   UNL     1       1.322   1.126   2.297  0.00  0.00    -0.013 C 
BRANCH  15  17
ATOM     17  C   UNL     1      -0.952   1.069   1.264  0.00  0.00    -0.041 C 
ATOM     18  C   UNL     1      -0.412   0.205   0.123  0.00  0.00    +0.009 C 
ATOM     19  C   UNL     1      -1.213   0.483  -1.151  0.00  0.00    -0.010 C 
ATOM     20  C   UNL     1      -1.081   1.961  -1.523  0.00  0.00    +0.007 C 
ATOM     21  C   UNL     1      -1.621   2.825  -0.382  0.00  0.00    -0.010 C 
ATOM     22  C   UNL     1      -0.821   2.547   0.892  0.00  0.00    +0.009 C 
ATOM     23  C   UNL     1      -3.095   2.489  -0.141  0.00  0.00    +0.007 C 
ATOM     24  C   UNL     1      -3.227   1.011   0.231  0.00  0.00    -0.010 C 
ATOM     25  C   UNL     1      -2.686   0.147  -0.910  0.00  0.00    +0.007 C 
ATOM     26  C   UNL     1      -2.425   0.733   1.505  0.00  0.00    +0.009 C 
ENDBRANCH  15  17
ENDBRANCH   1  15
TORSDOF 4
