REMARK  Name = ZINC12645374
REMARK  7 active torsions:
REMARK  status: ('A' for Active; 'I' for Inactive)
REMARK    1  A    between atoms: C_1  and  C_2
REMARK    2  A    between atoms: C_2  and  O_3
REMARK    3  A    between atoms: O_3  and  C_4
REMARK    4  A    between atoms: C_6  and  C_11
REMARK    5  A    between atoms: C_9  and  O_10
REMARK    6  A    between atoms: N_22  and  C_23
REMARK    7  A    between atoms: C_23  and  C_24
REMARK                            x       y       z     vdW  Elec       q    Type
REMARK                         _______ _______ _______ _____ _____    ______ ____
ROOT
ATOM      1  C   UNL     1      -0.429   1.965   1.433  0.00  0.00    +0.193 C 
ATOM      2  N   UNL     1      -0.114   3.385   1.278  0.00  0.00    -0.289 N 
ATOM      3  C   UNL     1       0.965   3.756   0.548  0.00  0.00    +0.247 C 
ATOM      4  O   UNL     1       1.282   4.925   0.438  0.00  0.00    -0.270 OA
ATOM      5  C   UNL     1       1.740   2.684  -0.108  0.00  0.00    +0.058 A 
ATOM      6  C   UNL     1       3.035   2.901  -0.568  0.00  0.00    +0.015 A 
ATOM      7  C   UNL     1       3.727   1.869  -1.168  0.00  0.00    +0.001 A 
ATOM      8  C   UNL     1       3.136   0.623  -1.312  0.00  0.00    +0.002 A 
ATOM      9  C   UNL     1       1.852   0.396  -0.862  0.00  0.00    +0.024 A 
ATOM     10  C   UNL     1       1.140   1.422  -0.257  0.00  0.00    +0.044 A 
ATOM     11  N   UNL     1      -0.152   1.223   0.202  0.00  0.00    -0.298 N 
ATOM     12  H   UNL     1      -0.675   4.057   1.696  0.00  0.00    +0.151 HD
ENDROOT
BRANCH   1  15
ATOM     13  C   UNL     1       0.556   0.181   4.614  0.00  0.00    +0.162 A 
ATOM     14  C   UNL     1      -0.208   0.711   3.587  0.00  0.00    +0.056 A 
ATOM     15  C   UNL     1       0.403   1.394   2.552  0.00  0.00    -0.006 A 
ATOM     16  C   UNL     1       1.776   1.558   2.543  0.00  0.00    +0.011 A 
ATOM     17  C   UNL     1       2.544   1.037   3.568  0.00  0.00    +0.049 A 
ATOM     18  C   UNL     1       1.938   0.347   4.606  0.00  0.00    +0.158 A 
BRANCH  18  19
ATOM     19  O   UNL     1       2.692  -0.166   5.615  0.00  0.00    -0.503 OA
ATOM     20  H   UNL     1       2.822   0.441   6.356  0.00  0.00    +0.292 HD
ENDBRANCH  18  19
BRANCH  13  21
ATOM     21  O   UNL     1      -0.043  -0.495   5.631  0.00  0.00    -0.489 OA
BRANCH  21  23
ATOM     22  C   UNL     1      -1.954  -1.410   6.793  0.00  0.00    +0.048 C 
ATOM     23  C   UNL     1      -1.464  -0.626   5.573  0.00  0.00    +0.226 C 
ENDBRANCH  21  23
ENDBRANCH  13  21
ENDBRANCH   1  15
BRANCH  11  24
ATOM     24  C   UNL     1      -0.434  -0.209   0.375  0.00  0.00    +0.202 C 
BRANCH  24  25
ATOM     25  C   UNL     1      -1.850  -0.387   0.860  0.00  0.00    +0.228 C 
ATOM     26  O   UNL     1      -2.599   0.566   0.908  0.00  0.00    -0.274 OA
ATOM     27  N   UNL     1      -2.284  -1.604   1.242  0.00  0.00    -0.328 N 
ATOM     28  H   UNL     1      -1.665  -2.351   1.273  0.00  0.00    +0.145 HD
ATOM     29  H   UNL     1      -3.214  -1.734   1.485  0.00  0.00    +0.145 HD
ENDBRANCH  24  25
ENDBRANCH  11  24
TORSDOF 6
