REMARK  Name = ZINC40901515
REMARK  14 active torsions:
REMARK  status: ('A' for Active; 'I' for Inactive)
REMARK    1  A    between atoms: C_1  and  C_2
REMARK    2  A    between atoms: C_2  and  C_3
REMARK    3  A    between atoms: C_2  and  C_4
REMARK    4  A    between atoms: C_4  and  C_5
REMARK    5  A    between atoms: C_7  and  C_14
REMARK    6  A    between atoms: C_10  and  C_11
REMARK    7  A    between atoms: C_17  and  C_20
REMARK    8  A    between atoms: C_20  and  C_21
REMARK    9  A    between atoms: C_21  and  N_22
REMARK   10  A    between atoms: N_22  and  C_23
REMARK   11  A    between atoms: C_23  and  C_24
REMARK   12  A    between atoms: C_24  and  C_26
REMARK   13  A    between atoms: C_24  and  O_33
REMARK   14  A    between atoms: C_31  and  N_32
REMARK                            x       y       z     vdW  Elec       q    Type
REMARK                         _______ _______ _______ _____ _____    ______ ____
ROOT
ATOM      1  C   UNL     1       4.379   2.604  -2.625  0.00  0.00    -0.018 A 
ATOM      2  C   UNL     1       3.464   3.350  -3.368  0.00  0.00    +0.009 A 
ATOM      3  C   UNL     1       3.891   4.457  -4.072  0.00  0.00    +0.004 A 
ATOM      4  C   UNL     1       5.223   4.828  -4.041  0.00  0.00    -0.049 A 
ATOM      5  C   UNL     1       6.135   4.092  -3.306  0.00  0.00    +0.004 A 
ATOM      6  C   UNL     1       5.719   2.986  -2.594  0.00  0.00    +0.009 A 
ENDROOT
BRANCH   1   9
ATOM      7  C   UNL     1       2.163  -0.071  -1.197  0.00  0.00    -0.032 A 
ATOM      8  C   UNL     1       2.584   1.034  -1.900  0.00  0.00    +0.013 A 
ATOM      9  C   UNL     1       3.926   1.413  -1.866  0.00  0.00    -0.018 A 
ATOM     10  C   UNL     1       4.844   0.673  -1.120  0.00  0.00    +0.009 A 
ATOM     11  C   UNL     1       4.426  -0.433  -0.416  0.00  0.00    +0.016 A 
ATOM     12  C   UNL     1       3.079  -0.811  -0.444  0.00  0.00    +0.066 A 
BRANCH  12  13
ATOM     13  C   UNL     1       2.629  -1.991   0.315  0.00  0.00    +0.387 C 
ATOM     14  O   UNL     1       3.409  -2.580   1.052  0.00  0.00    -0.241 OA
ATOM     15  O   UNL     1       1.475  -2.383   0.209  0.00  0.00    -0.241 OA
ENDBRANCH  12  13
BRANCH   7  16
ATOM     16  C   UNL     1       0.713  -0.481  -1.234  0.00  0.00    +0.039 C 
BRANCH  16  18
ATOM     17  C   UNL     1       0.013   1.488   0.135  0.00  0.00    +0.007 C 
ATOM     18  C   UNL     1       0.025  -0.040   0.060  0.00  0.00    -0.013 C 
ATOM     19  C   UNL     1      -1.412  -0.563   0.077  0.00  0.00    +0.007 C 
ENDBRANCH  16  18
ENDBRANCH   7  16
ENDBRANCH   1   9
BRANCH   4  20
ATOM     20  C   UNL     1       5.683   6.039  -4.812  0.00  0.00    +0.016 C 
BRANCH  20  21
ATOM     21  C   UNL     1       5.581   7.279  -3.922  0.00  0.00    -0.078 C 
BRANCH  21  22
ATOM     22  N   UNL     1       6.029   8.459  -4.674  0.00  0.00    +0.381 N 
ATOM     23  H   UNL     1       6.987   8.330  -4.963  0.00  0.00    -0.086 HD
ATOM     24  H   UNL     1       5.446   8.581  -5.489  0.00  0.00    -0.086 HD
BRANCH  22  25
ATOM     25  C   UNL     1       5.931   9.650  -3.820  0.00  0.00    -0.046 C 
BRANCH  25  26
ATOM     26  C   UNL     1       6.398  10.879  -4.603  0.00  0.00    +0.131 C 
BRANCH  26  27
ATOM     27  C   UNL     1       6.297  12.101  -3.726  0.00  0.00    +0.016 A 
ATOM     28  C   UNL     1       7.396  12.550  -3.024  0.00  0.00    +0.090 A 
ATOM     29  N   UNL     1       7.316  13.619  -2.254  0.00  0.00    -0.367 N 
ATOM     30  C   UNL     1       6.194  14.302  -2.122  0.00  0.00    +0.084 A 
ATOM     31  C   UNL     1       5.051  13.919  -2.791  0.00  0.00    +0.040 A 
ATOM     32  C   UNL     1       5.094  12.797  -3.619  0.00  0.00    +0.033 A 
ATOM     33  H   UNL     1       8.105  13.912  -1.772  0.00  0.00    +0.165 HD
BRANCH  32  34
ATOM     34  N   UNL     1       3.963  12.380  -4.315  0.00  0.00    -0.358 N 
ATOM     35  H   UNL     1       4.006  11.597  -4.885  0.00  0.00    +0.142 HD
ATOM     36  H   UNL     1       3.132  12.874  -4.231  0.00  0.00    +0.142 HD
ENDBRANCH  32  34
ENDBRANCH  26  27
BRANCH  26  37
ATOM     37  O   UNL     1       7.755  10.697  -5.011  0.00  0.00    -0.389 OA
ATOM     38  H   UNL     1       8.373  10.573  -4.278  0.00  0.00    +0.210 HD
ENDBRANCH  26  37
ENDBRANCH  25  26
ENDBRANCH  22  25
ENDBRANCH  21  22
ENDBRANCH  20  21
ENDBRANCH   4  20
TORSDOF 12
