REMARK  Name = ZINC36746960
REMARK  7 active torsions:
REMARK  status: ('A' for Active; 'I' for Inactive)
REMARK    1  A    between atoms: C_3  and  O_22
REMARK    2  A    between atoms: C_6  and  C_7
REMARK    3  A    between atoms: C_7  and  C_9
REMARK    4  A    between atoms: C_7  and  N_16
REMARK    5  A    between atoms: N_16  and  C_17
REMARK    6  A    between atoms: C_17  and  C_18
REMARK    7  A    between atoms: C_18  and  C_19
REMARK                            x       y       z     vdW  Elec       q    Type
REMARK                         _______ _______ _______ _____ _____    ______ ____
ROOT
ATOM      1  C   UNL     1      -1.293  -0.774   0.011  0.00  0.00    -0.010 C 
ENDROOT
BRANCH   1   2
ATOM      2  C   UNL     1      -1.613  -1.235  -1.388  0.00  0.00    -0.057 A 
ATOM      3  C   UNL     1      -0.995  -2.359  -1.903  0.00  0.00    +0.004 A 
ATOM      4  C   UNL     1      -1.287  -2.783  -3.186  0.00  0.00    +0.020 A 
ATOM      5  C   UNL     1      -2.199  -2.082  -3.954  0.00  0.00    +0.041 A 
ATOM      6  C   UNL     1      -2.818  -0.957  -3.438  0.00  0.00    +0.020 A 
ATOM      7  C   UNL     1      -2.529  -0.537  -2.153  0.00  0.00    +0.004 A 
ATOM      8 CL   UNL     1      -2.567  -2.612  -5.566  0.00  0.00    -0.084 Cl
ENDBRANCH   1   2
BRANCH   1  14
ATOM      9  C   UNL     1      -0.017   1.378   0.010  0.00  0.00    +0.006 A 
ATOM     10  C   UNL     1       1.169   2.087   0.002  0.00  0.00    +0.045 A 
ATOM     11  C   UNL     1       2.380   1.409  -0.013  0.00  0.00    +0.117 A 
ATOM     12  C   UNL     1       2.396   0.022  -0.021  0.00  0.00    +0.045 A 
ATOM     13  C   UNL     1       1.207  -0.681  -0.013  0.00  0.00    +0.006 A 
ATOM     14  C   UNL     1       0.002  -0.004   0.002  0.00  0.00    -0.057 A 
BRANCH  11  15
ATOM     15  O   UNL     1       3.548   2.104  -0.021  0.00  0.00    -0.507 OA
ATOM     16  H   UNL     1       3.895   2.300   0.860  0.00  0.00    +0.292 HD
ENDBRANCH  11  15
ENDBRANCH   1  14
BRANCH   1  17
ATOM     17  N   UNL     1      -1.163  -1.941   0.893  0.00  0.00    +0.387 N 
ATOM     18  H   UNL     1      -0.478  -2.576   0.513  0.00  0.00    -0.085 HD
ATOM     19  H   UNL     1      -0.869  -1.638   1.810  0.00  0.00    -0.085 HD
BRANCH  17  20
ATOM     20  C   UNL     1      -2.460  -2.624   0.996  0.00  0.00    -0.072 C 
BRANCH  20  21
ATOM     21  C   UNL     1      -2.325  -3.839   1.916  0.00  0.00    +0.076 C 
BRANCH  21  22
ATOM     22  C   UNL     1      -3.655  -4.540   2.021  0.00  0.00    +0.209 C 
ATOM     23  O   UNL     1      -4.616  -4.109   1.420  0.00  0.00    -0.276 OA
ATOM     24  N   UNL     1      -3.776  -5.645   2.783  0.00  0.00    -0.329 N 
ATOM     25  H   UNL     1      -3.007  -5.989   3.264  0.00  0.00    +0.145 HD
ATOM     26  H   UNL     1      -4.632  -6.096   2.851  0.00  0.00    +0.145 HD
ENDBRANCH  21  22
ENDBRANCH  20  21
ENDBRANCH  17  20
ENDBRANCH   1  17
TORSDOF 7
