REMARK  Name = ZINC16880973
REMARK  8 active torsions:
REMARK  status: ('A' for Active; 'I' for Inactive)
REMARK    1  A    between atoms: C_1  and  C_2
REMARK    2  A    between atoms: C_2  and  C_3
REMARK    3  A    between atoms: C_3  and  C_4
REMARK    4  A    between atoms: C_5  and  O_21
REMARK    5  A    between atoms: N_8  and  C_11
REMARK    6  A    between atoms: C_11  and  C_12
REMARK    7  A    between atoms: C_15  and  C_19
REMARK    8  A    between atoms: C_17  and  C_18
REMARK                            x       y       z     vdW  Elec       q    Type
REMARK                         _______ _______ _______ _____ _____    ______ ____
ROOT
ATOM      1  C   UNL     1       1.175   1.922   0.057  0.00  0.00    +0.078 A 
ATOM      2  C   UNL     1       1.132   3.305   0.015  0.00  0.00    +0.224 A 
ATOM      3  N   UNL     1      -0.048   3.932  -0.021  0.00  0.00    -0.181 NA
ATOM      4  C   UNL     1      -1.179   3.258  -0.019  0.00  0.00    +0.199 A 
ATOM      5  N   UNL     1      -1.192   1.898   0.015  0.00  0.00    -0.276 N 
ATOM      6  C   UNL     1      -0.032   1.211   0.059  0.00  0.00    +0.262 A 
ATOM      7  O   UNL     1      -0.033  -0.009   0.095  0.00  0.00    -0.267 OA
ATOM      8  N   UNL     1      -2.366   3.939  -0.057  0.00  0.00    -0.329 N 
ATOM      9  H   UNL     1      -2.371   4.909  -0.015  0.00  0.00    +0.145 HD
ATOM     10  H   UNL     1      -3.203   3.453  -0.127  0.00  0.00    +0.145 HD
ENDROOT
BRANCH   2  11
ATOM     11  O   UNL     1       2.281   4.020   0.011  0.00  0.00    -0.492 OA
ATOM     12  H   UNL     1       2.148   4.978  -0.019  0.00  0.00    +0.294 HD
ENDBRANCH   2  11
BRANCH   1  13
ATOM     13  C   UNL     1       2.494   1.196   0.098  0.00  0.00    +0.046 C 
BRANCH  13  15
ATOM     14  C   UNL     1       4.198   0.145   1.594  0.00  0.00    +0.004 C 
ATOM     15  C   UNL     1       2.858   0.883   1.551  0.00  0.00    +0.002 C 
ENDBRANCH  13  15
ENDBRANCH   1  13
BRANCH   5  16
ATOM     16  C   UNL     1      -2.468   1.178   0.011  0.00  0.00    +0.163 C 
BRANCH  16  17
ATOM     17  C   UNL     1      -2.978   1.049   1.423  0.00  0.00    -0.025 A 
ATOM     18  C   UNL     1      -2.291   1.648   2.463  0.00  0.00    +0.006 A 
ATOM     19  C   UNL     1      -2.760   1.534   3.758  0.00  0.00    +0.004 A 
ATOM     20  C   UNL     1      -3.911   0.812   4.014  0.00  0.00    -0.050 A 
ATOM     21  C   UNL     1      -4.595   0.210   2.976  0.00  0.00    +0.007 A 
ATOM     22  C   UNL     1      -4.128   0.328   1.680  0.00  0.00    -0.045 A 
ATOM     23  C   UNL     1      -4.874  -0.330   0.547  0.00  0.00    +0.044 C 
ATOM     24  C   UNL     1      -4.420   0.683   5.427  0.00  0.00    +0.044 C 
ENDBRANCH  16  17
ENDBRANCH   5  16
TORSDOF 5
