REMARK  Name = ZINC39676248
REMARK  7 active torsions:
REMARK  status: ('A' for Active; 'I' for Inactive)
REMARK    1  A    between atoms: C_1  and  C_2
REMARK    2  A    between atoms: C_2  and  O_3
REMARK    3  A    between atoms: O_3  and  C_4
REMARK    4  A    between atoms: C_9  and  C_10
REMARK    5  A    between atoms: C_14  and  C_23
REMARK    6  A    between atoms: N_25  and  C_26
REMARK    7  A    between atoms: C_26  and  C_27
REMARK                            x       y       z     vdW  Elec       q    Type
REMARK                         _______ _______ _______ _____ _____    ______ ____
ROOT
ATOM      1  C   UNL     1      -3.847  -1.687   0.105  0.00  0.00    +0.250 C 
ATOM      2  O   UNL     1      -3.670  -0.485   0.135  0.00  0.00    -0.270 OA
ATOM      3  N   UNL     1      -5.092  -2.181  -0.038  0.00  0.00    -0.296 N 
ATOM      4  C   UNL     1      -5.518  -3.600   0.010  0.00  0.00    +0.121 C 
ATOM      5  C   UNL     1      -6.862  -3.579   0.772  0.00  0.00    +0.100 C 
ATOM      6  C   UNL     1      -7.401  -2.152   0.576  0.00  0.00    -0.004 C 
ATOM      7  C   UNL     1      -6.347  -1.428  -0.274  0.00  0.00    +0.115 C 
ATOM      8  C   UNL     1      -7.553  -1.454   1.925  0.00  0.00    -0.010 C 
ATOM      9  C   UNL     1      -8.144  -0.059   1.708  0.00  0.00    -0.082 C 
ATOM     10  N   UNL     1      -9.449  -0.175   1.046  0.00  0.00    +0.379 N 
ATOM     11  C   UNL     1      -9.282  -0.763  -0.289  0.00  0.00    -0.082 C 
ATOM     12  C   UNL     1      -8.739  -2.188  -0.157  0.00  0.00    -0.010 C 
ATOM     13  H   UNL     1     -10.053  -0.765   1.598  0.00  0.00    -0.086 HD
ATOM     14  H   UNL     1      -9.864   0.741   0.960  0.00  0.00    -0.086 HD
ENDROOT
BRANCH   1  20
ATOM     15  C   UNL     1      -1.604  -2.263   1.032  0.00  0.00    +0.133 A 
ATOM     16  C   UNL     1      -0.532  -3.136   1.143  0.00  0.00    +0.046 A 
ATOM     17  C   UNL     1      -0.542  -4.335   0.458  0.00  0.00    +0.004 A 
ATOM     18  C   UNL     1      -1.619  -4.674  -0.344  0.00  0.00    +0.001 A 
ATOM     19  C   UNL     1      -2.693  -3.819  -0.466  0.00  0.00    +0.017 A 
ATOM     20  C   UNL     1      -2.698  -2.605   0.227  0.00  0.00    +0.078 A 
BRANCH  15  21
ATOM     21  O   UNL     1      -1.595  -1.085   1.705  0.00  0.00    -0.491 OA
BRANCH  21  23
ATOM     22  C   UNL     1      -0.617   0.558   3.182  0.00  0.00    +0.048 C 
ATOM     23  C   UNL     1      -0.446  -0.803   2.506  0.00  0.00    +0.226 C 
ENDBRANCH  21  23
ENDBRANCH  15  21
ENDBRANCH   1  20
BRANCH   5  24
ATOM     24  C   UNL     1      -7.814  -4.588   0.184  0.00  0.00    +0.219 C 
ATOM     25  O   UNL     1      -7.758  -4.858  -0.997  0.00  0.00    -0.275 OA
ATOM     26  N   UNL     1      -8.729  -5.189   0.971  0.00  0.00    -0.308 N 
ATOM     27  H   UNL     1      -8.774  -4.973   1.915  0.00  0.00    +0.149 HD
BRANCH  26  28
ATOM     28  C   UNL     1      -9.655  -6.170   0.399  0.00  0.00    +0.178 C 
BRANCH  28  29
ATOM     29  C   UNL     1     -10.567  -6.689   1.480  0.00  0.00    +0.128 A 
ATOM     30  N   UNL     1     -11.500  -7.619   1.145  0.00  0.00    -0.309 N 
ATOM     31  H   UNL     1     -11.562  -7.929   0.228  0.00  0.00    +0.170 HD
ATOM     32  C   UNL     1     -12.342  -8.117   2.080  0.00  0.00    +0.259 A 
ATOM     33  O   UNL     1     -13.182  -8.951   1.794  0.00  0.00    -0.267 OA
ATOM     34  C   UNL     1     -12.204  -7.612   3.454  0.00  0.00    +0.065 A 
ATOM     35  C   UNL     1     -13.022  -8.060   4.489  0.00  0.00    +0.015 A 
ATOM     36  C   UNL     1     -12.850  -7.552   5.758  0.00  0.00    +0.001 A 
ATOM     37  C   UNL     1     -11.869  -6.602   6.012  0.00  0.00    +0.002 A 
ATOM     38  C   UNL     1     -11.051  -6.146   5.003  0.00  0.00    +0.028 A 
ATOM     39  C   UNL     1     -11.206  -6.646   3.708  0.00  0.00    +0.078 A 
ATOM     40  N   UNL     1     -10.418  -6.229   2.685  0.00  0.00    -0.232 NA
ENDBRANCH  28  29
ENDBRANCH  26  28
ENDBRANCH   5  24
TORSDOF 6
