REMARK  Name = ZINC40400482
REMARK  5 active torsions:
REMARK  status: ('A' for Active; 'I' for Inactive)
REMARK    1  A    between atoms: C_1  and  C_2
REMARK    2  A    between atoms: C_5  and  N_8
REMARK    3  A    between atoms: C_21  and  C_23
REMARK    4  A    between atoms: N_25  and  C_26
REMARK    5  A    between atoms: C_31  and  N_32
REMARK                            x       y       z     vdW  Elec       q    Type
REMARK                         _______ _______ _______ _____ _____    ______ ____
ROOT
ATOM      1  N   UNL     1       0.132  -4.319  -0.073  0.00  0.00    -0.285 N 
ATOM      2  C   UNL     1       0.238  -4.975   1.127  0.00  0.00    +0.202 A 
ATOM      3  N   UNL     1       0.385  -6.328   1.135  0.00  0.00    -0.295 N 
ATOM      4  H   UNL     1       0.425  -6.816   0.297  0.00  0.00    +0.172 HD
ATOM      5  C   UNL     1       0.474  -6.992   2.307  0.00  0.00    +0.258 A 
ATOM      6  O   UNL     1       0.589  -8.207   2.328  0.00  0.00    -0.267 OA
ATOM      7  C   UNL     1       0.432  -6.258   3.497  0.00  0.00    +0.069 A 
ATOM      8  C   UNL     1       0.302  -4.882   3.436  0.00  0.00    +0.138 A 
ATOM      9  N   UNL     1       0.202  -4.280   2.245  0.00  0.00    -0.200 NA
ATOM     10  N   UNL     1       0.302  -4.129   4.597  0.00  0.00    -0.270 N 
ATOM     11  C   UNL     1       0.681  -4.666   5.769  0.00  0.00    +0.219 C 
ATOM     12  O   UNL     1       0.570  -4.019   6.789  0.00  0.00    -0.275 OA
ATOM     13  C   UNL     1       1.243  -6.062   5.831  0.00  0.00    +0.114 C 
ATOM     14  C   UNL     1       0.515  -6.957   4.827  0.00  0.00    +0.122 C 
ATOM     15  H   UNL     1       0.080  -4.825  -0.899  0.00  0.00    +0.155 HD
ATOM     16  H   UNL     1       0.023  -3.201   4.565  0.00  0.00    +0.156 HD
ENDROOT
BRANCH   1  21
ATOM     17  C   UNL     1      -0.007   1.350  -0.205  0.00  0.00    +0.044 C 
ATOM     18  C   UNL     1       0.030  -0.156  -0.170  0.00  0.00    -0.050 A 
ATOM     19  C   UNL     1       0.789  -0.805   0.786  0.00  0.00    +0.005 A 
ATOM     20  C   UNL     1       0.825  -2.186   0.822  0.00  0.00    +0.023 A 
ATOM     21  C   UNL     1       0.097  -2.921  -0.105  0.00  0.00    +0.034 A 
ATOM     22  C   UNL     1      -0.664  -2.266  -1.064  0.00  0.00    +0.023 A 
ATOM     23  C   UNL     1      -0.700  -0.886  -1.091  0.00  0.00    +0.005 A 
ENDBRANCH   1  21
BRANCH  14  24
ATOM     24  C   UNL     1      -0.876  -7.247   5.330  0.00  0.00    +0.225 C 
ATOM     25  O   UNL     1      -1.840  -6.918   4.671  0.00  0.00    -0.275 OA
ATOM     26  N   UNL     1      -1.049  -7.872   6.511  0.00  0.00    -0.283 N 
ATOM     27  H   UNL     1      -0.283  -8.071   7.072  0.00  0.00    +0.155 HD
BRANCH  26  28
ATOM     28  C   UNL     1      -2.334  -8.235   6.929  0.00  0.00    +0.064 A 
ATOM     29  C   UNL     1      -3.413  -7.400   6.667  0.00  0.00    +0.025 A 
ATOM     30  C   UNL     1      -4.680  -7.761   7.080  0.00  0.00    +0.002 A 
ATOM     31  C   UNL     1      -4.876  -8.952   7.756  0.00  0.00    +0.002 A 
ATOM     32  C   UNL     1      -3.804  -9.784   8.019  0.00  0.00    +0.034 A 
ATOM     33  C   UNL     1      -2.535  -9.432   7.603  0.00  0.00    +0.147 A 
BRANCH  33  34
ATOM     34  N   UNL     1      -1.389 -10.328   7.879  0.00  0.00    +0.058 N 
ATOM     35  O   UNL     1      -1.575 -11.405   8.396  0.00  0.00    -0.126 OA
ATOM     36  O   UNL     1      -0.268  -9.983   7.587  0.00  0.00    -0.126 OA
ENDBRANCH  33  34
ENDBRANCH  26  28
ENDBRANCH  14  24
TORSDOF 4
