REMARK  Name = ZINC28048834
REMARK  11 active torsions:
REMARK  status: ('A' for Active; 'I' for Inactive)
REMARK    1  A    between atoms: C_1  and  C_2
REMARK    2  A    between atoms: C_2  and  C_3
REMARK    3  A    between atoms: C_3  and  N_4
REMARK    4  A    between atoms: C_13  and  O_14
REMARK    5  A    between atoms: C_15  and  N_16
REMARK    6  A    between atoms: N_19  and  C_20
REMARK    7  A    between atoms: C_20  and  C_21
REMARK    8  A    between atoms: C_24  and  C_27
REMARK    9  A    between atoms: C_27  and  O_29
REMARK   10  A    between atoms: O_29  and  C_30
REMARK   11  A    between atoms: C_30  and  C_31
REMARK                            x       y       z     vdW  Elec       q    Type
REMARK                         _______ _______ _______ _____ _____    ______ ____
ROOT
ATOM      1  N   UNL     1      -2.886   0.300  -1.199  0.00  0.00    -0.262 N 
ATOM      2  C   UNL     1      -1.545   0.438  -1.208  0.00  0.00    +0.304 C 
ATOM      3  O   UNL     1      -1.037   1.466  -0.803  0.00  0.00    -0.253 OA
ATOM      4  N   UNL     1      -0.768  -0.563  -1.667  0.00  0.00    -0.299 N 
ATOM      5  H   UNL     1      -3.352  -0.573  -1.680  0.00  0.00    +0.157 HD
ATOM      6  H   UNL     1      -1.227  -1.495  -2.029  0.00  0.00    +0.150 HD
ENDROOT
BRANCH   1  17
ATOM      7  N   UNL     1      -4.667  -0.403   0.852  0.00  0.00    -0.382 N 
ATOM      8  C   UNL     1      -4.563   0.910   0.435  0.00  0.00    +0.075 A 
ATOM      9  C   UNL     1      -5.377   1.970   1.052  0.00  0.00    +0.042 A 
ATOM     10  C   UNL     1      -6.280   1.678   2.076  0.00  0.00    +0.013 A 
ATOM     11  C   UNL     1      -7.029   2.691   2.633  0.00  0.00    +0.001 A 
ATOM     12  C   UNL     1      -6.888   3.995   2.180  0.00  0.00    +0.004 A 
ATOM     13  C   UNL     1      -6.000   4.296   1.169  0.00  0.00    +0.047 A 
ATOM     14  C   UNL     1      -5.236   3.289   0.594  0.00  0.00    +0.141 A 
ATOM     15  O   UNL     1      -4.363   3.570  -0.398  0.00  0.00    -0.424 OA
ATOM     16  C   UNL     1      -3.607   2.619  -0.969  0.00  0.00    +0.309 A 
ATOM     17  C   UNL     1      -3.689   1.272  -0.575  0.00  0.00    +0.140 A 
ATOM     18  H   UNL     1      -5.325  -1.101   0.313  0.00  0.00    +0.160 HD
BRANCH  16  19
ATOM     19  O   UNL     1      -2.831   2.932  -1.856  0.00  0.00    -0.479 OA
ATOM     20  H   UNL     1      -2.204   2.164  -2.333  0.00  0.00    +0.295 HD
ENDBRANCH  16  19
BRANCH   7  21
ATOM     21  C   UNL     1      -3.820  -0.652   2.026  0.00  0.00    +0.112 C 
BRANCH  21  23
ATOM     22  C   UNL     1      -3.018  -2.390   3.632  0.00  0.00    +0.005 C 
ATOM     23  C   UNL     1      -3.900  -2.131   2.409  0.00  0.00    +0.017 C 
ENDBRANCH  21  23
ENDBRANCH   7  21
ENDBRANCH   1  17
BRANCH   4  24
ATOM     24  C   UNL     1       0.689  -0.411  -1.682  0.00  0.00    +0.109 C 
BRANCH  24  25
ATOM     25  C   UNL     1       1.329  -1.679  -2.251  0.00  0.00    +0.006 C 
ATOM     26  C   UNL     1       1.054  -2.854  -1.311  0.00  0.00    +0.006 C 
ATOM     27  C   UNL     1       1.694  -4.122  -1.880  0.00  0.00    +0.015 C 
ATOM     28  C   UNL     1       3.204  -3.917  -2.013  0.00  0.00    +0.098 C 
ATOM     29  C   UNL     1       3.478  -2.741  -2.953  0.00  0.00    +0.015 C 
ATOM     30  C   UNL     1       2.839  -1.473  -2.383  0.00  0.00    +0.006 C 
BRANCH  28  31
ATOM     31  C   UNL     1       3.834  -5.166  -2.573  0.00  0.00    +0.310 C 
ATOM     32  O   UNL     1       4.440  -5.120  -3.618  0.00  0.00    -0.251 OA
BRANCH  31  33
ATOM     33  O   UNL     1       3.722  -6.329  -1.913  0.00  0.00    -0.465 OA
BRANCH  33  34
ATOM     34  C   UNL     1       4.354  -7.491  -2.511  0.00  0.00    +0.229 C 
ATOM     35  C   UNL     1       4.120  -8.713  -1.622  0.00  0.00    +0.048 C 
ENDBRANCH  33  34
ENDBRANCH  31  33
ENDBRANCH  28  31
ENDBRANCH  24  25
ENDBRANCH   4  24
TORSDOF 9
