REMARK  Name = ZINC56248435
REMARK  7 active torsions:
REMARK  status: ('A' for Active; 'I' for Inactive)
REMARK    1  A    between atoms: C_4  and  O_9
REMARK    2  A    between atoms: C_5  and  C_7
REMARK    3  A    between atoms: O_9  and  C_10
REMARK    4  A    between atoms: C_13  and  N_16
REMARK    5  A    between atoms: C_17  and  C_19
REMARK    6  A    between atoms: C_19  and  C_20
REMARK    7  A    between atoms: C_20  and  C_21
REMARK                            x       y       z     vdW  Elec       q    Type
REMARK                         _______ _______ _______ _____ _____    ______ ____
ROOT
ATOM      1  C   UNL     1       4.785   0.079  -0.110  0.00  0.00    +0.129 A 
ATOM      2  C   UNL     1       4.813   1.466  -0.065  0.00  0.00    +0.048 A 
ATOM      3  C   UNL     1       6.021   2.134  -0.098  0.00  0.00    +0.027 A 
ATOM      4  C   UNL     1       7.208   1.418  -0.176  0.00  0.00    +0.034 A 
ATOM      5  C   UNL     1       7.180   0.030  -0.221  0.00  0.00    +0.027 A 
ATOM      6  C   UNL     1       5.971  -0.637  -0.183  0.00  0.00    +0.048 A 
ENDROOT
BRANCH   4   7
ATOM      7  N   UNL     1       8.434   2.095  -0.210  0.00  0.00    -0.285 N 
ATOM      8  C   UNL     1       8.595   3.233   0.494  0.00  0.00    +0.217 C 
ATOM      9  O   UNL     1       7.655   3.714   1.092  0.00  0.00    -0.275 OA
ATOM     10  H   UNL     1       9.167   1.744  -0.739  0.00  0.00    +0.155 HD
BRANCH   8  11
ATOM     11  C   UNL     1       9.941   3.909   0.537  0.00  0.00    +0.098 C 
BRANCH  11  12
ATOM     12  C   UNL     1       9.851   5.171   1.397  0.00  0.00    +0.041 C 
BRANCH  12  13
ATOM     13  C   UNL     1      11.218   5.856   1.441  0.00  0.00    +0.161 C 
ATOM     14  C   UNL     1      11.167   7.092   2.317  0.00  0.00    +0.241 C 
ATOM     15  O   UNL     1      10.910   7.141   3.501  0.00  0.00    -0.273 OA
ATOM     16  N   UNL     1      11.467   8.126   1.506  0.00  0.00    -0.239 N 
ATOM     17  C   UNL     1      11.698   7.720   0.253  0.00  0.00    +0.307 C 
ATOM     18  O   UNL     1      11.988   8.470  -0.658  0.00  0.00    -0.252 OA
ATOM     19  N   UNL     1      11.576   6.384   0.113  0.00  0.00    -0.288 N 
ATOM     20  H   UNL     1      11.509   9.051   1.796  0.00  0.00    +0.159 HD
ATOM     21  H   UNL     1      11.700   5.870  -0.701  0.00  0.00    +0.151 HD
ENDBRANCH  12  13
ENDBRANCH  11  12
ENDBRANCH   8  11
ENDBRANCH   4   7
BRANCH   1  22
ATOM     22  O   UNL     1       3.595  -0.578  -0.078  0.00  0.00    -0.455 OA
BRANCH  22  26
ATOM     23  C   UNL     1       1.305  -0.612  -3.519  0.00  0.00    +0.001 A 
ATOM     24  C   UNL     1       2.476   0.126  -3.466  0.00  0.00    +0.004 A 
ATOM     25  C   UNL     1       3.243   0.138  -2.318  0.00  0.00    +0.047 A 
ATOM     26  C   UNL     1       2.843  -0.589  -1.207  0.00  0.00    +0.146 A 
ATOM     27  C   UNL     1       1.658  -1.337  -1.256  0.00  0.00    +0.094 A 
ATOM     28  C   UNL     1       0.893  -1.341  -2.425  0.00  0.00    +0.022 A 
BRANCH  27  29
ATOM     29  C   UNL     1       1.235  -2.092  -0.115  0.00  0.00    +0.103 C 
ATOM     30  N   UNL     1       0.900  -2.691   0.790  0.00  0.00    -0.191 NA
ENDBRANCH  27  29
ENDBRANCH  22  26
ENDBRANCH   1  22
TORSDOF 7
