REMARK  Name = ZINC65397737
REMARK  2 active torsions:
REMARK  status: ('A' for Active; 'I' for Inactive)
REMARK    1  A    between atoms: C_6  and  C_7
REMARK    2  A    between atoms: C_13  and  C_16
REMARK                            x       y       z     vdW  Elec       q    Type
REMARK                         _______ _______ _______ _____ _____    ______ ____
ROOT
ATOM      1  C   UNL     1      -1.293  -0.775   0.011  0.00  0.00    +0.042 C 
ATOM      2  C   UNL     1      -1.351  -1.603   1.267  0.00  0.00    +0.065 C 
ATOM      3  C   UNL     1      -2.720  -2.134   1.557  0.00  0.00    +0.049 A 
ATOM      4  C   UNL     1      -3.683  -2.503   0.668  0.00  0.00    +0.147 A 
ATOM      5  N   UNL     1      -4.749  -2.943   1.387  0.00  0.00    -0.220 NA
ATOM      6  C   UNL     1      -4.480  -2.844   2.664  0.00  0.00    +0.177 A 
ATOM      7  N   UNL     1      -3.220  -2.336   2.804  0.00  0.00    -0.339 N 
ATOM      8  H   UNL     1      -2.766  -2.153   3.640  0.00  0.00    +0.167 HD
ATOM      9  C   UNL     1      -3.661  -2.450  -0.792  0.00  0.00    +0.264 C 
ATOM     10  O   UNL     1      -4.668  -2.848  -1.347  0.00  0.00    -0.268 OA
ATOM     11  N   UNL     1      -2.704  -2.032  -1.587  0.00  0.00    -0.309 N 
ATOM     12  C   UNL     1      -1.376  -1.589  -1.252  0.00  0.00    +0.113 C 
ATOM     13  H   UNL     1      -2.921  -2.023  -2.533  0.00  0.00    +0.149 HD
ENDROOT
BRANCH   6  14
ATOM     14  C   UNL     1      -5.385  -3.219   3.766  0.00  0.00    +0.200 A 
ATOM     15  N   UNL     1      -5.134  -3.121   5.054  0.00  0.00    -0.126 NA
ATOM     16  N   UNL     1      -6.149  -3.539   5.723  0.00  0.00    -0.134 NA
ATOM     17  C   UNL     1      -7.096  -3.926   4.906  0.00  0.00    +0.134 A 
ATOM     18  N   UNL     1      -6.652  -3.731   3.645  0.00  0.00    -0.308 N 
ATOM     19  C   UNL     1      -7.662  -4.129   2.658  0.00  0.00    +0.125 C 
ATOM     20  C   UNL     1      -8.668  -5.013   3.428  0.00  0.00    +0.029 C 
ATOM     21  C   UNL     1      -8.495  -4.503   4.875  0.00  0.00    +0.078 C 
ENDBRANCH   6  14
BRANCH   1  27
ATOM     22  C   UNL     1      -0.017   1.378   0.010  0.00  0.00    +0.005 A 
ATOM     23  C   UNL     1       1.171   2.086   0.002  0.00  0.00    +0.020 A 
ATOM     24  C   UNL     1       2.378   1.410  -0.013  0.00  0.00    +0.041 A 
ATOM     25  C   UNL     1       2.396   0.027  -0.021  0.00  0.00    +0.020 A 
ATOM     26  C   UNL     1       1.208  -0.679  -0.013  0.00  0.00    +0.005 A 
ATOM     27  C   UNL     1       0.002  -0.004   0.002  0.00  0.00    -0.042 A 
ATOM     28 CL   UNL     1       3.870   2.298  -0.023  0.00  0.00    -0.084 Cl
ENDBRANCH   1  27
TORSDOF 2
