REMARK  Name = ZINC00438847
REMARK  4 active torsions:
REMARK  status: ('A' for Active; 'I' for Inactive)
REMARK    1  A    between atoms: C_3  and  N_10
REMARK    2  A    between atoms: C_5  and  N_7
REMARK    3  A    between atoms: C_11  and  C_13
REMARK    4  A    between atoms: C_14  and  C_15
REMARK                            x       y       z     vdW  Elec       q    Type
REMARK                         _______ _______ _______ _____ _____    ______ ____
ROOT
ATOM      1  N   UNL     1      -0.069   5.240   0.028  0.00  0.00    -0.282 N 
ATOM      2  C   UNL     1       1.085   5.930   0.122  0.00  0.00    +0.241 C 
ATOM      3  O   UNL     1       2.150   5.339   0.109  0.00  0.00    -0.270 OA
ATOM      4  H   UNL     1      -0.913   5.714  -0.039  0.00  0.00    +0.155 HD
ENDROOT
BRANCH   1   7
ATOM      5  C   UNL     1      -0.969   1.753  -0.709  0.00  0.00    +0.004 A 
ATOM      6  C   UNL     1      -0.990   3.134  -0.711  0.00  0.00    +0.023 A 
ATOM      7  C   UNL     1      -0.051   3.842   0.028  0.00  0.00    +0.036 A 
ATOM      8  C   UNL     1       0.907   3.159   0.766  0.00  0.00    +0.056 A 
ATOM      9  C   UNL     1       0.918   1.778   0.769  0.00  0.00    +0.128 A 
ATOM     10  C   UNL     1      -0.015   1.076   0.028  0.00  0.00    +0.033 A 
BRANCH   9  11
ATOM     11  N   UNL     1       1.934   1.048   1.560  0.00  0.00    +0.056 N 
ATOM     12  O   UNL     1       1.948  -0.170   1.559  0.00  0.00    -0.126 OA
ATOM     13  O   UNL     1       2.756   1.666   2.213  0.00  0.00    -0.126 OA
ENDBRANCH   9  11
ENDBRANCH   1   7
BRANCH   2  14
ATOM     14  C   UNL     1       1.059   7.388   0.238  0.00  0.00    +0.068 C 
ATOM     15  C   UNL     1       2.215   8.078   0.332  0.00  0.00    +0.013 C 
BRANCH  15  16
ATOM     16  C   UNL     1       2.188   9.544   0.450  0.00  0.00    -0.025 A 
ATOM     17  C   UNL     1       0.968  10.227   0.459  0.00  0.00    +0.009 A 
ATOM     18  C   UNL     1       0.951  11.601   0.573  0.00  0.00    +0.020 A 
ATOM     19  C   UNL     1       2.139  12.306   0.669  0.00  0.00    +0.041 A 
ATOM     20  C   UNL     1       3.353  11.637   0.656  0.00  0.00    +0.020 A 
ATOM     21  C   UNL     1       3.385  10.263   0.547  0.00  0.00    +0.009 A 
ATOM     22 CL   UNL     1       2.109  14.036   0.807  0.00  0.00    -0.084 Cl
ENDBRANCH  15  16
ENDBRANCH   2  14
TORSDOF 4
