REMARK  Name = ZINC36597484
REMARK  11 active torsions:
REMARK  status: ('A' for Active; 'I' for Inactive)
REMARK    1  A    between atoms: C_1  and  C_2
REMARK    2  A    between atoms: C_7  and  C_8
REMARK    3  A    between atoms: C_8  and  C_10
REMARK    4  A    between atoms: C_8  and  N_19
REMARK    5  A    between atoms: N_12  and  C_13
REMARK    6  A    between atoms: N_19  and  C_20
REMARK    7  A    between atoms: C_20  and  C_21
REMARK    8  A    between atoms: C_24  and  C_26
REMARK    9  A    between atoms: C_27  and  C_29
REMARK   10  A    between atoms: C_30  and  O_36
REMARK   11  A    between atoms: C_34  and  O_35
REMARK                            x       y       z     vdW  Elec       q    Type
REMARK                         _______ _______ _______ _____ _____    ______ ____
ROOT
ATOM      1  N   UNL     1       0.875  -0.477   3.767  0.00  0.00    -0.274 N 
ATOM      2  C   UNL     1       0.487  -1.562   4.467  0.00  0.00    +0.255 C 
ATOM      3  O   UNL     1      -0.598  -2.069   4.252  0.00  0.00    -0.270 OA
ENDROOT
BRANCH   2   4
ATOM      4  C   UNL     1       1.376  -2.132   5.493  0.00  0.00    +0.119 A 
ATOM      5  C   UNL     1       1.295  -1.691   6.822  0.00  0.00    +0.133 A 
ATOM      6  C   UNL     1       2.136  -2.235   7.779  0.00  0.00    +0.046 A 
ATOM      7  C   UNL     1       3.052  -3.209   7.428  0.00  0.00    +0.007 A 
ATOM      8  C   UNL     1       3.140  -3.651   6.122  0.00  0.00    +0.046 A 
ATOM      9  C   UNL     1       2.304  -3.125   5.149  0.00  0.00    +0.133 A 
BRANCH   9  10
ATOM     10  O   UNL     1       2.389  -3.565   3.869  0.00  0.00    -0.506 OA
ATOM     11  H   UNL     1       3.014  -3.070   3.323  0.00  0.00    +0.292 HD
ENDBRANCH   9  10
BRANCH   5  12
ATOM     12  O   UNL     1       0.398  -0.734   7.168  0.00  0.00    -0.506 OA
ATOM     13  H   UNL     1      -0.462  -1.082   7.440  0.00  0.00    +0.292 HD
ENDBRANCH   5  12
ENDBRANCH   2   4
BRANCH   1  14
ATOM     14  C   UNL     1      -0.010   0.090   2.746  0.00  0.00    +0.193 C 
BRANCH  14  21
ATOM     15  C   UNL     1       1.895  -0.743   0.740  0.00  0.00    +0.044 C 
ATOM     16  C   UNL     1       0.530  -1.378   0.793  0.00  0.00    -0.045 A 
ATOM     17  C   UNL     1       0.191  -2.364  -0.116  0.00  0.00    +0.004 A 
ATOM     18  C   UNL     1      -1.061  -2.947  -0.068  0.00  0.00    +0.000 A 
ATOM     19  C   UNL     1      -1.975  -2.545   0.889  0.00  0.00    +0.000 A 
ATOM     20  C   UNL     1      -1.636  -1.560   1.798  0.00  0.00    +0.006 A 
ATOM     21  C   UNL     1      -0.382  -0.980   1.752  0.00  0.00    -0.015 A 
ENDBRANCH  14  21
BRANCH  14  22
ATOM     22  C   UNL     1      -1.258   0.622   3.402  0.00  0.00    +0.238 C 
ATOM     23  O   UNL     1      -1.529   0.301   4.540  0.00  0.00    -0.273 OA
ATOM     24  N   UNL     1      -2.073   1.454   2.725  0.00  0.00    -0.311 N 
ATOM     25  H   UNL     1      -1.896   1.654   1.792  0.00  0.00    +0.149 HD
BRANCH  24  26
ATOM     26  C   UNL     1      -3.228   2.057   3.397  0.00  0.00    +0.073 C 
ATOM     27  C   UNL     1      -4.412   1.089   3.342  0.00  0.00    +0.022 C 
ATOM     28  C   UNL     1      -5.617   1.718   4.044  0.00  0.00    +0.002 C 
ATOM     29  C   UNL     1      -5.992   3.024   3.340  0.00  0.00    +0.000 C 
ATOM     30  C   UNL     1      -4.808   3.991   3.394  0.00  0.00    +0.002 C 
ATOM     31  C   UNL     1      -3.603   3.362   2.693  0.00  0.00    +0.022 C 
ENDBRANCH  24  26
ENDBRANCH  14  22
ENDBRANCH   1  14
BRANCH   1  32
ATOM     32  C   UNL     1       2.181   0.134   4.026  0.00  0.00    +0.183 C 
BRANCH  32  33
ATOM     33  C   UNL     1       2.013   1.293   4.975  0.00  0.00    +0.122 A 
ATOM     34  C   UNL     1       2.177   1.247   6.309  0.00  0.00    +0.046 A 
ATOM     35  C   UNL     1       1.923   2.549   6.798  0.00  0.00    +0.045 A 
ATOM     36  C   UNL     1       1.619   3.313   5.733  0.00  0.00    +0.102 A 
ATOM     37  O   UNL     1       1.681   2.548   4.631  0.00  0.00    -0.463 OA
ATOM     38  C   UNL     1       1.274   4.779   5.769  0.00  0.00    +0.086 C 
ENDBRANCH  32  33
ENDBRANCH   1  32
TORSDOF 9
