REMARK  Name = ZINC10346411
REMARK  9 active torsions:
REMARK  status: ('A' for Active; 'I' for Inactive)
REMARK    1  A    between atoms: C_1  and  C_2
REMARK    2  A    between atoms: C_6  and  N_9
REMARK    3  A    between atoms: C_7  and  C_8
REMARK    4  A    between atoms: C_13  and  S_15
REMARK    5  A    between atoms: S_15  and  C_16
REMARK    6  A    between atoms: C_16  and  C_18
REMARK    7  A    between atoms: C_16  and  C_19
REMARK    8  A    between atoms: N_21  and  C_22
REMARK    9  A    between atoms: N_21  and  C_23
REMARK                            x       y       z     vdW  Elec       q    Type
REMARK                         _______ _______ _______ _____ _____    ______ ____
ROOT
ATOM      1  N   UNL     1       0.963 -10.895  -2.195  0.00  0.00    -0.292 N 
ATOM      2  C   UNL     1       1.065  -9.508  -2.214  0.00  0.00    +0.187 A 
ATOM      3  N   UNL     1       1.857  -8.719  -1.515  0.00  0.00    -0.125 NA
ATOM      4  N   UNL     1       1.795  -7.356  -1.690  0.00  0.00    -0.133 NA
ATOM      5  C   UNL     1       0.942  -6.845  -2.558  0.00  0.00    +0.161 A 
ATOM      6  S   UNL     1       0.153  -8.319  -3.186  0.00  0.00    -0.024 S 
ATOM      7  H   UNL     1       0.390 -11.347  -2.833  0.00  0.00    +0.154 HD
ENDROOT
BRANCH   1  13
ATOM      8  C   UNL     1       2.499 -15.254  -0.523  0.00  0.00    +0.044 C 
ATOM      9  C   UNL     1       2.448 -13.751  -0.423  0.00  0.00    -0.046 A 
ATOM     10  C   UNL     1       3.119 -13.104   0.599  0.00  0.00    +0.004 A 
ATOM     11  C   UNL     1       3.075 -11.725   0.695  0.00  0.00    +0.002 A 
ATOM     12  C   UNL     1       2.361 -10.989  -0.230  0.00  0.00    +0.023 A 
ATOM     13  C   UNL     1       1.686 -11.636  -1.258  0.00  0.00    +0.036 A 
ATOM     14  C   UNL     1       1.728 -13.022  -1.348  0.00  0.00    -0.026 A 
ATOM     15  C   UNL     1       0.992 -13.728  -2.457  0.00  0.00    +0.046 C 
ENDBRANCH   1  13
BRANCH   5  16
ATOM     16  S   UNL     1       0.654  -5.158  -2.978  0.00  0.00    -0.084 S 
BRANCH  16  17
ATOM     17  C   UNL     1       1.817  -4.240  -1.932  0.00  0.00    +0.136 C 
ATOM     18  C   UNL     1       3.251  -4.585  -2.339  0.00  0.00    +0.029 C 
BRANCH  17  19
ATOM     19  C   UNL     1       1.588  -2.760  -2.105  0.00  0.00    +0.229 C 
ATOM     20  O   UNL     1       1.010  -2.347  -3.088  0.00  0.00    -0.274 OA
ATOM     21  N   UNL     1       2.026  -1.897  -1.168  0.00  0.00    -0.299 N 
ATOM     22  C   UNL     1       2.725  -2.396   0.019  0.00  0.00    +0.132 C 
BRANCH  21  23
ATOM     23  C   UNL     1       1.804  -0.458  -1.337  0.00  0.00    +0.098 C 
ATOM     24  C   UNL     1       0.965   0.070  -0.161  0.00  0.00    +0.046 C 
ATOM     25  C   UNL     1       1.010   1.624  -0.194  0.00  0.00    +0.168 C 
ATOM     26  S   UNL     1       2.780   1.902  -0.625  0.00  0.00    -0.029 S 
ATOM     27  O   UNL     1       2.860   2.907  -1.626  0.00  0.00    -0.174 OA
ATOM     28  O   UNL     1       3.530   2.046   0.573  0.00  0.00    -0.174 OA
ATOM     29  C   UNL     1       3.168   0.271  -1.381  0.00  0.00    +0.188 C 
ENDBRANCH  21  23
ENDBRANCH  17  19
ENDBRANCH  16  17
ENDBRANCH   5  16
TORSDOF 5
