REMARK  Name = ZINC44879844
REMARK  12 active torsions:
REMARK  status: ('A' for Active; 'I' for Inactive)
REMARK    1  A    between atoms: C_1  and  C_2
REMARK    2  A    between atoms: N_7  and  C_9
REMARK    3  A    between atoms: C_9  and  C_10
REMARK    4  A    between atoms: C_13  and  C_16
REMARK    5  A    between atoms: C_16  and  N_17
REMARK    6  A    between atoms: C_18  and  C_20
REMARK    7  A    between atoms: C_21  and  C_37
REMARK    8  A    between atoms: C_24  and  O_35
REMARK    9  A    between atoms: C_25  and  O_33
REMARK   10  A    between atoms: N_28  and  C_32
REMARK   11  A    between atoms: O_33  and  C_34
REMARK   12  A    between atoms: O_35  and  C_36
REMARK                            x       y       z     vdW  Elec       q    Type
REMARK                         _______ _______ _______ _____ _____    ______ ____
ROOT
ATOM      1  N   UNL     1       0.359  -8.700   1.474  0.00  0.00    -0.306 N 
ATOM      2  C   UNL     1       0.160 -10.025   1.321  0.00  0.00    +0.264 C 
ATOM      3  O   UNL     1       0.638 -10.809   2.120  0.00  0.00    -0.269 OA
ATOM      4  H   UNL     1       0.043  -8.081   0.798  0.00  0.00    +0.149 HD
ENDROOT
BRANCH   2   5
ATOM      5  C   UNL     1      -0.606 -10.504   0.229  0.00  0.00    +0.174 C 
ATOM      6  C   UNL     1      -1.953 -10.583   0.308  0.00  0.00    -0.010 C 
ATOM      7  C   UNL     1      -2.781 -11.093  -0.784  0.00  0.00    +0.006 A 
ATOM      8  C   UNL     1      -4.168 -10.854  -0.732  0.00  0.00    +0.059 A 
ATOM      9  C   UNL     1      -4.987 -11.298  -1.744  0.00  0.00    +0.162 A 
ATOM     10  C   UNL     1      -4.450 -11.988  -2.833  0.00  0.00    +0.163 A 
ATOM     11  C   UNL     1      -3.089 -12.236  -2.893  0.00  0.00    +0.074 A 
ATOM     12  C   UNL     1      -2.254 -11.801  -1.873  0.00  0.00    +0.062 A 
ATOM     13  N   UNL     1      -0.891 -12.101  -1.952  0.00  0.00    -0.205 N 
ATOM     14  S   UNL     1       0.174 -11.008  -1.277  0.00  0.00    +0.080 S 
ATOM     15  O   UNL     1       0.206  -9.872  -2.130  0.00  0.00    -0.150 OA
ATOM     16  O   UNL     1       1.341 -11.735  -0.918  0.00  0.00    -0.150 OA
ATOM     17  C   UNL     1      -0.417 -13.324  -2.605  0.00  0.00    +0.157 C 
ATOM     18  C   UNL     1      -2.630 -10.126   1.575  0.00  0.00    +0.046 C 
BRANCH  10  19
ATOM     19  O   UNL     1      -5.263 -12.416  -3.834  0.00  0.00    -0.491 OA
ATOM     20  C   UNL     1      -4.646 -13.116  -4.916  0.00  0.00    +0.277 C 
ENDBRANCH  10  19
BRANCH   9  21
ATOM     21  O   UNL     1      -6.326 -11.064  -1.684  0.00  0.00    -0.491 OA
ATOM     22  C   UNL     1      -6.810 -10.353  -0.543  0.00  0.00    +0.277 C 
ENDBRANCH   9  21
ENDBRANCH   2   5
BRANCH   1  23
ATOM     23  C   UNL     1       1.054  -8.197   2.662  0.00  0.00    +0.140 C 
BRANCH  23  27
ATOM     24  C   UNL     1       1.316  -3.938   2.463  0.00  0.00    -0.064 A 
ATOM     25  C   UNL     1       0.226  -4.536   3.068  0.00  0.00    +0.002 A 
ATOM     26  C   UNL     1       0.141  -5.914   3.132  0.00  0.00    +0.005 A 
ATOM     27  C   UNL     1       1.146  -6.695   2.591  0.00  0.00    -0.030 A 
ATOM     28  C   UNL     1       2.235  -6.097   1.986  0.00  0.00    +0.005 A 
ATOM     29  C   UNL     1       2.318  -4.719   1.918  0.00  0.00    +0.002 A 
BRANCH  24  30
ATOM     30  C   UNL     1       1.409  -2.436   2.393  0.00  0.00    -0.043 C 
BRANCH  30  36
ATOM     31  C   UNL     1      -0.015   1.532  -0.096  0.00  0.00    +0.005 C 
ATOM     32  C   UNL     1       0.005   0.002  -0.091  0.00  0.00    -0.031 C 
ATOM     33  C   UNL     1       0.728  -0.503  -1.343  0.00  0.00    -0.001 C 
ATOM     34  C   UNL     1       0.812  -2.031  -1.290  0.00  0.00    -0.018 C 
ATOM     35  C   UNL     1       1.521  -2.453  -0.001  0.00  0.00    -0.078 C 
ATOM     36  N   UNL     1       0.768  -1.963   1.159  0.00  0.00    +0.383 N 
ATOM     37  C   UNL     1       0.743  -0.495   1.154  0.00  0.00    -0.075 C 
ATOM     38  H   UNL     1      -0.178  -2.313   1.118  0.00  0.00    -0.081 HD
ENDBRANCH  30  36
ENDBRANCH  24  30
ENDBRANCH  23  27
ENDBRANCH   1  23
TORSDOF 7
