REMARK  Name = ZINC08893822
REMARK  8 active torsions:
REMARK  status: ('A' for Active; 'I' for Inactive)
REMARK    1  A    between atoms: C_1  and  C_2
REMARK    2  A    between atoms: C_5  and  S_8
REMARK    3  A    between atoms: S_8  and  N_11
REMARK    4  A    between atoms: C_15  and  C_17
REMARK    5  A    between atoms: N_19  and  C_20
REMARK    6  A    between atoms: C_21  and  C_28
REMARK    7  A    between atoms: C_31  and  O_33
REMARK    8  A    between atoms: O_33  and  C_34
REMARK                            x       y       z     vdW  Elec       q    Type
REMARK                         _______ _______ _______ _____ _____    ______ ____
ROOT
ATOM      1  C   UNL     1      -1.153   0.303   2.276  0.00  0.00    +0.236 C 
ATOM      2  O   UNL     1      -2.282  -0.108   2.441  0.00  0.00    -0.274 OA
ATOM      3  N   UNL     1      -0.129  -0.244   2.962  0.00  0.00    -0.278 N 
ATOM      4  H   UNL     1       0.774   0.085   2.829  0.00  0.00    +0.155 HD
ENDROOT
BRANCH   3   5
ATOM      5  C   UNL     1      -0.367  -1.275   3.857  0.00  0.00    +0.084 A 
ATOM      6  C   UNL     1       0.545  -1.961   4.642  0.00  0.00    +0.069 A 
ATOM      7  C   UNL     1       0.028  -3.016   5.514  0.00  0.00    -0.023 A 
ATOM      8  C   UNL     1      -1.301  -3.212   5.448  0.00  0.00    -0.004 A 
ATOM      9  S   UNL     1      -1.875  -2.024   4.259  0.00  0.00    -0.077 S 
ATOM     10  C   UNL     1      -1.755  -4.312   6.369  0.00  0.00    +0.043 C 
ATOM     11  C   UNL     1      -0.583  -4.502   7.356  0.00  0.00    +0.010 C 
ATOM     12  C   UNL     1       0.615  -4.006   6.521  0.00  0.00    +0.037 C 
BRANCH   6  13
ATOM     13  C   UNL     1       1.973  -1.639   4.603  0.00  0.00    +0.255 C 
ATOM     14  O   UNL     1       2.429  -0.804   5.361  0.00  0.00    -0.270 OA
ATOM     15  N   UNL     1       2.783  -2.269   3.729  0.00  0.00    -0.217 N 
ATOM     16  C   UNL     1       4.097  -1.973   3.693  0.00  0.00    +0.407 C 
ATOM     17  O   UNL     1       4.552  -1.139   4.449  0.00  0.00    -0.226 OA
ATOM     18  H   UNL     1       2.419  -2.936   3.125  0.00  0.00    +0.161 HD
BRANCH  16  19
ATOM     19  O   UNL     1       4.905  -2.603   2.820  0.00  0.00    -0.453 OA
ATOM     20  C   UNL     1       6.309  -2.233   2.837  0.00  0.00    +0.282 C 
ENDBRANCH  16  19
ENDBRANCH   6  13
ENDBRANCH   3   5
BRANCH   1  25
ATOM     21  N   UNL     1      -2.117   2.228   1.121  0.00  0.00    -0.165 NA
ATOM     22  C   UNL     1      -2.530   2.152  -0.292  0.00  0.00    +0.110 C 
ATOM     23  C   UNL     1      -1.232   1.812  -1.066  0.00  0.00    +0.019 C 
ATOM     24  C   UNL     1      -0.525   0.845  -0.080  0.00  0.00    +0.031 C 
ATOM     25  C   UNL     1      -0.894   1.424   1.303  0.00  0.00    +0.166 C 
BRANCH  21  26
ATOM     26  S   UNL     1      -2.897   3.077   2.310  0.00  0.00    +0.062 S 
ATOM     27  O   UNL     1      -4.272   3.105   1.954  0.00  0.00    -0.153 OA
ATOM     28  O   UNL     1      -2.442   2.553   3.550  0.00  0.00    -0.153 OA
BRANCH  26  33
ATOM     29  C   UNL     1      -0.927   8.773   2.020  0.00  0.00    +0.044 C 
ATOM     30  C   UNL     1      -1.419   7.350   2.092  0.00  0.00    -0.050 A 
ATOM     31  C   UNL     1      -2.587   6.989   1.447  0.00  0.00    +0.005 A 
ATOM     32  C   UNL     1      -3.038   5.684   1.514  0.00  0.00    +0.029 A 
ATOM     33  C   UNL     1      -2.321   4.741   2.225  0.00  0.00    +0.106 A 
ATOM     34  C   UNL     1      -1.156   5.103   2.874  0.00  0.00    +0.029 A 
ATOM     35  C   UNL     1      -0.702   6.406   2.803  0.00  0.00    +0.005 A 
ENDBRANCH  26  33
ENDBRANCH  21  26
ENDBRANCH   1  25
TORSDOF 6
