REMARK  Name = ZINC05680803
REMARK  5 active torsions:
REMARK  status: ('A' for Active; 'I' for Inactive)
REMARK    1  A    between atoms: C_1  and  C_2
REMARK    2  A    between atoms: C_4  and  C_27
REMARK    3  A    between atoms: C_6  and  N_8
REMARK    4  A    between atoms: C_9  and  C_11
REMARK    5  A    between atoms: C_11  and  N_12
REMARK                            x       y       z     vdW  Elec       q    Type
REMARK                         _______ _______ _______ _____ _____    ______ ____
ROOT
ATOM      1  N   UNL     1       0.370  -1.959   5.973  0.00  0.00    -0.215 N 
ATOM      2  C   UNL     1       1.527  -1.451   6.446  0.00  0.00    +0.251 C 
ATOM      3  O   UNL     1       2.648  -1.678   6.044  0.00  0.00    -0.272 OA
ATOM      4  C   UNL     1       1.130  -0.541   7.583  0.00  0.00    +0.139 C 
ATOM      5  C   UNL     1       1.575   0.890   7.318  0.00  0.00    +0.040 C 
ATOM      6  C   UNL     1       1.322   1.760   8.554  0.00  0.00    +0.008 C 
ATOM      7  C   UNL     1       2.283   1.327   9.671  0.00  0.00    +0.043 C 
ATOM      8  C   UNL     1       2.236  -0.162   9.788  0.00  0.00    -0.005 A 
ATOM      9  C   UNL     1       1.730  -1.047   8.884  0.00  0.00    -0.005 A 
ATOM     10  C   UNL     1       1.802  -2.396   9.228  0.00  0.00    +0.014 A 
ATOM     11  C   UNL     1       2.354  -2.767  10.406  0.00  0.00    +0.046 A 
ATOM     12  S   UNL     1       2.815  -1.191  11.109  0.00  0.00    -0.101 S 
ATOM     13  N   UNL     1      -0.332  -0.641   7.633  0.00  0.00    -0.281 N 
ATOM     14  C   UNL     1      -0.687  -1.490   6.649  0.00  0.00    +0.310 C 
ATOM     15  O   UNL     1      -1.837  -1.799   6.404  0.00  0.00    -0.252 OA
ATOM     16  H   UNL     1      -0.925  -0.184   8.249  0.00  0.00    +0.152 HD
ENDROOT
BRANCH   1  17
ATOM     17  C   UNL     1       0.280  -2.900   4.854  0.00  0.00    +0.214 C 
BRANCH  17  19
ATOM     18  N   UNL     1       0.052  -2.797   2.393  0.00  0.00    -0.284 N 
ATOM     19  C   UNL     1       0.150  -2.134   3.562  0.00  0.00    +0.235 C 
ATOM     20  O   UNL     1       0.134  -0.922   3.575  0.00  0.00    -0.274 OA
ATOM     21  H   UNL     1      -0.012  -3.765   2.388  0.00  0.00    +0.155 HD
BRANCH  18  27
ATOM     22  C   UNL     1      -1.512  -2.365  -2.248  0.00  0.00    +0.044 C 
ATOM     23  C   UNL     1      -0.707  -1.857  -1.080  0.00  0.00    -0.048 A 
ATOM     24  C   UNL     1       0.025  -0.690  -1.201  0.00  0.00    +0.006 A 
ATOM     25  C   UNL     1       0.765  -0.220  -0.131  0.00  0.00    -0.048 A 
ATOM     26  C   UNL     1       0.776  -0.917   1.061  0.00  0.00    +0.026 A 
ATOM     27  C   UNL     1       0.043  -2.089   1.186  0.00  0.00    +0.034 A 
ATOM     28  C   UNL     1      -0.704  -2.555   0.112  0.00  0.00    +0.026 A 
ATOM     29  C   UNL     1       1.561   1.052  -0.268  0.00  0.00    +0.044 C 
ENDBRANCH  18  27
ENDBRANCH  17  19
ENDBRANCH   1  17
TORSDOF 3
