REMARK  Name = ZINC14783799
REMARK  12 active torsions:
REMARK  status: ('A' for Active; 'I' for Inactive)
REMARK    1  A    between atoms: C_1  and  C_2
REMARK    2  A    between atoms: C_2  and  C_4
REMARK    3  A    between atoms: C_2  and  O_17
REMARK    4  A    between atoms: N_6  and  C_7
REMARK    5  A    between atoms: C_11  and  O_13
REMARK    6  A    between atoms: O_13  and  C_14
REMARK    7  A    between atoms: C_14  and  C_15
REMARK    8  A    between atoms: O_17  and  C_18
REMARK    9  A    between atoms: C_21  and  C_24
REMARK   10  A    between atoms: C_24  and  C_25
REMARK   11  A    between atoms: C_24  and  C_26
REMARK   12  A    between atoms: C_24  and  C_27
REMARK                            x       y       z     vdW  Elec       q    Type
REMARK                         _______ _______ _______ _____ _____    ______ ____
ROOT
ATOM      1  C   UNL     1       1.097   5.967  -0.117  0.00  0.00    +0.258 C 
ATOM      2  O   UNL     1       2.157   5.404  -0.291  0.00  0.00    -0.271 OA
ATOM      3  N   UNL     1      -0.058   5.285  -0.248  0.00  0.00    -0.282 N 
ATOM      4  H   UNL     1      -0.907   5.749  -0.177  0.00  0.00    +0.155 HD
ENDROOT
BRANCH   3   5
ATOM      5  C   UNL     1      -0.033   3.906  -0.487  0.00  0.00    +0.037 A 
ATOM      6  C   UNL     1      -1.006   3.086   0.070  0.00  0.00    +0.023 A 
ATOM      7  C   UNL     1      -0.980   1.725  -0.165  0.00  0.00    +0.005 A 
ATOM      8  C   UNL     1       0.012   1.176  -0.956  0.00  0.00    +0.046 A 
ATOM      9  C   UNL     1       0.989   1.990  -1.511  0.00  0.00    +0.123 A 
ATOM     10  C   UNL     1       0.964   3.357  -1.281  0.00  0.00    +0.069 A 
BRANCH   9  11
ATOM     11  O   UNL     1       1.967   1.448  -2.283  0.00  0.00    -0.488 OA
BRANCH  11  12
ATOM     12  C   UNL     1       1.928   0.033  -2.481  0.00  0.00    +0.256 C 
BRANCH  12  13
ATOM     13  C   UNL     1       3.082  -0.383  -3.356  0.00  0.00    +0.006 C 
ATOM     14  C   UNL     1       3.800  -1.432  -3.039  0.00  0.00    +0.007 C 
ENDBRANCH  12  13
ENDBRANCH  11  12
ENDBRANCH   9  11
ENDBRANCH   3   5
BRANCH   1  16
ATOM     15  C   UNL     1       0.301   8.207  -0.823  0.00  0.00    +0.062 C 
ATOM     16  C   UNL     1       1.071   7.429   0.247  0.00  0.00    +0.256 C 
BRANCH  16  17
ATOM     17  O   UNL     1       2.409   7.924   0.326  0.00  0.00    -0.480 OA
BRANCH  17  18
ATOM     18  C   UNL     1       2.620   9.008   1.117  0.00  0.00    +0.122 A 
ATOM     19  C   UNL     1       3.910   9.472   1.332  0.00  0.00    +0.046 A 
ATOM     20  C   UNL     1       4.122  10.578   2.132  0.00  0.00    +0.008 A 
ATOM     21  C   UNL     1       3.050  11.216   2.728  0.00  0.00    -0.042 A 
ATOM     22  C   UNL     1       1.764  10.753   2.521  0.00  0.00    +0.008 A 
ATOM     23  C   UNL     1       1.546   9.651   1.717  0.00  0.00    +0.046 A 
BRANCH  21  24
ATOM     24  C   UNL     1       3.284  12.418   3.606  0.00  0.00    -0.013 C 
ATOM     25  C   UNL     1       2.762  12.131   5.015  0.00  0.00    +0.015 C 
ATOM     26  C   UNL     1       4.783  12.720   3.669  0.00  0.00    +0.015 C 
ATOM     27  C   UNL     1       2.545  13.626   3.025  0.00  0.00    +0.015 C 
ENDBRANCH  21  24
ENDBRANCH  17  18
ENDBRANCH  16  17
ENDBRANCH   1  16
TORSDOF 8
