REMARK  Name = ZINC15874375
REMARK  10 active torsions:
REMARK  status: ('A' for Active; 'I' for Inactive)
REMARK    1  A    between atoms: C_1  and  C_2
REMARK    2  A    between atoms: C_4  and  C_31
REMARK    3  A    between atoms: C_5  and  S_9
REMARK    4  A    between atoms: C_6  and  C_8
REMARK    5  A    between atoms: S_9  and  N_12
REMARK    6  A    between atoms: C_15  and  C_18
REMARK    7  A    between atoms: N_20  and  N_21
REMARK    8  A    between atoms: N_21  and  C_22
REMARK    9  A    between atoms: C_22  and  N_24
REMARK   10  A    between atoms: N_24  and  C_25
REMARK                            x       y       z     vdW  Elec       q    Type
REMARK                         _______ _______ _______ _____ _____    ______ ____
ROOT
ATOM      1  N   UNL     1       0.401  -5.328   0.167  0.00  0.00    -0.177 NA
ATOM      2  C   UNL     1       1.079  -5.802  -1.047  0.00  0.00    +0.110 C 
ATOM      3  C   UNL     1       1.215  -7.326  -0.973  0.00  0.00    +0.030 C 
ATOM      4  C   UNL     1       1.920  -7.708   0.331  0.00  0.00    +0.079 C 
ATOM      5  C   UNL     1       1.082  -7.239   1.522  0.00  0.00    +0.030 C 
ATOM      6  C   UNL     1       0.948  -5.709   1.476  0.00  0.00    +0.110 C 
ENDROOT
BRANCH   4   7
ATOM      7  C   UNL     1       2.087  -9.204   0.392  0.00  0.00    +0.232 C 
ATOM      8  O   UNL     1       1.681  -9.897  -0.517  0.00  0.00    -0.274 OA
ATOM      9  N   UNL     1       2.686  -9.773   1.457  0.00  0.00    -0.235 N 
ATOM     10  H   UNL     1       3.010  -9.218   2.184  0.00  0.00    +0.173 HD
BRANCH   9  11
ATOM     11  N   UNL     1       2.841 -11.164   1.514  0.00  0.00    -0.246 N 
ATOM     12  H   UNL     1       2.516 -11.718   0.787  0.00  0.00    +0.172 HD
BRANCH  11  13
ATOM     13  C   UNL     1       3.440 -11.732   2.579  0.00  0.00    +0.147 C 
ATOM     14  S   UNL     1       3.629 -13.432   2.649  0.00  0.00    -0.017 S 
BRANCH  13  15
ATOM     15  N   UNL     1       3.890 -10.962   3.590  0.00  0.00    -0.323 N 
ATOM     16  H   UNL     1       3.783  -9.999   3.550  0.00  0.00    +0.148 HD
BRANCH  15  17
ATOM     17  C   UNL     1       4.542 -11.580   4.747  0.00  0.00    +0.072 C 
ATOM     18  C   UNL     1       3.478 -12.024   5.754  0.00  0.00    +0.022 C 
ATOM     19  C   UNL     1       4.158 -12.669   6.963  0.00  0.00    +0.002 C 
ATOM     20  C   UNL     1       5.095 -11.654   7.623  0.00  0.00    +0.000 C 
ATOM     21  C   UNL     1       6.158 -11.211   6.617  0.00  0.00    +0.002 C 
ATOM     22  C   UNL     1       5.478 -10.566   5.407  0.00  0.00    +0.022 C 
ENDBRANCH  15  17
ENDBRANCH  13  15
ENDBRANCH  11  13
ENDBRANCH   9  11
ENDBRANCH   4   7
BRANCH   1  23
ATOM     23  S   UNL     1      -0.950  -4.376   0.061  0.00  0.00    +0.061 S 
ATOM     24  O   UNL     1      -1.662  -4.544   1.280  0.00  0.00    -0.153 OA
ATOM     25  O   UNL     1      -1.536  -4.641  -1.206  0.00  0.00    -0.153 OA
BRANCH  23  30
ATOM     26  C   UNL     1       0.919   1.360  -0.067  0.00  0.00    +0.044 C 
ATOM     27  C   UNL     1       0.452  -0.073  -0.035  0.00  0.00    -0.050 A 
ATOM     28  C   UNL     1       0.175  -0.682   1.174  0.00  0.00    +0.008 A 
ATOM     29  C   UNL     1      -0.254  -1.996   1.204  0.00  0.00    -0.024 A 
ATOM     30  C   UNL     1      -0.405  -2.700   0.024  0.00  0.00    +0.111 A 
ATOM     31  C   UNL     1      -0.129  -2.090  -1.185  0.00  0.00    -0.024 A 
ATOM     32  C   UNL     1       0.295  -0.775  -1.215  0.00  0.00    +0.008 A 
ATOM     33  C   UNL     1      -0.294  -2.858  -2.472  0.00  0.00    +0.046 C 
ATOM     34  C   UNL     1      -0.554  -2.662   2.522  0.00  0.00    +0.046 C 
ENDBRANCH  23  30
ENDBRANCH   1  23
TORSDOF 7
