REMARK  Name = ZINC22918525
REMARK  8 active torsions:
REMARK  status: ('A' for Active; 'I' for Inactive)
REMARK    1  A    between atoms: C_1  and  C_2
REMARK    2  A    between atoms: C_2  and  C_25
REMARK    3  A    between atoms: N_5  and  C_9
REMARK    4  A    between atoms: C_9  and  N_10
REMARK    5  A    between atoms: N_13  and  C_16
REMARK    6  A    between atoms: C_16  and  C_17
REMARK    7  A    between atoms: C_18  and  C_19
REMARK    8  A    between atoms: C_28  and  C_31
REMARK                            x       y       z     vdW  Elec       q    Type
REMARK                         _______ _______ _______ _____ _____    ______ ____
ROOT
ATOM      1  C   UNL     1      -1.599   8.148  -3.551  0.00  0.00    +0.047 C 
ATOM      2  C   UNL     1      -0.751   7.231  -2.668  0.00  0.00    +0.135 C 
ATOM      3  C   UNL     1      -1.576   6.062  -2.168  0.00  0.00    +0.252 C 
ATOM      4  O   UNL     1      -2.569   6.109  -1.474  0.00  0.00    -0.272 OA
ATOM      5  N   UNL     1      -0.976   4.958  -2.655  0.00  0.00    -0.210 N 
ATOM      6  C   UNL     1       0.099   5.264  -3.391  0.00  0.00    +0.311 C 
ATOM      7  O   UNL     1       0.802   4.437  -3.938  0.00  0.00    -0.252 OA
ATOM      8  N   UNL     1       0.315   6.590  -3.458  0.00  0.00    -0.281 N 
ATOM      9  H   UNL     1       1.077   7.208  -3.955  0.00  0.00    +0.152 HD
ENDROOT
BRANCH   2  10
ATOM     10  C   UNL     1      -0.165   8.003  -1.514  0.00  0.00    -0.015 A 
ATOM     11  C   UNL     1      -0.879   8.129  -0.336  0.00  0.00    +0.007 A 
ATOM     12  C   UNL     1      -0.346   8.829   0.726  0.00  0.00    +0.019 A 
ATOM     13  C   UNL     1       0.913   9.422   0.607  0.00  0.00    +0.052 A 
ATOM     14  C   UNL     1       1.626   9.295  -0.587  0.00  0.00    +0.019 A 
ATOM     15  C   UNL     1       1.083   8.587  -1.639  0.00  0.00    +0.007 A 
BRANCH  13  16
ATOM     16  C   UNL     1       1.470  10.155   1.703  0.00  0.00    +0.099 C 
ATOM     17  N   UNL     1       1.912  10.737   2.573  0.00  0.00    -0.191 NA
ENDBRANCH  13  16
ENDBRANCH   2  10
BRANCH   5  18
ATOM     18  C   UNL     1      -1.445   3.591  -2.413  0.00  0.00    +0.205 C 
BRANCH  18  19
ATOM     19  N   UNL     1      -0.806   3.062  -1.200  0.00  0.00    -0.290 NA
ATOM     20  C   UNL     1      -0.754   1.593  -1.231  0.00  0.00    +0.067 C 
ATOM     21  C   UNL     1      -0.013   1.086   0.008  0.00  0.00    -0.063 C 
ATOM     22  N   UNL     1      -0.701   1.560   1.216  0.00  0.00    +0.384 N 
ATOM     23  C   UNL     1      -0.754   3.029   1.247  0.00  0.00    -0.063 C 
ATOM     24  C   UNL     1      -1.495   3.536   0.008  0.00  0.00    +0.067 C 
ATOM     25  H   UNL     1      -1.735   1.184   1.189  0.00  0.00    -0.081 HD
BRANCH  22  26
ATOM     26  C   UNL     1      -0.062   1.031   2.429  0.00  0.00    -0.051 C 
BRANCH  26  27
ATOM     27  C   UNL     1      -0.631   1.724   3.640  0.00  0.00    -0.045 C 
ATOM     28  C   UNL     1      -1.157   1.010   4.626  0.00  0.00    +0.002 C 
BRANCH  28  29
ATOM     29  C   UNL     1      -1.715   1.690   5.814  0.00  0.00    -0.025 A 
ATOM     30  C   UNL     1      -1.685   3.082   5.903  0.00  0.00    +0.008 A 
ATOM     31  C   UNL     1      -2.212   3.711   7.012  0.00  0.00    +0.001 A 
ATOM     32  C   UNL     1      -2.760   2.963   8.040  0.00  0.00    +0.000 A 
ATOM     33  C   UNL     1      -2.789   1.583   7.959  0.00  0.00    +0.001 A 
ATOM     34  C   UNL     1      -2.270   0.942   6.853  0.00  0.00    +0.008 A 
ENDBRANCH  28  29
ENDBRANCH  26  27
ENDBRANCH  22  26
ENDBRANCH  18  19
ENDBRANCH   5  18
TORSDOF 7
