REMARK  Name = ZINC00949123
REMARK  5 active torsions:
REMARK  status: ('A' for Active; 'I' for Inactive)
REMARK    1  A    between atoms: C_1  and  C_2
REMARK    2  A    between atoms: C_2  and  C_28
REMARK    3  A    between atoms: C_6  and  C_17
REMARK    4  A    between atoms: C_20  and  O_23
REMARK    5  A    between atoms: O_23  and  C_24
REMARK                            x       y       z     vdW  Elec       q    Type
REMARK                         _______ _______ _______ _____ _____    ______ ____
ROOT
ATOM      1  C   UNL     1      -0.019   1.526   0.010  0.00  0.00    +0.011 C 
ATOM      2  C   UNL     1       0.002  -0.004   0.002  0.00  0.00    -0.023 C 
ATOM      3  C   UNL     1      -1.432  -0.538   0.039  0.00  0.00    +0.058 C 
ATOM      4  C   UNL     1      -1.409  -2.046   0.080  0.00  0.00    +0.017 C 
ATOM      5  C   UNL     1      -0.395  -2.711   0.673  0.00  0.00    +0.024 C 
ATOM      6  C   UNL     1      -0.375  -4.218   0.714  0.00  0.00    +0.092 C 
ATOM      7  C   UNL     1      -1.735  -4.787   0.437  0.00  0.00    +0.067 A 
ATOM      8  C   UNL     1      -2.703  -4.032  -0.155  0.00  0.00    +0.113 A 
ATOM      9  N   UNL     1      -3.937  -4.584  -0.402  0.00  0.00    -0.295 N 
ATOM     10  C   UNL     1      -4.192  -5.860  -0.060  0.00  0.00    +0.328 A 
ATOM     11  O   UNL     1      -5.288  -6.334  -0.287  0.00  0.00    -0.247 OA
ATOM     12  N   UNL     1      -3.251  -6.620   0.529  0.00  0.00    -0.275 N 
ATOM     13  C   UNL     1      -2.027  -6.118   0.788  0.00  0.00    +0.260 A 
ATOM     14  O   UNL     1      -1.179  -6.812   1.321  0.00  0.00    -0.267 OA
ATOM     15  N   UNL     1      -2.446  -2.728  -0.497  0.00  0.00    -0.303 N 
ATOM     16  C   UNL     1       0.676  -2.018   1.266  0.00  0.00    +0.162 C 
ATOM     17  O   UNL     1       1.564  -2.646   1.808  0.00  0.00    -0.292 OA
ATOM     18  C   UNL     1       0.743  -0.516   1.242  0.00  0.00    +0.086 C 
ATOM     19  C   UNL     1       0.709  -0.502  -1.261  0.00  0.00    +0.011 C 
ATOM     20  H   UNL     1      -3.006  -2.286  -1.154  0.00  0.00    +0.153 HD
ATOM     21  H   UNL     1      -3.455  -7.537   0.770  0.00  0.00    +0.173 HD
ATOM     22  H   UNL     1      -4.628  -4.050  -0.826  0.00  0.00    +0.172 HD
ENDROOT
BRANCH   6  23
ATOM     23  C   UNL     1       0.593  -4.727  -0.324  0.00  0.00    -0.035 A 
ATOM     24  C   UNL     1       0.398  -4.420  -1.658  0.00  0.00    +0.008 A 
ATOM     25  C   UNL     1       1.284  -4.886  -2.611  0.00  0.00    +0.046 A 
ATOM     26  C   UNL     1       2.369  -5.661  -2.228  0.00  0.00    +0.120 A 
ATOM     27  C   UNL     1       2.562  -5.967  -0.888  0.00  0.00    +0.046 A 
ATOM     28  C   UNL     1       1.676  -5.494   0.061  0.00  0.00    +0.008 A 
BRANCH  26  29
ATOM     29  O   UNL     1       3.240  -6.121  -3.163  0.00  0.00    -0.495 OA
ATOM     30  C   UNL     1       4.335  -6.913  -2.697  0.00  0.00    +0.277 C 
ENDBRANCH  26  29
ENDBRANCH   6  23
TORSDOF 2
