REMARK  Name = ZINC17724773
REMARK  7 active torsions:
REMARK  status: ('A' for Active; 'I' for Inactive)
REMARK    1  A    between atoms: C_1  and  C_2
REMARK    2  A    between atoms: C_2  and  C_3
REMARK    3  A    between atoms: C_3  and  C_4
REMARK    4  A    between atoms: C_4  and  C_5
REMARK    5  A    between atoms: C_12  and  N_27
REMARK    6  A    between atoms: C_13  and  C_25
REMARK    7  A    between atoms: N_21  and  C_24
REMARK                            x       y       z     vdW  Elec       q    Type
REMARK                         _______ _______ _______ _____ _____    ______ ____
ROOT
ATOM      1  C   UNL     1       1.492  -2.540   2.454  0.00  0.00    +0.071 A 
ATOM      2  C   UNL     1       2.854  -2.788   2.545  0.00  0.00    +0.061 A 
ATOM      3  C   UNL     1       3.121  -3.227   3.814  0.00  0.00    +0.223 A 
ATOM      4  N   UNL     1       1.960  -3.250   4.487  0.00  0.00    -0.246 N 
ATOM      5  H   UNL     1       1.841  -3.519   5.411  0.00  0.00    +0.192 HD
ATOM      6  N   UNL     1       0.950  -2.810   3.618  0.00  0.00    -0.176 NA
ATOM      7  O   UNL     1       4.371  -3.555   4.224  0.00  0.00    -0.423 OA
ATOM      8  C   UNL     1       5.409  -3.194   3.443  0.00  0.00    +0.201 C 
ATOM      9  C   UNL     1       5.273  -2.757   2.169  0.00  0.00    +0.110 C 
ATOM     10  C   UNL     1       3.929  -2.639   1.505  0.00  0.00    +0.145 C 
ATOM     11  C   UNL     1       3.771  -3.646   0.411  0.00  0.00    -0.001 A 
ATOM     12  C   UNL     1       3.792  -5.024   0.426  0.00  0.00    +0.007 A 
ATOM     13  C   UNL     1       3.608  -5.671  -0.791  0.00  0.00    +0.000 A 
ATOM     14  C   UNL     1       3.412  -4.963  -1.959  0.00  0.00    +0.002 A 
ATOM     15  C   UNL     1       3.390  -3.578  -1.982  0.00  0.00    +0.024 A 
ATOM     16  C   UNL     1       3.574  -2.916  -0.767  0.00  0.00    +0.041 A 
ATOM     17  N   UNL     1       3.600  -1.558  -0.501  0.00  0.00    -0.273 N 
ATOM     18  C   UNL     1       3.804  -1.302   0.808  0.00  0.00    +0.240 C 
ATOM     19  O   UNL     1       3.874  -0.208   1.327  0.00  0.00    -0.274 OA
ATOM     20  C   UNL     1       3.425  -0.520  -1.521  0.00  0.00    +0.138 C 
ENDROOT
BRANCH   8  21
ATOM     21  N   UNL     1       6.674  -3.273   3.969  0.00  0.00    -0.328 N 
ATOM     22  H   UNL     1       6.803  -3.582   4.880  0.00  0.00    +0.145 HD
ATOM     23  H   UNL     1       7.440  -3.020   3.430  0.00  0.00    +0.145 HD
ENDBRANCH   8  21
BRANCH   9  24
ATOM     24  C   UNL     1       6.446  -2.397   1.430  0.00  0.00    +0.102 C 
ATOM     25  N   UNL     1       7.376  -2.112   0.844  0.00  0.00    -0.191 NA
ENDBRANCH   9  24
BRANCH   1  26
ATOM     26  C   UNL     1       0.763  -2.041   1.233  0.00  0.00    +0.058 C 
BRANCH  26  27
ATOM     27  C   UNL     1       0.742  -0.511   1.242  0.00  0.00    +0.006 C 
BRANCH  27  29
ATOM     28  C   UNL     1      -0.019   1.526   0.010  0.00  0.00    +0.004 C 
ATOM     29  C   UNL     1       0.002  -0.004   0.002  0.00  0.00    -0.003 C 
ENDBRANCH  27  29
ENDBRANCH  26  27
ENDBRANCH   1  26
TORSDOF 5
