REMARK  Name = ZINC37715794
REMARK  3 active torsions:
REMARK  status: ('A' for Active; 'I' for Inactive)
REMARK    1  A    between atoms: C_7  and  O_11
REMARK    2  A    between atoms: O_11  and  C_12
REMARK    3  A    between atoms: C_17  and  N_18
REMARK                            x       y       z     vdW  Elec       q    Type
REMARK                         _______ _______ _______ _____ _____    ______ ____
ROOT
ATOM      1  O   UNL     1       0.197  -2.851  -0.014  0.00  0.00    -0.435 OA
ENDROOT
BRANCH   1   8
ATOM      2  C   UNL     1       0.007   1.360   0.024  0.00  0.00    +0.001 A 
ATOM      3  C   UNL     1       1.193   2.084   0.108  0.00  0.00    +0.002 A 
ATOM      4  C   UNL     1       2.399   1.453   0.177  0.00  0.00    +0.028 A 
ATOM      5  C   UNL     1       2.448   0.052   0.163  0.00  0.00    +0.078 A 
ATOM      6  C   UNL     1       1.240  -0.683   0.077  0.00  0.00    +0.062 A 
ATOM      7  C   UNL     1       0.018  -0.003   0.008  0.00  0.00    +0.015 A 
ATOM      8  C   UNL     1       1.316  -2.095   0.066  0.00  0.00    +0.231 A 
ATOM      9  N   UNL     1       2.513  -2.658   0.135  0.00  0.00    -0.201 NA
ATOM     10  C   UNL     1       3.616  -1.931   0.214  0.00  0.00    +0.225 A 
ATOM     11  N   UNL     1       3.607  -0.619   0.229  0.00  0.00    -0.235 NA
ENDBRANCH   1   8
BRANCH   1  12
ATOM     12  C   UNL     1       0.343  -4.198  -0.127  0.00  0.00    +0.151 A 
ATOM     13  C   UNL     1       0.347  -4.794  -1.378  0.00  0.00    +0.049 A 
ATOM     14  C   UNL     1       0.495  -6.163  -1.491  0.00  0.00    +0.024 A 
ATOM     15  C   UNL     1       0.639  -6.944  -0.358  0.00  0.00    +0.043 A 
ATOM     16  C   UNL     1       0.636  -6.357   0.895  0.00  0.00    +0.046 A 
ATOM     17  C   UNL     1       0.494  -4.982   1.015  0.00  0.00    +0.069 A 
ATOM     18 CL   UNL     1       0.824  -8.664  -0.508  0.00  0.00    -0.083 Cl
BRANCH  17  19
ATOM     19  N   UNL     1       0.497  -4.385   2.280  0.00  0.00    -0.355 N 
ATOM     20  H   UNL     1       0.393  -3.424   2.364  0.00  0.00    +0.142 HD
ATOM     21  H   UNL     1       0.602  -4.932   3.075  0.00  0.00    +0.142 HD
ENDBRANCH  17  19
ENDBRANCH   1  12
TORSDOF 3
