REMARK  Name = ZINC19297729
REMARK  9 active torsions:
REMARK  status: ('A' for Active; 'I' for Inactive)
REMARK    1  A    between atoms: C_1  and  C_2
REMARK    2  A    between atoms: C_2  and  C_3
REMARK    3  A    between atoms: C_2  and  C_4
REMARK    4  A    between atoms: C_2  and  C_5
REMARK    5  A    between atoms: C_12  and  C_14
REMARK    6  A    between atoms: C_17  and  S_20
REMARK    7  A    between atoms: N_18  and  C_19
REMARK    8  A    between atoms: S_20  and  C_21
REMARK    9  A    between atoms: C_21  and  C_22
REMARK                            x       y       z     vdW  Elec       q    Type
REMARK                         _______ _______ _______ _____ _____    ______ ____
ROOT
ATOM      1  C   UNL     1       1.214   1.746  -0.000  0.00  0.00    +0.171 A 
ATOM      2  N   UNL     1      -0.015   1.281   0.009  0.00  0.00    -0.128 NA
ATOM      3  N   UNL     1       0.002  -0.004   0.002  0.00  0.00    -0.122 NA
ATOM      4  C   UNL     1       1.241  -0.440  -0.012  0.00  0.00    +0.192 A 
ATOM      5  N   UNL     1       2.057   0.657  -0.014  0.00  0.00    -0.305 N 
ATOM      6  C   UNL     1       3.522   0.671  -0.028  0.00  0.00    +0.153 C 
ENDROOT
BRANCH   1  13
ATOM      7  C   UNL     1       1.686   7.929   0.839  0.00  0.00    -0.001 C 
ATOM      8  C   UNL     1       2.706   8.033  -0.298  0.00  0.00    +0.009 C 
ATOM      9  C   UNL     1       3.621   6.799  -0.254  0.00  0.00    +0.043 C 
ATOM     10  C   UNL     1       2.762   5.583  -0.117  0.00  0.00    -0.006 A 
ATOM     11  C   UNL     1       1.445   5.532   0.233  0.00  0.00    -0.036 A 
ATOM     12  C   UNL     1       0.864   4.271   0.291  0.00  0.00    +0.023 A 
ATOM     13  C   UNL     1       1.614   3.163   0.003  0.00  0.00    +0.057 A 
ATOM     14  S   UNL     1       3.208   3.884  -0.360  0.00  0.00    -0.090 S 
ATOM     15  C   UNL     1       0.680   6.816   0.540  0.00  0.00    +0.040 C 
BRANCH   7  17
ATOM     16  C   UNL     1       0.219   9.579  -0.331  0.00  0.00    +0.011 C 
ATOM     17  C   UNL     1       0.944   9.259   0.979  0.00  0.00    -0.035 C 
ATOM     18  C   UNL     1      -0.077   9.158   2.114  0.00  0.00    +0.011 C 
ATOM     19  C   UNL     1       1.946  10.372   1.292  0.00  0.00    +0.011 C 
ENDBRANCH   7  17
ENDBRANCH   1  13
BRANCH   4  20
ATOM     20  S   UNL     1       1.756  -2.125  -0.027  0.00  0.00    -0.078 S 
BRANCH  20  21
ATOM     21  C   UNL     1       0.143  -2.946  -0.015  0.00  0.00    +0.153 C 
BRANCH  21  22
ATOM     22  C   UNL     1       0.340  -4.440  -0.026  0.00  0.00    +0.146 A 
ATOM     23  N   UNL     1       0.410  -5.088  -1.175  0.00  0.00    -0.199 NA
ATOM     24  C   UNL     1       0.588  -6.407  -1.189  0.00  0.00    +0.217 A 
ATOM     25  N   UNL     1       0.687  -7.074  -0.044  0.00  0.00    -0.181 NA
ATOM     26  C   UNL     1       0.611  -6.420   1.110  0.00  0.00    +0.217 A 
ATOM     27  N   UNL     1       0.438  -5.100   1.115  0.00  0.00    -0.199 NA
ATOM     28  N   UNL     1       0.713  -7.108   2.302  0.00  0.00    -0.327 N 
ATOM     29  N   UNL     1       0.666  -7.082  -2.390  0.00  0.00    -0.327 N 
ATOM     30  H   UNL     1       0.650  -6.566   3.257  0.00  0.00    +0.145 HD
ATOM     31  H   UNL     1       0.856  -8.198   2.297  0.00  0.00    +0.145 HD
ATOM     32  H   UNL     1       0.814  -8.172  -2.400  0.00  0.00    +0.145 HD
ATOM     33  H   UNL     1       0.580  -6.529  -3.337  0.00  0.00    +0.145 HD
ENDBRANCH  21  22
ENDBRANCH  20  21
ENDBRANCH   4  20
TORSDOF 5
