REMARK  Name = ZINC65205397
REMARK  8 active torsions:
REMARK  status: ('A' for Active; 'I' for Inactive)
REMARK    1  A    between atoms: C_1  and  N_2
REMARK    2  A    between atoms: C_10  and  C_11
REMARK    3  A    between atoms: N_13  and  N_14
REMARK    4  A    between atoms: N_17  and  C_18
REMARK    5  A    between atoms: C_18  and  C_19
REMARK    6  A    between atoms: C_19  and  C_20
REMARK    7  A    between atoms: C_20  and  O_21
REMARK    8  A    between atoms: O_21  and  C_22
REMARK                            x       y       z     vdW  Elec       q    Type
REMARK                         _______ _______ _______ _____ _____    ______ ____
ROOT
ATOM      1  C   UNL     1       0.044  -0.141   2.436  0.00  0.00    +0.278 C 
ATOM      2  O   UNL     1       0.185  -0.860   3.407  0.00  0.00    -0.267 OA
ATOM      3  N   UNL     1      -0.103   1.189   2.597  0.00  0.00    -0.228 N 
ATOM      4  H   UNL     1      -0.291   1.752   1.830  0.00  0.00    +0.173 HD
ENDROOT
BRANCH   1  14
ATOM      5  C   UNL     1      -2.480  -0.785   0.776  0.00  0.00    +0.149 C 
ATOM      6  N   UNL     1      -1.098  -1.011   0.345  0.00  0.00    -0.338 N 
ATOM      7  C   UNL     1      -0.713  -1.538  -0.865  0.00  0.00    +0.050 A 
ATOM      8  C   UNL     1      -1.421  -1.989  -1.975  0.00  0.00    +0.026 A 
ATOM      9  C   UNL     1      -0.741  -2.475  -3.069  0.00  0.00    +0.002 A 
ATOM     10  C   UNL     1       0.648  -2.521  -3.077  0.00  0.00    +0.001 A 
ATOM     11  C   UNL     1       1.363  -2.085  -2.001  0.00  0.00    +0.011 A 
ATOM     12  C   UNL     1       0.695  -1.585  -0.876  0.00  0.00    +0.015 A 
ATOM     13  C   UNL     1       1.136  -1.068   0.368  0.00  0.00    +0.056 A 
ATOM     14  C   UNL     1       0.034  -0.723   1.087  0.00  0.00    +0.121 A 
ATOM     15 BR   UNL     1       2.933  -0.885   0.925  0.00  0.00    -0.047 Br
ENDBRANCH   1  14
BRANCH   3  16
ATOM     16  N   UNL     1       0.015   1.757   3.872  0.00  0.00    -0.218 N 
ATOM     17  C   UNL     1      -0.133   3.087   4.033  0.00  0.00    +0.316 C 
ATOM     18  O   UNL     1      -0.030   3.580   5.140  0.00  0.00    -0.251 OA
ATOM     19  N   UNL     1      -0.394   3.870   2.968  0.00  0.00    -0.298 N 
ATOM     20  H   UNL     1       0.203   1.193   4.639  0.00  0.00    +0.174 HD
ATOM     21  H   UNL     1      -0.475   3.477   2.085  0.00  0.00    +0.150 HD
BRANCH  19  22
ATOM     22  C   UNL     1      -0.554   5.316   3.143  0.00  0.00    +0.108 C 
BRANCH  22  23
ATOM     23  C   UNL     1      -0.841   5.965   1.788  0.00  0.00    +0.047 C 
BRANCH  23  24
ATOM     24  C   UNL     1      -1.009   7.475   1.971  0.00  0.00    +0.161 C 
BRANCH  24  25
ATOM     25  O   UNL     1      -1.277   8.081   0.706  0.00  0.00    -0.383 OA
ATOM     26  C   UNL     1      -1.451   9.498   0.765  0.00  0.00    +0.193 C 
ENDBRANCH  24  25
ENDBRANCH  23  24
ENDBRANCH  22  23
ENDBRANCH  19  22
ENDBRANCH   3  16
TORSDOF 6
