REMARK  Name = ZINC15969405
REMARK  4 active torsions:
REMARK  status: ('A' for Active; 'I' for Inactive)
REMARK    1  A    between atoms: C_6  and  C_7
REMARK    2  A    between atoms: C_7  and  N_8
REMARK    3  A    between atoms: C_13  and  C_31
REMARK    4  A    between atoms: C_31  and  C_32
REMARK                            x       y       z     vdW  Elec       q    Type
REMARK                         _______ _______ _______ _____ _____    ______ ____
ROOT
ATOM      1  N   UNL     1      -1.727  -1.016  -1.368  0.00  0.00    -0.237 N 
ATOM      2  C   UNL     1      -2.510  -0.165  -2.040  0.00  0.00    +0.227 C 
ATOM      3  O   UNL     1      -2.943   0.881  -1.606  0.00  0.00    -0.275 OA
ATOM      4  C   UNL     1      -2.772  -0.710  -3.425  0.00  0.00    +0.107 C 
ATOM      5  C   UNL     1      -2.080   0.192  -4.468  0.00  0.00    +0.076 C 
ATOM      6  N   UNL     1      -0.696  -0.341  -4.576  0.00  0.00    -0.295 NA
ATOM      7  C   UNL     1      -0.867  -1.804  -4.491  0.00  0.00    +0.136 C 
ATOM      8  C   UNL     1      -1.979  -2.047  -3.441  0.00  0.00    +0.122 C 
ATOM      9  C   UNL     1      -1.366  -2.103  -2.060  0.00  0.00    +0.229 C 
ATOM     10  O   UNL     1      -0.659  -2.995  -1.643  0.00  0.00    -0.275 OA
ATOM     11  C   UNL     1       0.415  -2.489  -4.111  0.00  0.00    +0.005 A 
ATOM     12  C   UNL     1       1.252  -2.398  -3.021  0.00  0.00    +0.027 A 
ATOM     13  C   UNL     1       2.391  -3.181  -2.955  0.00  0.00    +0.041 A 
ATOM     14  C   UNL     1       2.687  -4.055  -3.987  0.00  0.00    +0.022 A 
ATOM     15  C   UNL     1       1.851  -4.149  -5.080  0.00  0.00    +0.025 A 
ATOM     16  C   UNL     1       0.702  -3.365  -5.153  0.00  0.00    +0.039 A 
ATOM     17  N   UNL     1      -0.285  -3.283  -6.139  0.00  0.00    -0.283 N 
ATOM     18  C   UNL     1      -1.243  -2.389  -5.825  0.00  0.00    +0.243 C 
ATOM     19  O   UNL     1      -2.219  -2.111  -6.489  0.00  0.00    -0.273 OA
ATOM     20 CL   UNL     1       3.447  -3.067  -1.582  0.00  0.00    -0.084 Cl
ATOM     21  H   UNL     1      -0.274  -0.077  -5.454  0.00  0.00    +0.124 HD
ATOM     22  H   UNL     1      -0.281  -3.808  -6.954  0.00  0.00    +0.155 HD
ENDROOT
BRANCH   1  23
ATOM     23  C   UNL     1      -1.294  -0.774   0.010  0.00  0.00    +0.151 C 
BRANCH  23  29
ATOM     24  C   UNL     1      -0.017   1.378   0.010  0.00  0.00    +0.009 A 
ATOM     25  C   UNL     1       1.170   2.088   0.002  0.00  0.00    +0.050 A 
ATOM     26  C   UNL     1       2.380   1.416  -0.013  0.00  0.00    +0.166 A 
ATOM     27  C   UNL     1       2.399   0.023  -0.021  0.00  0.00    +0.167 A 
ATOM     28  C   UNL     1       1.207  -0.682  -0.014  0.00  0.00    +0.054 A 
ATOM     29  C   UNL     1       0.002  -0.004   0.002  0.00  0.00    -0.026 A 
ATOM     30  O   UNL     1       3.698  -0.395  -0.036  0.00  0.00    -0.453 OA
ATOM     31  C   UNL     1       4.466   0.750  -0.450  0.00  0.00    +0.466 C 
ATOM     32  O   UNL     1       3.668   1.870  -0.024  0.00  0.00    -0.453 OA
ENDBRANCH  23  29
ENDBRANCH   1  23
BRANCH   5  33
ATOM     33  C   UNL     1      -2.057   1.644  -3.984  0.00  0.00    +0.115 C 
BRANCH  33  34
ATOM     34  C   UNL     1      -1.489   2.525  -5.066  0.00  0.00    +0.212 C 
ATOM     35  O   UNL     1      -1.137   2.040  -6.121  0.00  0.00    -0.276 OA
ATOM     36  N   UNL     1      -1.371   3.852  -4.862  0.00  0.00    -0.329 N 
ATOM     37  H   UNL     1      -1.653   4.240  -4.019  0.00  0.00    +0.145 HD
ATOM     38  H   UNL     1      -1.006   4.420  -5.559  0.00  0.00    +0.145 HD
ENDBRANCH  33  34
ENDBRANCH   5  33
TORSDOF 4
