REMARK  Name = ZINC39012634
REMARK  8 active torsions:
REMARK  status: ('A' for Active; 'I' for Inactive)
REMARK    1  A    between atoms: C_4  and  C_7
REMARK    2  A    between atoms: C_12  and  N_13
REMARK    3  A    between atoms: C_14  and  C_16
REMARK    4  A    between atoms: C_16  and  S_17
REMARK    5  A    between atoms: S_17  and  C_18
REMARK    6  A    between atoms: C_22  and  C_26
REMARK    7  A    between atoms: N_24  and  N_25
REMARK    8  A    between atoms: C_29  and  C_32
REMARK                            x       y       z     vdW  Elec       q    Type
REMARK                         _______ _______ _______ _____ _____    ______ ____
ROOT
ATOM      1  C   UNL     1       1.382  -4.480   6.025  0.00  0.00    +0.214 C 
ATOM      2  N   UNL     1       1.255  -3.194   6.759  0.00  0.00    -0.228 NA
ATOM      3  N   UNL     1      -0.151  -3.197   7.193  0.00  0.00    -0.234 NA
ATOM      4  C   UNL     1      -0.887  -3.802   6.060  0.00  0.00    +0.185 C 
ATOM      5  N   UNL     1       0.091  -4.626   5.314  0.00  0.00    -0.197 NA
ATOM      6  H   UNL     1       1.444  -2.411   6.152  0.00  0.00    +0.143 HD
ATOM      7  H   UNL     1      -0.269  -3.743   8.034  0.00  0.00    +0.143 HD
ENDROOT
BRANCH   4   8
ATOM      8  C   UNL     1      -2.023  -4.684   6.582  0.00  0.00    +0.187 C 
ATOM      9  C   UNL     1      -3.051  -3.849   7.325  0.00  0.00    +0.034 C 
ATOM     10  C   UNL     1      -3.027  -4.346   8.577  0.00  0.00    +0.091 C 
ATOM     11  N   UNL     1      -2.124  -5.358   8.668  0.00  0.00    -0.154 NA
ATOM     12  N   UNL     1      -1.528  -5.611   7.614  0.00  0.00    -0.176 NA
BRANCH  10  13
ATOM     13  C   UNL     1      -3.866  -3.857   9.698  0.00  0.00    +0.002 A 
ATOM     14  C   UNL     1      -4.767  -2.813   9.494  0.00  0.00    +0.010 A 
ATOM     15  C   UNL     1      -5.546  -2.363  10.540  0.00  0.00    +0.001 A 
ATOM     16  C   UNL     1      -5.434  -2.946  11.790  0.00  0.00    +0.000 A 
ATOM     17  C   UNL     1      -4.542  -3.983  11.998  0.00  0.00    +0.001 A 
ATOM     18  C   UNL     1      -3.762  -4.445  10.958  0.00  0.00    +0.010 A 
ENDBRANCH  10  13
ENDBRANCH   4   8
BRANCH   5  19
ATOM     19  N   UNL     1       0.202  -4.180   3.934  0.00  0.00    -0.264 NA
ATOM     20  H   UNL     1       0.819  -4.781   3.409  0.00  0.00    +0.137 HD
ATOM     21  H   UNL     1      -0.706  -4.123   3.498  0.00  0.00    +0.137 HD
ENDBRANCH   5  19
BRANCH   1  22
ATOM     22  S   UNL     1       2.753  -4.401   4.840  0.00  0.00    -0.115 S 
BRANCH  22  23
ATOM     23  C   UNL     1       4.228  -4.695   5.855  0.00  0.00    +0.168 C 
BRANCH  23  25
ATOM     24  N   UNL     1       6.683  -4.707   5.551  0.00  0.00    -0.284 N 
ATOM     25  C   UNL     1       5.463  -4.535   5.006  0.00  0.00    +0.227 C 
ATOM     26  O   UNL     1       5.358  -4.250   3.832  0.00  0.00    -0.275 OA
ATOM     27  H   UNL     1       6.765  -5.002   6.472  0.00  0.00    +0.155 HD
BRANCH  24  33
ATOM     28  C   UNL     1       8.980  -3.949   5.401  0.00  0.00    +0.003 A 
ATOM     29  C   UNL     1      10.119  -3.713   4.635  0.00  0.00    +0.010 A 
ATOM     30  C   UNL     1      10.107  -3.980   3.281  0.00  0.00    +0.001 A 
ATOM     31  C   UNL     1       8.965  -4.481   2.679  0.00  0.00    +0.002 A 
ATOM     32  C   UNL     1       7.829  -4.719   3.428  0.00  0.00    +0.024 A 
ATOM     33  C   UNL     1       7.829  -4.462   4.791  0.00  0.00    +0.041 A 
BRANCH  28  37
ATOM     34  C   UNL     1       9.003  -3.131   9.573  0.00  0.00    +0.000 A 
ATOM     35  C   UNL     1      10.023  -3.878   9.011  0.00  0.00    +0.001 A 
ATOM     36  C   UNL     1      10.021  -4.146   7.658  0.00  0.00    +0.008 A 
ATOM     37  C   UNL     1       8.988  -3.664   6.856  0.00  0.00    -0.016 A 
ATOM     38  C   UNL     1       7.963  -2.912   7.427  0.00  0.00    +0.008 A 
ATOM     39  C   UNL     1       7.976  -2.649   8.782  0.00  0.00    +0.001 A 
ENDBRANCH  28  37
ENDBRANCH  24  33
ENDBRANCH  23  25
ENDBRANCH  22  23
ENDBRANCH   1  22
TORSDOF 8
