REMARK  Name = ZINC35453129
REMARK  3 active torsions:
REMARK  status: ('A' for Active; 'I' for Inactive)
REMARK    1  A    between atoms: C_5  and  N_7
REMARK    2  A    between atoms: N_7  and  C_8
REMARK    3  A    between atoms: C_13  and  N_14
REMARK                            x       y       z     vdW  Elec       q    Type
REMARK                         _______ _______ _______ _____ _____    ______ ____
ROOT
ATOM      1  C   UNL     1       0.013  -2.753   0.079  0.00  0.00    +0.054 A 
ATOM      2  C   UNL     1      -1.176  -2.037   0.081  0.00  0.00    +0.052 A 
ATOM      3  C   UNL     1      -2.384  -2.707   0.180  0.00  0.00    +0.078 A 
ATOM      4  C   UNL     1      -2.408  -4.098   0.279  0.00  0.00    +0.144 A 
ATOM      5  C   UNL     1      -1.223  -4.812   0.276  0.00  0.00    +0.072 A 
ATOM      6  C   UNL     1      -0.011  -4.144   0.171  0.00  0.00    +0.050 A 
ATOM      7  O   UNL     1      -3.603  -4.740   0.378  0.00  0.00    -0.481 OA
ATOM      8  C   UNL     1      -4.647  -4.054   1.073  0.00  0.00    +0.325 C 
ATOM      9  C   UNL     1      -4.721  -2.626   0.594  0.00  0.00    +0.255 C 
ATOM     10  O   UNL     1      -5.785  -2.043   0.577  0.00  0.00    -0.272 OA
ATOM     11  N   UNL     1      -3.597  -1.999   0.183  0.00  0.00    -0.280 N 
ATOM     12  H   UNL     1      -3.627  -1.073  -0.105  0.00  0.00    +0.155 HD
ENDROOT
BRANCH   6  13
ATOM     13  N   UNL     1       1.189  -4.867   0.164  0.00  0.00    -0.356 N 
ATOM     14  H   UNL     1       2.037  -4.400   0.094  0.00  0.00    +0.142 HD
ATOM     15  H   UNL     1       1.173  -5.835   0.228  0.00  0.00    +0.142 HD
ENDBRANCH   6  13
BRANCH   1  16
ATOM     16  N   UNL     1       1.238  -2.078  -0.022  0.00  0.00    -0.312 N 
ATOM     17  H   UNL     1       2.070  -2.569   0.060  0.00  0.00    +0.152 HD
BRANCH  16  22
ATOM     18  C   UNL     1       0.422   1.238  -1.382  0.00  0.00    +0.002 A 
ATOM     19  C   UNL     1       1.301   2.035  -0.673  0.00  0.00    +0.002 A 
ATOM     20  C   UNL     1       2.160   1.471   0.252  0.00  0.00    +0.022 A 
ATOM     21  C   UNL     1       2.142   0.106   0.471  0.00  0.00    +0.062 A 
ATOM     22  C   UNL     1       1.259  -0.698  -0.240  0.00  0.00    +0.050 A 
ATOM     23  C   UNL     1       0.398  -0.127  -1.168  0.00  0.00    +0.025 A 
ATOM     24 CL   UNL     1       3.221  -0.602   1.632  0.00  0.00    -0.082 Cl
ENDBRANCH  16  22
ENDBRANCH   1  16
TORSDOF 3
