REMARK  Name = ZINC63985137
REMARK  10 active torsions:
REMARK  status: ('A' for Active; 'I' for Inactive)
REMARK    1  A    between atoms: CG1_1  and  CB_2
REMARK    2  A    between atoms: CB_2  and  CG2_3
REMARK    3  A    between atoms: CB_2  and  CA_4
REMARK    4  A    between atoms: CA_4  and  C_6
REMARK    5  A    between atoms: CA_4  and  N_9
REMARK    6  A    between atoms: C_10  and  C_12
REMARK    7  A    between atoms: C_12  and  C_14
REMARK    8  A    between atoms: C_12  and  N_24
REMARK    9  A    between atoms: C_14  and  C_15
REMARK   10  A    between atoms: C_25  and  O_36
REMARK                            x       y       z     vdW  Elec       q    Type
REMARK                         _______ _______ _______ _____ _____    ______ ____
ROOT
ATOM      1  C   UNK A   0      -4.214   0.561  -2.380  0.00  0.00    +0.170 C 
ENDROOT
BRANCH   1   2
ATOM      2  N   UNK A   0      -5.654   0.590  -2.111  0.00  0.00    -0.244 N 
ATOM      3  C   UNK A   0      -6.554  -0.218  -2.935  0.00  0.00    +0.300 C 
ATOM      4  N   UNK A   0      -7.850   0.456  -3.083  0.00  0.00    -0.303 N 
ATOM      5  C   UNK A   0      -8.428   1.048  -1.966  0.00  0.00    +0.042 A 
ATOM      6  C   UNK A   0      -9.801   1.170  -1.835  0.00  0.00    +0.024 A 
ATOM      7  C   UNK A   0     -10.329   1.776  -0.711  0.00  0.00    +0.002 A 
ATOM      8  C   UNK A   0      -9.497   2.262   0.285  0.00  0.00    +0.001 A 
ATOM      9  C   UNK A   0      -8.127   2.144   0.172  0.00  0.00    +0.015 A 
ATOM     10  C   UNK A   0      -7.581   1.531  -0.954  0.00  0.00    +0.058 A 
ATOM     11  C   UNK A   0      -6.125   1.355  -1.106  0.00  0.00    +0.252 C 
ATOM     12  O   UNK A   0      -5.356   1.897  -0.336  0.00  0.00    -0.270 OA
ATOM     13  H   UNK A   0      -8.294   0.487  -3.944  0.00  0.00    +0.150 HD
BRANCH   3  14
ATOM     14  O   UNK A   0      -6.754  -1.488  -2.312  0.00  0.00    -0.359 OA
ATOM     15  H   UNK A   0      -7.341  -2.079  -2.803  0.00  0.00    +0.213 HD
ENDBRANCH   3  14
ENDBRANCH   1   2
BRANCH   1  17
ATOM     16  N   VAL A   1      -2.142  -0.048  -1.174  0.00  0.00    -0.300 N 
ATOM     17  C   UNK A   0      -3.485   0.062  -1.159  0.00  0.00    +0.235 C 
ATOM     18  O   UNK A   0      -4.107  -0.240  -0.163  0.00  0.00    -0.274 OA
ATOM     19  H   VAL A   1      -1.644   0.194  -1.971  0.00  0.00    +0.150 HD
BRANCH  16  20
ATOM     20  CA  VAL A   1      -1.433  -0.534   0.013  0.00  0.00    +0.189 C 
BRANCH  20  22
ATOM     21  CG1 VAL A   1      -0.019   1.526   0.010  0.00  0.00    +0.009 C 
ATOM     22  CB  VAL A   1       0.002  -0.004   0.002  0.00  0.00    +0.014 C 
ATOM     23  CG2 VAL A   1       0.742  -0.511   1.242  0.00  0.00    +0.009 C 
ENDBRANCH  20  22
BRANCH  20  24
ATOM     24  C   VAL A   1      -1.413  -2.041   0.005  0.00  0.00    +0.376 C 
ATOM     25  O   VAL A   1      -1.034  -2.650   0.990  0.00  0.00    -0.244 OA
ATOM     26  OXT VAL A   1      -1.775  -2.650  -0.988  0.00  0.00    -0.244 OA
ENDBRANCH  20  24
ENDBRANCH  16  20
ENDBRANCH   1  17
BRANCH   1  27
ATOM     27  C   UNK A   0      -3.731   1.972  -2.721  0.00  0.00    +0.065 C 
BRANCH  27  28
ATOM     28  C   UNK A   0      -4.368   2.424  -4.010  0.00  0.00    -0.039 C 
ATOM     29  C   UNK A   0      -5.488   3.170  -4.146  0.00  0.00    -0.001 A 
ATOM     30  C   UNK A   0      -6.413   3.761  -3.171  0.00  0.00    +0.010 A 
ATOM     31  C   UNK A   0      -7.472   4.473  -3.621  0.00  0.00    +0.001 A 
ATOM     32  C   UNK A   0      -7.707   4.660  -4.990  0.00  0.00    +0.002 A 
ATOM     33  C   UNK A   0      -6.902   4.147  -5.944  0.00  0.00    +0.026 A 
ATOM     34  C   UNK A   0      -5.758   3.382  -5.585  0.00  0.00    +0.043 A 
ATOM     35  N   UNK A   0      -4.841   2.790  -6.311  0.00  0.00    -0.380 N 
ATOM     36  C   UNK A   0      -3.881   2.139  -5.413  0.00  0.00    +0.144 C 
ATOM     37  H   UNK A   0      -4.802   2.786  -7.281  0.00  0.00    +0.160 HD
ENDBRANCH  27  28
ENDBRANCH   1  27
TORSDOF 8
