REMARK  Name = ZINC00850189
REMARK  9 active torsions:
REMARK  status: ('A' for Active; 'I' for Inactive)
REMARK    1  A    between atoms: C_1  and  C_2
REMARK    2  A    between atoms: C_3  and  C_21
REMARK    3  A    between atoms: C_15  and  C_19
REMARK    4  A    between atoms: C_16  and  N_18
REMARK    5  A    between atoms: C_21  and  O_23
REMARK    6  A    between atoms: O_23  and  C_24
REMARK    7  A    between atoms: C_24  and  C_25
REMARK    8  A    between atoms: C_24  and  C_26
REMARK    9  A    between atoms: C_24  and  C_27
REMARK                            x       y       z     vdW  Elec       q    Type
REMARK                         _______ _______ _______ _____ _____    ______ ____
ROOT
ATOM      1  C   UNL     1      -0.013   1.086   0.008  0.00  0.00    +0.087 C 
ATOM      2  C   UNL     1      -0.718   1.572   1.248  0.00  0.00    +0.116 C 
ATOM      3  C   UNL     1      -0.840   2.892   1.450  0.00  0.00    +0.099 C 
ATOM      4  C   UNL     1      -1.542   3.421   2.666  0.00  0.00    +0.148 C 
ATOM      5  C   UNL     1      -0.542   3.990   3.642  0.00  0.00    -0.000 A 
ATOM      6  C   UNL     1       0.515   3.440   4.332  0.00  0.00    +0.022 A 
ATOM      7  C   UNL     1       1.275   4.231   5.176  0.00  0.00    +0.018 A 
ATOM      8  C   UNL     1       0.967   5.572   5.326  0.00  0.00    +0.017 A 
ATOM      9  C   UNL     1      -0.093   6.125   4.636  0.00  0.00    +0.025 A 
ATOM     10  C   UNL     1      -0.861   5.335   3.783  0.00  0.00    +0.038 A 
ATOM     11  N   UNL     1      -1.963   5.656   2.989  0.00  0.00    -0.284 N 
ATOM     12  C   UNL     1      -2.422   4.594   2.303  0.00  0.00    +0.238 C 
ATOM     13  O   UNL     1      -3.363   4.580   1.538  0.00  0.00    -0.274 OA
ATOM     14 BR   UNL     1       2.729   3.481   6.125  0.00  0.00    -0.050 Br
ATOM     15  C   UNL     1      -2.354   2.339   3.318  0.00  0.00    +0.110 C 
ATOM     16  C   UNL     1      -2.138   1.036   3.006  0.00  0.00    +0.199 C 
ATOM     17  O   UNL     1      -1.199   0.670   2.116  0.00  0.00    -0.445 OA
ATOM     18  H   UNL     1      -2.354   6.543   2.937  0.00  0.00    +0.155 HD
ENDROOT
BRANCH  16  19
ATOM     19  N   UNL     1      -2.897   0.068   3.614  0.00  0.00    -0.328 N 
ATOM     20  H   UNL     1      -2.752  -0.867   3.400  0.00  0.00    +0.145 HD
ATOM     21  H   UNL     1      -3.577   0.319   4.258  0.00  0.00    +0.145 HD
ENDBRANCH  16  19
BRANCH  15  22
ATOM     22  C   UNL     1      -3.362   2.684   4.275  0.00  0.00    +0.102 C 
ATOM     23  N   UNL     1      -4.162   2.957   5.034  0.00  0.00    -0.191 NA
ENDBRANCH  15  22
BRANCH   3  24
ATOM     24  C   UNL     1      -0.303   3.797   0.501  0.00  0.00    +0.341 C 
ATOM     25  O   UNL     1       0.264   3.376  -0.489  0.00  0.00    -0.245 OA
BRANCH  24  26
ATOM     26  O   UNL     1      -0.421   5.127   0.697  0.00  0.00    -0.456 OA
BRANCH  26  27
ATOM     27  C   UNL     1       0.143   5.981  -0.300  0.00  0.00    +0.106 C 
ATOM     28  C   UNL     1      -0.525   5.703  -1.648  0.00  0.00    +0.055 C 
ATOM     29  C   UNL     1      -0.087   7.442   0.091  0.00  0.00    +0.055 C 
ATOM     30  C   UNL     1       1.646   5.713  -0.410  0.00  0.00    +0.055 C 
ENDBRANCH  26  27
ENDBRANCH  24  26
ENDBRANCH   3  24
TORSDOF 5
