REMARK  Name = ZINC02937644
REMARK  12 active torsions:
REMARK  status: ('A' for Active; 'I' for Inactive)
REMARK    1  A    between atoms: C_1  and  C_2
REMARK    2  A    between atoms: C_2  and  C_3
REMARK    3  A    between atoms: C_3  and  C_5
REMARK    4  A    between atoms: C_3  and  N_6
REMARK    5  A    between atoms: C_7  and  C_9
REMARK    6  A    between atoms: C_10  and  C_30
REMARK    7  A    between atoms: C_14  and  C_18
REMARK    8  A    between atoms: N_19  and  C_20
REMARK    9  A    between atoms: N_19  and  C_21
REMARK   10  A    between atoms: C_24  and  C_27
REMARK   11  A    between atoms: C_27  and  C_28
REMARK   12  A    between atoms: C_27  and  C_29
REMARK                            x       y       z     vdW  Elec       q    Type
REMARK                         _______ _______ _______ _____ _____    ______ ____
ROOT
ATOM      1  C   UNL     1       3.336   3.376  -0.496  0.00  0.00    +0.079 A 
ATOM      2  C   UNL     1       3.464   2.025  -0.387  0.00  0.00    -0.019 A 
ATOM      3  C   UNL     1       2.344   1.241  -0.083  0.00  0.00    +0.052 A 
ATOM      4  C   UNL     1       2.248  -0.174   0.078  0.00  0.00    +0.137 A 
ATOM      5  N   UNL     1       1.075  -0.712   0.367  0.00  0.00    -0.217 NA
ATOM      6  C   UNL     1      -0.018   0.014   0.514  0.00  0.00    +0.129 A 
ATOM      7  N   UNL     1       0.004   1.326   0.377  0.00  0.00    -0.225 NA
ATOM      8  C   UNL     1       1.129   1.949   0.089  0.00  0.00    +0.114 A 
ATOM      9  S   UNL     1       1.600   3.639  -0.174  0.00  0.00    -0.064 S 
ATOM     10  C   UNL     1      -1.319  -0.670   0.844  0.00  0.00    +0.088 C 
ATOM     11  N   UNL     1       3.367  -0.971  -0.066  0.00  0.00    -0.288 N 
ATOM     12  C   UNL     1       4.144  -1.362   1.113  0.00  0.00    +0.137 C 
ATOM     13  C   UNL     1       4.808   1.375  -0.590  0.00  0.00    +0.046 C 
ENDROOT
BRANCH  11  14
ATOM     14  C   UNL     1       3.758  -1.404  -1.336  0.00  0.00    +0.035 A 
ATOM     15  C   UNL     1       3.084  -0.951  -2.464  0.00  0.00    +0.024 A 
ATOM     16  C   UNL     1       3.477  -1.377  -3.718  0.00  0.00    +0.006 A 
ATOM     17  C   UNL     1       4.531  -2.262  -3.851  0.00  0.00    -0.045 A 
ATOM     18  C   UNL     1       5.200  -2.719  -2.730  0.00  0.00    +0.006 A 
ATOM     19  C   UNL     1       4.817  -2.293  -1.474  0.00  0.00    +0.024 A 
BRANCH  17  20
ATOM     20  C   UNL     1       4.952  -2.729  -5.220  0.00  0.00    +0.013 C 
ATOM     21  C   UNL     1       3.781  -3.443  -5.898  0.00  0.00    +0.012 C 
ATOM     22  C   UNL     1       5.371  -1.523  -6.064  0.00  0.00    +0.012 C 
ENDBRANCH  17  20
ENDBRANCH  11  14
BRANCH   1  24
ATOM     23  N   UNL     1       4.049   5.679  -0.870  0.00  0.00    -0.308 N 
ATOM     24  C   UNL     1       4.370   4.372  -0.804  0.00  0.00    +0.251 C 
ATOM     25  O   UNL     1       5.517   4.017  -0.999  0.00  0.00    -0.270 OA
ATOM     26  H   UNL     1       3.134   5.962  -0.715  0.00  0.00    +0.149 HD
BRANCH  23  27
ATOM     27  C   UNL     1       5.081   6.672  -1.177  0.00  0.00    +0.070 C 
ATOM     28  C   UNL     1       5.244   6.786  -2.694  0.00  0.00    +0.028 C 
BRANCH  27  30
ATOM     29  C   UNL     1       4.626   7.949   0.922  0.00  0.00    +0.005 C 
ATOM     30  C   UNL     1       4.668   8.030  -0.606  0.00  0.00    +0.018 C 
ENDBRANCH  27  30
ENDBRANCH  23  27
ENDBRANCH   1  24
TORSDOF 5
