REMARK  Name = ZINC12502265
REMARK  12 active torsions:
REMARK  status: ('A' for Active; 'I' for Inactive)
REMARK    1  A    between atoms: C_1  and  C_2
REMARK    2  A    between atoms: C_5  and  C_34
REMARK    3  A    between atoms: C_6  and  N_8
REMARK    4  A    between atoms: C_9  and  C_11
REMARK    5  A    between atoms: C_11  and  C_12
REMARK    6  A    between atoms: C_12  and  C_13
REMARK    7  A    between atoms: N_15  and  N_16
REMARK    8  A    between atoms: N_16  and  C_17
REMARK    9  A    between atoms: C_17  and  N_19
REMARK   10  A    between atoms: C_20  and  C_22
REMARK   11  A    between atoms: C_24  and  N_31
REMARK   12  A    between atoms: C_26  and  N_28
REMARK                            x       y       z     vdW  Elec       q    Type
REMARK                         _______ _______ _______ _____ _____    ______ ____
ROOT
ATOM      1  N   UNL     1       4.787   5.543  -0.058  0.00  0.00    -0.246 N 
ATOM      2  H   UNL     1       5.622   6.037  -0.068  0.00  0.00    +0.172 HD
ENDROOT
BRANCH   1   5
ATOM      3  C   UNL     1       3.552   7.577  -0.022  0.00  0.00    +0.230 C 
ATOM      4  O   UNL     1       4.595   8.195  -0.035  0.00  0.00    -0.274 OA
ATOM      5  N   UNL     1       3.567   6.230  -0.032  0.00  0.00    -0.235 N 
ATOM      6  H   UNL     1       2.732   5.735  -0.021  0.00  0.00    +0.173 HD
BRANCH   3   7
ATOM      7  C   UNL     1       2.238   8.316   0.006  0.00  0.00    +0.106 C 
BRANCH   7   8
ATOM      8  C   UNL     1       2.501   9.823   0.013  0.00  0.00    +0.105 C 
BRANCH   8  10
ATOM      9  N   UNL     1       1.173  11.910   0.051  0.00  0.00    -0.285 N 
ATOM     10  C   UNL     1       1.188  10.562   0.041  0.00  0.00    +0.218 C 
ATOM     11  O   UNL     1       0.145   9.944   0.054  0.00  0.00    -0.275 OA
ATOM     12  H   UNL     1       2.005  12.403   0.121  0.00  0.00    +0.155 HD
BRANCH   9  18
ATOM     13  C   UNL     1      -3.533  12.014  -1.367  0.00  0.00    +0.044 C 
ATOM     14  C   UNL     1      -2.340  12.671  -0.722  0.00  0.00    -0.049 A 
ATOM     15  C   UNL     1      -2.447  13.955  -0.219  0.00  0.00    +0.004 A 
ATOM     16  C   UNL     1      -1.354  14.561   0.373  0.00  0.00    +0.005 A 
ATOM     17  C   UNL     1      -0.153  13.886   0.464  0.00  0.00    -0.029 A 
ATOM     18  C   UNL     1      -0.043  12.596  -0.040  0.00  0.00    +0.037 A 
ATOM     19  C   UNL     1      -1.141  11.992  -0.638  0.00  0.00    +0.027 A 
ATOM     20  C   UNL     1       1.038  14.548   1.109  0.00  0.00    +0.045 C 
ENDBRANCH   9  18
ENDBRANCH   8  10
ENDBRANCH   7   8
ENDBRANCH   3   7
ENDBRANCH   1   5
BRANCH   1  21
ATOM     21  C   UNL     1       4.803   4.195  -0.068  0.00  0.00    +0.153 C 
ATOM     22  S   UNL     1       6.294   3.356  -0.100  0.00  0.00    -0.017 S 
BRANCH  21  23
ATOM     23  N   UNL     1       3.643   3.508  -0.053  0.00  0.00    -0.263 N 
ATOM     24  C   UNL     1       3.658   2.161  -0.063  0.00  0.00    +0.250 C 
ATOM     25  O   UNL     1       4.717   1.565  -0.086  0.00  0.00    -0.270 OA
ATOM     26  H   UNL     1       2.798   3.984  -0.035  0.00  0.00    +0.157 HD
BRANCH  24  27
ATOM     27  C   UNL     1       2.387   1.407  -0.047  0.00  0.00    +0.041 A 
ATOM     28  C   UNL     1       1.169   2.089  -0.021  0.00  0.00    +0.046 A 
ATOM     29  C   UNL     1      -0.015   1.379  -0.006  0.00  0.00    +0.129 A 
ATOM     30  C   UNL     1       0.004  -0.004  -0.017  0.00  0.00    +0.065 A 
ATOM     31  C   UNL     1       1.208  -0.686  -0.042  0.00  0.00    +0.129 A 
ATOM     32  C   UNL     1       2.399   0.011  -0.058  0.00  0.00    +0.046 A 
BRANCH  31  33
ATOM     33  N   UNL     1       1.219  -2.166  -0.054  0.00  0.00    +0.057 N 
ATOM     34  O   UNL     1       0.169  -2.783  -0.041  0.00  0.00    -0.126 OA
ATOM     35  O   UNL     1       2.278  -2.767  -0.076  0.00  0.00    -0.126 OA
ENDBRANCH  31  33
BRANCH  29  36
ATOM     36  N   UNL     1      -1.307   2.100   0.016  0.00  0.00    +0.057 N 
ATOM     37  O   UNL     1      -2.353   1.475   0.024  0.00  0.00    -0.126 OA
ATOM     38  O   UNL     1      -1.326   3.318   0.026  0.00  0.00    -0.126 OA
ENDBRANCH  29  36
ENDBRANCH  24  27
ENDBRANCH  21  23
ENDBRANCH   1  21
TORSDOF 10
