REMARK  Name = ZINC38984735
REMARK  7 active torsions:
REMARK  status: ('A' for Active; 'I' for Inactive)
REMARK    1  A    between atoms: C_6  and  C_7
REMARK    2  A    between atoms: C_9  and  C_13
REMARK    3  A    between atoms: C_17  and  S_21
REMARK    4  A    between atoms: N_19  and  N_20
REMARK    5  A    between atoms: S_21  and  C_22
REMARK    6  A    between atoms: C_22  and  C_23
REMARK    7  A    between atoms: N_25  and  C_26
REMARK                            x       y       z     vdW  Elec       q    Type
REMARK                         _______ _______ _______ _____ _____    ______ ____
ROOT
ATOM      1  C   UNL     1      -3.304  -3.147  -1.188  0.00  0.00    +0.185 C 
ATOM      2  N   UNL     1      -3.054  -2.340  -2.410  0.00  0.00    -0.234 NA
ATOM      3  N   UNL     1      -3.985  -2.881  -3.404  0.00  0.00    -0.228 NA
ATOM      4  C   UNL     1      -5.088  -3.518  -2.656  0.00  0.00    +0.214 C 
ATOM      5  N   UNL     1      -4.778  -3.348  -1.216  0.00  0.00    -0.197 NA
ATOM      6  H   UNL     1      -3.234  -1.362  -2.241  0.00  0.00    +0.143 HD
ATOM      7  H   UNL     1      -4.332  -2.152  -4.009  0.00  0.00    +0.143 HD
ENDROOT
BRANCH   1  10
ATOM      8  C   UNL     1      -1.294  -0.775   0.058  0.00  0.00    +0.091 C 
ATOM      9  C   UNL     1      -1.390  -2.119   0.063  0.00  0.00    +0.034 C 
ATOM     10  C   UNL     1      -2.886  -2.376   0.066  0.00  0.00    +0.187 C 
ATOM     11  N   UNL     1      -3.460  -1.020   0.062  0.00  0.00    -0.176 NA
ATOM     12  N   UNL     1      -2.530  -0.211   0.063  0.00  0.00    -0.154 NA
BRANCH   8  18
ATOM     13  C   UNL     1      -0.032   1.375   0.054  0.00  0.00    +0.011 A 
ATOM     14  C   UNL     1       1.158   2.075   0.050  0.00  0.00    +0.020 A 
ATOM     15  C   UNL     1       2.364   1.395   0.045  0.00  0.00    +0.041 A 
ATOM     16  C   UNL     1       2.383   0.011   0.044  0.00  0.00    +0.020 A 
ATOM     17  C   UNL     1       1.199  -0.698   0.048  0.00  0.00    +0.011 A 
ATOM     18  C   UNL     1      -0.018  -0.018   0.053  0.00  0.00    +0.002 A 
ATOM     19 CL   UNL     1       3.857   2.281   0.040  0.00  0.00    -0.084 Cl
ENDBRANCH   8  18
ENDBRANCH   1  10
BRANCH   5  20
ATOM     20  N   UNL     1      -5.158  -4.527  -0.454  0.00  0.00    -0.264 NA
ATOM     21  H   UNL     1      -6.157  -4.663  -0.472  0.00  0.00    +0.137 HD
ATOM     22  H   UNL     1      -4.675  -5.346  -0.790  0.00  0.00    +0.137 HD
ENDBRANCH   5  20
BRANCH   4  23
ATOM     23  S   UNL     1      -6.660  -2.709  -3.057  0.00  0.00    -0.115 S 
BRANCH  23  24
ATOM     24  C   UNL     1      -6.393  -0.976  -2.593  0.00  0.00    +0.168 C 
BRANCH  24  25
ATOM     25  C   UNL     1      -7.641  -0.181  -2.879  0.00  0.00    +0.227 C 
ATOM     26  O   UNL     1      -8.615  -0.729  -3.350  0.00  0.00    -0.275 OA
ATOM     27  N   UNL     1      -7.674   1.140  -2.612  0.00  0.00    -0.283 N 
ATOM     28  H   UNL     1      -6.920   1.566  -2.177  0.00  0.00    +0.155 HD
BRANCH  27  29
ATOM     29  C   UNL     1      -8.800   1.898  -2.964  0.00  0.00    +0.069 A 
ATOM     30  C   UNL     1     -10.066   1.333  -2.898  0.00  0.00    +0.029 A 
ATOM     31  C   UNL     1     -11.174   2.081  -3.245  0.00  0.00    +0.040 A 
ATOM     32  C   UNL     1     -11.024   3.394  -3.659  0.00  0.00    +0.126 A 
ATOM     33  C   UNL     1      -9.762   3.961  -3.727  0.00  0.00    +0.078 A 
ATOM     34  C   UNL     1      -8.650   3.218  -3.374  0.00  0.00    +0.147 A 
ATOM     35  F   UNL     1      -7.420   3.772  -3.434  0.00  0.00    -0.203 F 
ATOM     36  F   UNL     1     -12.110   4.123  -3.998  0.00  0.00    -0.205 F 
ENDBRANCH  27  29
ENDBRANCH  24  25
ENDBRANCH  23  24
ENDBRANCH   4  23
TORSDOF 7
