REMARK  Name = ZINC40399212
REMARK  3 active torsions:
REMARK  status: ('A' for Active; 'I' for Inactive)
REMARK    1  A    between atoms: C_4  and  N_7
REMARK    2  A    between atoms: C_20  and  C_22
REMARK    3  A    between atoms: N_24  and  C_25
REMARK                            x       y       z     vdW  Elec       q    Type
REMARK                         _______ _______ _______ _____ _____    ______ ____
ROOT
ATOM      1  N   UNL     1       3.387  -0.652  -0.050  0.00  0.00    -0.285 N 
ATOM      2  C   UNL     1       3.457  -2.018   0.048  0.00  0.00    +0.202 A 
ATOM      3  N   UNL     1       4.676  -2.618   0.130  0.00  0.00    -0.295 N 
ATOM      4  H   UNL     1       5.482  -2.079   0.131  0.00  0.00    +0.172 HD
ATOM      5  C   UNL     1       4.763  -3.963   0.210  0.00  0.00    +0.258 A 
ATOM      6  O   UNL     1       5.851  -4.515   0.267  0.00  0.00    -0.267 OA
ATOM      7  C   UNL     1       3.582  -4.712   0.225  0.00  0.00    +0.069 A 
ATOM      8  C   UNL     1       2.367  -4.054   0.160  0.00  0.00    +0.138 A 
ATOM      9  N   UNL     1       2.342  -2.719   0.067  0.00  0.00    -0.200 NA
ATOM     10  N   UNL     1       1.183  -4.768   0.217  0.00  0.00    -0.270 N 
ATOM     11  C   UNL     1       1.172  -6.059   0.593  0.00  0.00    +0.219 C 
ATOM     12  O   UNL     1       0.139  -6.691   0.532  0.00  0.00    -0.275 OA
ATOM     13  C   UNL     1       2.426  -6.728   1.089  0.00  0.00    +0.114 C 
ATOM     14  C   UNL     1       3.632  -6.214   0.300  0.00  0.00    +0.122 C 
ATOM     15  H   UNL     1       4.200  -0.131  -0.141  0.00  0.00    +0.155 HD
ATOM     16  H   UNL     1       0.349  -4.331  -0.017  0.00  0.00    +0.156 HD
ENDROOT
BRANCH   1  20
ATOM     17  C   UNL     1      -0.313   1.258   0.047  0.00  0.00    +0.000 A 
ATOM     18  C   UNL     1      -0.111   0.108   0.787  0.00  0.00    +0.002 A 
ATOM     19  C   UNL     1       1.115  -0.528   0.757  0.00  0.00    +0.023 A 
ATOM     20  C   UNL     1       2.145  -0.011  -0.018  0.00  0.00    +0.034 A 
ATOM     21  C   UNL     1       1.939   1.144  -0.760  0.00  0.00    +0.023 A 
ATOM     22  C   UNL     1       0.711   1.776  -0.726  0.00  0.00    +0.002 A 
ENDBRANCH   1  20
BRANCH  14  23
ATOM     23  C   UNL     1       3.601  -6.787  -1.093  0.00  0.00    +0.225 C 
ATOM     24  O   UNL     1       3.544  -6.047  -2.053  0.00  0.00    -0.275 OA
ATOM     25  N   UNL     1       3.637  -8.123  -1.274  0.00  0.00    -0.284 N 
ATOM     26  H   UNL     1       3.613  -8.716  -0.507  0.00  0.00    +0.155 HD
BRANCH  25  27
ATOM     27  C   UNL     1       3.708  -8.653  -2.568  0.00  0.00    +0.052 A 
ATOM     28  C   UNL     1       3.090  -7.996  -3.624  0.00  0.00    +0.026 A 
ATOM     29  C   UNL     1       3.162  -8.521  -4.899  0.00  0.00    +0.022 A 
ATOM     30  C   UNL     1       3.849  -9.700  -5.126  0.00  0.00    +0.042 A 
ATOM     31  C   UNL     1       4.466 -10.358  -4.076  0.00  0.00    +0.041 A 
ATOM     32  C   UNL     1       4.403  -9.834  -2.799  0.00  0.00    +0.064 A 
ATOM     33 CL   UNL     1       5.183 -10.655  -1.483  0.00  0.00    -0.082 Cl
ATOM     34 CL   UNL     1       3.936 -10.357  -6.731  0.00  0.00    -0.083 Cl
ENDBRANCH  25  27
ENDBRANCH  14  23
TORSDOF 3
