REMARK  Name = ZINC12083765
REMARK  7 active torsions:
REMARK  status: ('A' for Active; 'I' for Inactive)
REMARK    1  A    between atoms: C_1  and  C_2
REMARK    2  A    between atoms: C_4  and  N_11
REMARK    3  A    between atoms: C_5  and  O_9
REMARK    4  A    between atoms: O_9  and  C_10
REMARK    5  A    between atoms: C_12  and  C_14
REMARK    6  A    between atoms: C_15  and  N_26
REMARK    7  A    between atoms: C_17  and  C_25
REMARK                            x       y       z     vdW  Elec       q    Type
REMARK                         _______ _______ _______ _____ _____    ______ ____
ROOT
ATOM      1  C   UNL     1       1.945   2.865   0.074  0.00  0.00    +0.097 A 
ATOM      2  C   UNL     1       2.489   1.596   0.077  0.00  0.00    +0.054 A 
ATOM      3  C   UNL     1       1.558   0.478   0.122  0.00  0.00    +0.030 A 
ATOM      4  C   UNL     1       1.859  -0.918   0.133  0.00  0.00    -0.034 A 
ATOM      5  C   UNL     1       0.856  -1.827   0.176  0.00  0.00    +0.074 A 
ATOM      6  C   UNL     1      -0.488  -1.413   0.209  0.00  0.00    +0.250 A 
ATOM      7  O   UNL     1      -1.381  -2.242   0.248  0.00  0.00    -0.268 OA
ATOM      8  N   UNL     1      -0.786  -0.099   0.200  0.00  0.00    -0.317 N 
ATOM      9  H   UNL     1      -1.713   0.185   0.223  0.00  0.00    +0.169 HD
ATOM     10  C   UNL     1       0.203   0.832   0.157  0.00  0.00    +0.090 A 
ATOM     11  S   UNL     1       0.192   2.557   0.131  0.00  0.00    -0.064 S 
ATOM     12  C   UNL     1       3.293  -1.380   0.097  0.00  0.00    +0.044 C 
ENDROOT
BRANCH   1  14
ATOM     13  N   UNL     1       1.911   5.257   0.040  0.00  0.00    -0.278 N 
ATOM     14  C   UNL     1       2.617   4.109   0.036  0.00  0.00    +0.257 C 
ATOM     15  O   UNL     1       3.834   4.142  -0.001  0.00  0.00    -0.269 OA
ATOM     16  H   UNL     1       0.946   5.232   0.132  0.00  0.00    +0.155 HD
BRANCH  13  20
ATOM     17  C   UNL     1       5.847   8.061   0.946  0.00  0.00    +0.045 C 
ATOM     18  C   UNL     1       4.480   7.873   0.341  0.00  0.00    -0.030 A 
ATOM     19  C   UNL     1       3.829   6.660   0.469  0.00  0.00    +0.031 A 
ATOM     20  C   UNL     1       2.571   6.486  -0.088  0.00  0.00    +0.076 A 
ATOM     21  C   UNL     1       1.968   7.534  -0.781  0.00  0.00    +0.143 A 
ATOM     22  C   UNL     1       2.623   8.748  -0.900  0.00  0.00    +0.067 A 
ATOM     23  C   UNL     1       3.878   8.915  -0.342  0.00  0.00    +0.047 A 
ATOM     24 CL   UNL     1       4.700  10.437  -0.499  0.00  0.00    -0.083 Cl
BRANCH  21  25
ATOM     25  O   UNL     1       0.737   7.366  -1.333  0.00  0.00    -0.493 OA
ATOM     26  C   UNL     1       0.180   8.484  -2.028  0.00  0.00    +0.277 C 
ENDBRANCH  21  25
ENDBRANCH  13  20
ENDBRANCH   1  14
BRANCH   2  27
ATOM     27  N   UNL     1       3.861   1.395   0.039  0.00  0.00    -0.356 N 
ATOM     28  H   UNL     1       4.218   0.497  -0.038  0.00  0.00    +0.142 HD
ATOM     29  H   UNL     1       4.464   2.154   0.089  0.00  0.00    +0.142 HD
ENDBRANCH   2  27
TORSDOF 4
