REMARK  Name = ZINC44862593
REMARK  6 active torsions:
REMARK  status: ('A' for Active; 'I' for Inactive)
REMARK    1  A    between atoms: C_1  and  C_2
REMARK    2  A    between atoms: C_2  and  C_3
REMARK    3  A    between atoms: C_3  and  C_5
REMARK    4  A    between atoms: C_3  and  C_9
REMARK    5  A    between atoms: N_6  and  O_7
REMARK    6  A    between atoms: N_11  and  C_12
REMARK                            x       y       z     vdW  Elec       q    Type
REMARK                         _______ _______ _______ _____ _____    ______ ____
ROOT
ATOM      1  C   UNL     1      -2.040  -0.353  -1.360  0.00  0.00    +0.224 C 
ATOM      2  O   UNL     1      -2.449  -1.265  -2.047  0.00  0.00    -0.275 OA
ATOM      3  N   UNL     1      -2.166   0.920  -1.786  0.00  0.00    -0.309 N 
ATOM      4  H   UNL     1      -1.903   1.653  -1.208  0.00  0.00    +0.149 HD
ENDROOT
BRANCH   3   5
ATOM      5  C   UNL     1      -2.700   1.196  -3.123  0.00  0.00    +0.035 C 
ATOM      6  C   UNL     1      -4.115   0.627  -3.234  0.00  0.00    +0.029 C 
ATOM      7  C   UNL     1      -4.673   0.915  -4.629  0.00  0.00    -0.008 C 
ATOM      8  C   UNL     1      -4.710   2.427  -4.862  0.00  0.00    +0.007 C 
ATOM      9  C   UNL     1      -3.294   2.995  -4.750  0.00  0.00    -0.008 C 
ATOM     10  C   UNL     1      -2.737   2.707  -3.355  0.00  0.00    +0.029 C 
ATOM     11  C   UNL     1      -2.397   2.340  -5.803  0.00  0.00    +0.007 C 
ATOM     12  C   UNL     1      -2.360   0.828  -5.571  0.00  0.00    -0.008 C 
ATOM     13  C   UNL     1      -3.776   0.260  -5.682  0.00  0.00    +0.007 C 
ATOM     14  C   UNL     1      -1.803   0.540  -4.175  0.00  0.00    +0.029 C 
ENDBRANCH   3   5
BRANCH   1  15
ATOM     15  C   UNL     1      -1.392  -0.642  -0.031  0.00  0.00    +0.141 C 
BRANCH  15  16
ATOM     16  C   UNL     1      -2.049  -1.843   0.598  0.00  0.00    +0.144 C 
ATOM     17  N   UNL     1      -1.535  -3.017   0.440  0.00  0.00    -0.076 NA
ATOM     18  N   UNL     1      -3.198  -1.689   1.341  0.00  0.00    -0.343 N 
ATOM     19  H   UNL     1      -3.585  -0.807   1.460  0.00  0.00    +0.144 HD
ATOM     20  H   UNL     1      -3.622  -2.462   1.746  0.00  0.00    +0.144 HD
BRANCH  17  21
ATOM     21  O   UNL     1      -2.153  -4.146   1.031  0.00  0.00    -0.408 OA
ATOM     22  H   UNL     1      -1.696  -4.981   0.858  0.00  0.00    +0.328 HD
ENDBRANCH  17  21
ENDBRANCH  15  16
BRANCH  15  24
ATOM     23  C   UNL     1       0.784  -1.074   1.118  0.00  0.00    +0.005 C 
ATOM     24  C   UNL     1       0.097  -0.926  -0.241  0.00  0.00    +0.017 C 
ENDBRANCH  15  24
ENDBRANCH   1  15
TORSDOF 5
