REMARK  Name = ZINC59883948
REMARK  15 active torsions:
REMARK  status: ('A' for Active; 'I' for Inactive)
REMARK    1  A    between atoms: C_1  and  C_2
REMARK    2  A    between atoms: C_3  and  C_11
REMARK    3  A    between atoms: C_4  and  C_10
REMARK    4  A    between atoms: N_5  and  C_7
REMARK    5  A    between atoms: C_7  and  C_8
REMARK    6  A    between atoms: C_8  and  O_9
REMARK    7  A    between atoms: N_12  and  N_13
REMARK    8  A    between atoms: C_16  and  S_19
REMARK    9  A    between atoms: S_19  and  C_20
REMARK   10  A    between atoms: C_20  and  C_22
REMARK   11  A    between atoms: C_20  and  C_23
REMARK   12  A    between atoms: N_25  and  N_26
REMARK   13  A    between atoms: C_27  and  C_29
REMARK   14  A    between atoms: C_29  and  C_30
REMARK   15  A    between atoms: C_29  and  C_31
REMARK                            x       y       z     vdW  Elec       q    Type
REMARK                         _______ _______ _______ _____ _____    ______ ____
ROOT
ATOM      1  N   UNL     1      -0.034   1.333  -4.151  0.00  0.00    -0.205 N 
ATOM      2  C   UNL     1      -0.053   2.685  -4.438  0.00  0.00    +0.232 A 
ATOM      3  N   UNL     1      -0.057   3.663  -3.556  0.00  0.00    -0.186 NA
ATOM      4  C   UNL     1      -0.076   4.840  -4.191  0.00  0.00    +0.211 A 
ATOM      5  N   UNL     1      -0.086   4.626  -5.485  0.00  0.00    -0.144 NA
ATOM      6  N   UNL     1      -0.067   3.235  -5.671  0.00  0.00    -0.245 N 
ATOM      7  H   UNL     1      -0.029   0.684  -4.872  0.00  0.00    +0.177 HD
ATOM      8  H   UNL     1      -0.065   2.761  -6.517  0.00  0.00    +0.192 HD
ENDROOT
BRANCH   1  10
ATOM      9  C   UNL     1      -0.004  -0.369  -2.549  0.00  0.00    +0.141 C 
ATOM     10  N   UNL     1      -0.022   0.899  -2.818  0.00  0.00    -0.187 NA
BRANCH   9  13
ATOM     11  C   UNL     1      -0.018   1.503   0.010  0.00  0.00    +0.068 C 
ATOM     12  C   UNL     1       0.002  -0.004   0.002  0.00  0.00    +0.069 A 
ATOM     13  C   UNL     1       0.008  -0.826  -1.145  0.00  0.00    +0.038 A 
ATOM     14  C   UNL     1       0.028  -2.134  -0.712  0.00  0.00    +0.045 A 
ATOM     15  N   UNL     1       0.034  -2.111   0.636  0.00  0.00    -0.266 N 
ATOM     16  N   UNL     1       0.023  -0.776   1.055  0.00  0.00    -0.176 NA
ATOM     17  C   UNL     1       0.041  -3.363  -1.584  0.00  0.00    +0.066 C 
BRANCH  15  18
ATOM     18  C   UNL     1       0.053  -3.285   1.513  0.00  0.00    +0.171 C 
BRANCH  18  19
ATOM     19  C   UNL     1       1.503  -3.674   1.812  0.00  0.00    +0.179 C 
BRANCH  19  20
ATOM     20  O   UNL     1       1.522  -4.818   2.667  0.00  0.00    -0.393 OA
ATOM     21  H   UNL     1       2.411  -5.121   2.899  0.00  0.00    +0.209 HD
ENDBRANCH  19  20
ENDBRANCH  18  19
ENDBRANCH  15  18
ENDBRANCH   9  13
ENDBRANCH   1  10
BRANCH   4  22
ATOM     22  S   UNL     1      -0.088   6.422  -3.415  0.00  0.00    -0.072 S 
BRANCH  22  23
ATOM     23  C   UNL     1      -0.115   7.591  -4.801  0.00  0.00    +0.138 C 
ATOM     24  C   UNL     1       1.187   7.469  -5.596  0.00  0.00    +0.029 C 
BRANCH  23  25
ATOM     25  C   UNL     1      -0.250   8.995  -4.272  0.00  0.00    +0.242 C 
ATOM     26  O   UNL     1       0.121   9.258  -3.148  0.00  0.00    -0.273 OA
ATOM     27  N   UNL     1      -0.785   9.959  -5.048  0.00  0.00    -0.233 N 
ATOM     28  H   UNL     1      -1.082   9.749  -5.947  0.00  0.00    +0.173 HD
BRANCH  27  29
ATOM     29  N   UNL     1      -0.911  11.265  -4.555  0.00  0.00    -0.234 N 
ATOM     30  C   UNL     1      -1.446  12.229  -5.331  0.00  0.00    +0.232 C 
ATOM     31  O   UNL     1      -1.817  11.966  -6.455  0.00  0.00    -0.274 OA
ATOM     32  H   UNL     1      -0.614  11.475  -3.656  0.00  0.00    +0.173 HD
BRANCH  30  33
ATOM     33  C   UNL     1      -1.581  13.633  -4.801  0.00  0.00    +0.070 C 
ATOM     34  C   UNL     1      -0.199  14.177  -4.437  0.00  0.00    +0.017 C 
ATOM     35  C   UNL     1      -2.213  14.524  -5.873  0.00  0.00    +0.017 C 
ENDBRANCH  30  33
ENDBRANCH  27  29
ENDBRANCH  23  25
ENDBRANCH  22  23
ENDBRANCH   4  22
TORSDOF 10
