REMARK  Name = ZINC21249446
REMARK  5 active torsions:
REMARK  status: ('A' for Active; 'I' for Inactive)
REMARK    1  A    between atoms: C_1  and  C_2
REMARK    2  A    between atoms: C_1  and  S_8
REMARK    3  A    between atoms: S_8  and  C_9
REMARK    4  A    between atoms: C_12  and  C_15
REMARK    5  A    between atoms: N_13  and  N_14
REMARK                            x       y       z     vdW  Elec       q    Type
REMARK                         _______ _______ _______ _____ _____    ______ ____
ROOT
ATOM      1  C   UNL     1      -1.749   3.120   2.718  0.00  0.00    +0.209 A 
ATOM      2  N   UNL     1      -1.606   1.899   3.178  0.00  0.00    -0.121 NA
ATOM      3  N   UNL     1      -1.005   1.171   2.305  0.00  0.00    -0.123 NA
ATOM      4  C   UNL     1      -0.722   1.881   1.250  0.00  0.00    +0.255 A 
ATOM      5  N   UNL     1      -1.189   3.147   1.473  0.00  0.00    -0.220 N 
ENDROOT
BRANCH   4   6
ATOM      6  C   UNL     1      -0.017   1.395   0.010  0.00  0.00    +0.454 C 
ATOM      7  F   UNL     1       0.002  -0.004   0.002  0.00  0.00    -0.163 F 
ATOM      8  F   UNL     1       1.296   1.879  -0.000  0.00  0.00    -0.163 F 
ATOM      9  F   UNL     1      -0.694   1.858  -1.124  0.00  0.00    -0.163 F 
ENDBRANCH   4   6
BRANCH   5  10
ATOM     10  N   UNL     1      -1.111   4.216   0.626  0.00  0.00    -0.295 N 
ATOM     11  H   UNL     1      -0.631   4.105  -0.357  0.00  0.00    +0.163 HD
ATOM     12  H   UNL     1      -1.529   5.188   0.927  0.00  0.00    +0.163 HD
ENDBRANCH   5  10
BRANCH   1  13
ATOM     13  S   UNL     1      -2.517   4.470   3.550  0.00  0.00    -0.078 S 
BRANCH  13  14
ATOM     14  C   UNL     1      -2.989   3.658   5.098  0.00  0.00    +0.136 C 
BRANCH  14  15
ATOM     15  C   UNL     1      -3.683   4.650   5.994  0.00  0.00    +0.101 A 
ATOM     16  C   UNL     1      -5.031   4.849   5.977  0.00  0.00    +0.122 A 
ATOM     17  S   UNL     1      -5.202   6.071   7.193  0.00  0.00    +0.048 S 
ATOM     18  N   UNL     1      -3.686   6.232   7.604  0.00  0.00    -0.109 NA
ATOM     19  N   UNL     1      -3.042   5.398   6.868  0.00  0.00    -0.144 NA
ATOM     20 CL   UNL     1      -6.247   4.086   5.002  0.00  0.00    -0.072 Cl
ENDBRANCH  14  15
ENDBRANCH  13  14
ENDBRANCH   1  13
TORSDOF 5
