REMARK  Name = ZINC39680918
REMARK  7 active torsions:
REMARK  status: ('A' for Active; 'I' for Inactive)
REMARK    1  A    between atoms: C_1  and  C_2
REMARK    2  A    between atoms: C_3  and  C_14
REMARK    3  A    between atoms: C_4  and  C_7
REMARK    4  A    between atoms: C_18  and  C_27
REMARK    5  A    between atoms: N_29  and  C_30
REMARK    6  A    between atoms: C_30  and  C_32
REMARK    7  A    between atoms: C_30  and  C_33
REMARK                            x       y       z     vdW  Elec       q    Type
REMARK                         _______ _______ _______ _____ _____    ______ ____
ROOT
ATOM      1  C   UNL     1      -2.688  -0.304   0.170  0.00  0.00    +0.252 C 
ATOM      2  O   UNL     1      -3.431  -0.202  -0.787  0.00  0.00    -0.270 OA
ATOM      3  N   UNL     1      -3.146  -0.037   1.410  0.00  0.00    -0.296 N 
ATOM      4  C   UNL     1      -2.378  -0.018   2.677  0.00  0.00    +0.121 C 
ATOM      5  C   UNL     1      -2.949   1.184   3.461  0.00  0.00    +0.100 C 
ATOM      6  C   UNL     1      -4.363   1.388   2.891  0.00  0.00    -0.004 C 
ATOM      7  C   UNL     1      -4.530   0.308   1.812  0.00  0.00    +0.115 C 
ATOM      8  C   UNL     1      -5.407   1.205   3.989  0.00  0.00    -0.010 C 
ATOM      9  C   UNL     1      -6.800   1.470   3.412  0.00  0.00    -0.082 C 
ATOM     10  N   UNL     1      -6.859   2.835   2.876  0.00  0.00    +0.379 N 
ATOM     11  C   UNL     1      -5.917   2.975   1.758  0.00  0.00    -0.082 C 
ATOM     12  C   UNL     1      -4.486   2.774   2.266  0.00  0.00    -0.010 C 
ATOM     13  H   UNL     1      -7.794   3.028   2.551  0.00  0.00    -0.086 HD
ATOM     14  H   UNL     1      -6.616   3.491   3.603  0.00  0.00    -0.086 HD
ENDROOT
BRANCH   1  17
ATOM     15  C   UNL     1      -0.305   1.578  -0.570  0.00  0.00    +0.090 C 
ATOM     16  C   UNL     1      -0.238   0.089  -0.347  0.00  0.00    +0.147 A 
ATOM     17  C   UNL     1      -1.288  -0.719  -0.025  0.00  0.00    +0.106 A 
ATOM     18  C   UNL     1      -0.753  -2.084   0.092  0.00  0.00    +0.127 A 
ATOM     19  N   UNL     1       0.530  -2.012  -0.157  0.00  0.00    -0.077 NA
ATOM     20  O   UNL     1       0.860  -0.666  -0.436  0.00  0.00    -0.359 OA
BRANCH  18  21
ATOM     21  C   UNL     1      -1.521  -3.307   0.427  0.00  0.00    +0.023 A 
ATOM     22  C   UNL     1      -2.893  -3.230   0.664  0.00  0.00    +0.011 A 
ATOM     23  C   UNL     1      -3.602  -4.372   0.976  0.00  0.00    +0.001 A 
ATOM     24  C   UNL     1      -2.954  -5.593   1.054  0.00  0.00    +0.001 A 
ATOM     25  C   UNL     1      -1.594  -5.676   0.822  0.00  0.00    +0.020 A 
ATOM     26  C   UNL     1      -0.874  -4.541   0.502  0.00  0.00    +0.050 A 
ATOM     27 CL   UNL     1       0.832  -4.648   0.203  0.00  0.00    -0.083 Cl
ENDBRANCH  18  21
ENDBRANCH   1  17
BRANCH   5  28
ATOM     28  C   UNL     1      -2.106   2.411   3.229  0.00  0.00    +0.219 C 
ATOM     29  O   UNL     1      -1.458   2.518   2.209  0.00  0.00    -0.275 OA
ATOM     30  N   UNL     1      -2.071   3.390   4.155  0.00  0.00    -0.308 N 
ATOM     31  H   UNL     1      -2.530   3.274   5.001  0.00  0.00    +0.149 HD
BRANCH  30  32
ATOM     32  C   UNL     1      -1.341   4.631   3.882  0.00  0.00    +0.100 C 
ATOM     33  C   UNL     1       0.142   4.430   4.202  0.00  0.00    +0.033 C 
BRANCH  32  34
ATOM     34  C   UNL     1      -1.894   5.739   4.741  0.00  0.00    -0.025 A 
ATOM     35  C   UNL     1      -2.248   5.504   6.061  0.00  0.00    +0.025 A 
ATOM     36  C   UNL     1      -2.752   6.545   6.818  0.00  0.00    +0.111 A 
ATOM     37  N   UNL     1      -2.898   7.748   6.298  0.00  0.00    -0.263 NA
ATOM     38  C   UNL     1      -2.572   8.007   5.047  0.00  0.00    +0.111 A 
ATOM     39  C   UNL     1      -2.056   7.018   4.231  0.00  0.00    +0.025 A 
ENDBRANCH  32  34
ENDBRANCH  30  32
ENDBRANCH   5  28
TORSDOF 5
