REMARK  Name = ZINC10962880
REMARK  6 active torsions:
REMARK  status: ('A' for Active; 'I' for Inactive)
REMARK    1  A    between atoms: C_8  and  S_10
REMARK    2  A    between atoms: S_10  and  C_11
REMARK    3  A    between atoms: C_11  and  C_12
REMARK    4  A    between atoms: N_14  and  C_15
REMARK    5  A    between atoms: C_19  and  S_21
REMARK    6  A    between atoms: S_21  and  N_24
REMARK                            x       y       z     vdW  Elec       q    Type
REMARK                         _______ _______ _______ _____ _____    ______ ____
ROOT
ATOM      1  C   UNL     1       8.535  -5.283  -0.203  0.00  0.00    +0.035 A 
ATOM      2  C   UNL     1       7.929  -6.528  -0.305  0.00  0.00    +0.023 A 
ATOM      3  C   UNL     1       8.706  -7.666  -0.408  0.00  0.00    +0.004 A 
ATOM      4  C   UNL     1      10.085  -7.565  -0.409  0.00  0.00    +0.029 A 
ATOM      5  C   UNL     1      10.691  -6.327  -0.307  0.00  0.00    +0.114 A 
ATOM      6  C   UNL     1       9.920  -5.185  -0.211  0.00  0.00    +0.052 A 
ENDROOT
BRANCH   1   9
ATOM      7  C   UNL     1       8.157  -2.983  -0.681  0.00  0.00    +0.228 C 
ATOM      8  O   UNL     1       9.240  -2.930  -1.224  0.00  0.00    -0.275 OA
ATOM      9  N   UNL     1       7.751  -4.128  -0.098  0.00  0.00    -0.285 N 
ATOM     10  H   UNL     1       6.915  -4.153   0.394  0.00  0.00    +0.155 HD
BRANCH   7  11
ATOM     11  C   UNL     1       7.265  -1.768  -0.658  0.00  0.00    +0.175 C 
BRANCH  11  12
ATOM     12  S   UNL     1       8.086  -0.399  -1.518  0.00  0.00    -0.058 S 
BRANCH  12  20
ATOM     13  C   UNL     1       4.455   4.696  -1.471  0.00  0.00    +0.002 A 
ATOM     14  C   UNL     1       3.578   3.880  -0.772  0.00  0.00    +0.004 A 
ATOM     15  C   UNL     1       3.913   2.570  -0.493  0.00  0.00    +0.048 A 
ATOM     16  C   UNL     1       5.131   2.064  -0.914  0.00  0.00    +0.156 A 
ATOM     17  C   UNL     1       6.021   2.886  -1.623  0.00  0.00    +0.110 A 
ATOM     18  C   UNL     1       5.671   4.208  -1.897  0.00  0.00    +0.031 A 
ATOM     19  N   UNL     1       7.117   2.127  -1.899  0.00  0.00    -0.203 NA
ATOM     20  C   UNL     1       6.933   0.928  -1.405  0.00  0.00    +0.258 A 
ATOM     21  O   UNL     1       5.733   0.858  -0.800  0.00  0.00    -0.431 OA
ENDBRANCH  12  20
ENDBRANCH  11  12
ENDBRANCH   7  11
ENDBRANCH   1   9
BRANCH   5  22
ATOM     22  S   UNL     1      12.449  -6.204  -0.309  0.00  0.00    +0.100 S 
ATOM     23  O   UNL     1      12.772  -4.985   0.347  0.00  0.00    -0.146 OA
ATOM     24  O   UNL     1      12.944  -7.461   0.133  0.00  0.00    -0.146 OA
BRANCH  22  25
ATOM     25  N   UNL     1      12.927  -6.035  -1.885  0.00  0.00    -0.118 NA
ATOM     26  C   UNL     1      14.183  -5.923  -2.171  0.00  0.00    +0.117 C 
ATOM     27  C   UNL     1      15.228  -5.952  -1.058  0.00  0.00    +0.073 C 
ATOM     28  C   UNL     1      15.995  -7.250  -1.197  0.00  0.00    +0.008 C 
ATOM     29  C   UNL     1      17.201  -7.147  -2.132  0.00  0.00    +0.002 C 
ATOM     30  C   UNL     1      16.903  -6.362  -3.410  0.00  0.00    +0.019 C 
ATOM     31  C   UNL     1      15.562  -6.703  -4.022  0.00  0.00    +0.102 C 
ATOM     32  N   UNL     1      14.566  -5.788  -3.426  0.00  0.00    -0.331 N 
ATOM     33  H   UNL     1      14.189  -5.077  -3.968  0.00  0.00    +0.147 HD
ENDBRANCH  22  25
ENDBRANCH   5  22
TORSDOF 6
