REMARK  Name = ZINC40724196
REMARK  4 active torsions:
REMARK  status: ('A' for Active; 'I' for Inactive)
REMARK    1  A    between atoms: C_9  and  S_11
REMARK    2  A    between atoms: S_11  and  C_12
REMARK    3  A    between atoms: C_13  and  N_19
REMARK    4  A    between atoms: C_14  and  N_18
REMARK                            x       y       z     vdW  Elec       q    Type
REMARK                         _______ _______ _______ _____ _____    ______ ____
ROOT
ATOM      1  C   UNL     1       1.484  -2.872  -1.712  0.00  0.00    +0.127 A 
ATOM      2  C   UNL     1       1.446  -4.204  -2.131  0.00  0.00    +0.097 A 
ATOM      3  C   UNL     1       1.676  -4.477  -3.480  0.00  0.00    +0.141 A 
ATOM      4  N   UNL     1       1.923  -3.466  -4.310  0.00  0.00    -0.219 NA
ATOM      5  C   UNL     1       1.950  -2.223  -3.874  0.00  0.00    +0.224 A 
ATOM      6  N   UNL     1       1.732  -1.921  -2.610  0.00  0.00    -0.227 NA
ENDROOT
BRANCH   3   7
ATOM      7  N   UNL     1       1.650  -5.785  -3.950  0.00  0.00    -0.342 N 
ATOM      8  H   UNL     1       1.470  -6.516  -3.338  0.00  0.00    +0.144 HD
ATOM      9  H   UNL     1       1.811  -5.967  -4.889  0.00  0.00    +0.144 HD
ENDBRANCH   3   7
BRANCH   2  10
ATOM     10  N   UNL     1       1.183  -5.239  -1.220  0.00  0.00    -0.353 N 
ATOM     11  H   UNL     1       1.024  -5.034  -0.285  0.00  0.00    +0.142 HD
ATOM     12  H   UNL     1       1.159  -6.159  -1.525  0.00  0.00    +0.142 HD
ENDBRANCH   2  10
BRANCH   1  13
ATOM     13  S   UNL     1       1.202  -2.456  -0.023  0.00  0.00    -0.066 S 
BRANCH  13  22
ATOM     14  C   UNL     1       0.662   1.535   0.159  0.00  0.00    +0.002 A 
ATOM     15  C   UNL     1       1.926   2.043   0.151  0.00  0.00    +0.010 A 
ATOM     16  C   UNL     1       3.029   1.177   0.088  0.00  0.00    +0.001 A 
ATOM     17  C   UNL     1       4.347   1.671   0.079  0.00  0.00    +0.011 A 
ATOM     18  C   UNL     1       5.372   0.770   0.017  0.00  0.00    +0.020 A 
ATOM     19  C   UNL     1       5.096  -0.595  -0.035  0.00  0.00    +0.111 A 
ATOM     20  N   UNL     1       3.867  -1.050  -0.026  0.00  0.00    -0.254 NA
ATOM     21  C   UNL     1       2.821  -0.223   0.034  0.00  0.00    +0.085 A 
ATOM     22  C   UNL     1       1.498  -0.721   0.044  0.00  0.00    +0.040 A 
ATOM     23  C   UNL     1       0.441   0.163   0.106  0.00  0.00    +0.017 A 
ENDBRANCH  13  22
ENDBRANCH   1  13
TORSDOF 4
