REMARK  Name = ZINC52015282
REMARK  6 active torsions:
REMARK  status: ('A' for Active; 'I' for Inactive)
REMARK    1  A    between atoms: C_1  and  C_2
REMARK    2  A    between atoms: C_2  and  C_3
REMARK    3  A    between atoms: C_3  and  C_5
REMARK    4  A    between atoms: C_3  and  N_7
REMARK    5  A    between atoms: N_7  and  C_8
REMARK    6  A    between atoms: C_14  and  O_16
REMARK                            x       y       z     vdW  Elec       q    Type
REMARK                         _______ _______ _______ _____ _____    ______ ____
ROOT
ATOM      1  C   UNL     1       0.876  -0.055   3.616  0.00  0.00    +0.083 C 
ATOM      2  C   UNL     1       1.519   1.333   3.669  0.00  0.00    +0.021 C 
ATOM      3  C   UNL     1       2.442   1.421   4.886  0.00  0.00    +0.002 C 
ATOM      4  C   UNL     1       1.629   1.186   6.161  0.00  0.00    +0.003 C 
ATOM      5  C   UNL     1       0.986  -0.201   6.107  0.00  0.00    +0.033 C 
ATOM      6  C   UNL     1       0.063  -0.289   4.890  0.00  0.00    +0.131 C 
ENDROOT
BRANCH   1   7
ATOM      7  N   UNL     1      -0.010  -0.139   2.447  0.00  0.00    -0.296 NA
ATOM      8  H   UNL     1      -0.510   0.727   2.309  0.00  0.00    +0.123 HD
BRANCH   7   9
ATOM      9  C   UNL     1       0.742  -0.511   1.242  0.00  0.00    +0.157 C 
BRANCH   9  11
ATOM     10  C   UNL     1      -0.019   1.526   0.010  0.00  0.00    +0.006 C 
ATOM     11  C   UNL     1       0.002  -0.004   0.002  0.00  0.00    +0.030 C 
ENDBRANCH   9  11
BRANCH   9  12
ATOM     12  C   UNL     1       0.867  -1.976   1.173  0.00  0.00    +0.081 C 
ATOM     13  N   UNL     1       0.963  -3.107   1.121  0.00  0.00    -0.195 NA
ENDBRANCH   9  12
ENDBRANCH   7   9
ENDBRANCH   1   7
BRANCH   6  14
ATOM     14  O   UNL     1      -0.538  -1.585   4.841  0.00  0.00    -0.390 OA
ATOM     15  H   UNL     1      -1.070  -1.802   5.619  0.00  0.00    +0.210 HD
ENDBRANCH   6  14
TORSDOF 5
