REMARK  Name = ZINC01749133
REMARK  6 active torsions:
REMARK  status: ('A' for Active; 'I' for Inactive)
REMARK    1  A    between atoms: C_1  and  C_2
REMARK    2  A    between atoms: C_6  and  C_15
REMARK    3  A    between atoms: C_12  and  C_14
REMARK    4  A    between atoms: C_16  and  C_17
REMARK    5  A    between atoms: C_18  and  C_19
REMARK    6  A    between atoms: C_22  and  N_25
REMARK                            x       y       z     vdW  Elec       q    Type
REMARK                         _______ _______ _______ _____ _____    ______ ____
ROOT
ATOM      1  C   UNL     1       7.375   5.424  -0.041  0.00  0.00    +0.109 C 
ATOM      2  C   UNL     1       7.333   3.918  -0.048  0.00  0.00    +0.215 C 
ATOM      3  O   UNL     1       8.365   3.283  -0.060  0.00  0.00    -0.276 OA
ATOM      4  N   UNL     1       6.147   3.277  -0.040  0.00  0.00    -0.270 N 
ATOM      5  C   UNL     1       6.109   1.902  -0.046  0.00  0.00    +0.137 A 
ATOM      6  C   UNL     1       4.823   1.177  -0.038  0.00  0.00    +0.033 A 
ATOM      7  C   UNL     1       4.876  -0.246  -0.040  0.00  0.00    +0.125 A 
ATOM      8  N   UNL     1       6.050  -0.833  -0.060  0.00  0.00    -0.222 NA
ATOM      9  C   UNL     1       7.185  -0.137  -0.066  0.00  0.00    +0.223 A 
ATOM     10  N   UNL     1       7.225   1.188  -0.060  0.00  0.00    -0.198 NA
ATOM     11  N   UNL     1       8.376  -0.828  -0.081  0.00  0.00    -0.255 N 
ATOM     12  C   UNL     1       8.374  -2.176  -0.088  0.00  0.00    +0.216 C 
ATOM     13  O   UNL     1       7.323  -2.780  -0.081  0.00  0.00    -0.276 OA
ATOM     14  C   UNL     1       9.677  -2.932  -0.104  0.00  0.00    +0.109 C 
ATOM     15  H   UNL     1       5.321   3.785  -0.030  0.00  0.00    +0.156 HD
ATOM     16  H   UNL     1       9.217  -0.345  -0.086  0.00  0.00    +0.158 HD
ENDROOT
BRANCH   6  17
ATOM     17  C   UNL     1       3.608   1.857  -0.022  0.00  0.00    +0.013 C 
ATOM     18  C   UNL     1       2.390   1.131  -0.015  0.00  0.00    +0.001 C 
BRANCH  18  19
ATOM     19  C   UNL     1       1.199   1.798   0.000  0.00  0.00    +0.001 C 
ATOM     20  C   UNL     1      -0.013   1.076   0.008  0.00  0.00    +0.008 C 
BRANCH  20  21
ATOM     21  C   UNL     1      -1.240   1.763   0.018  0.00  0.00    -0.025 A 
ATOM     22  C   UNL     1      -1.266   3.175   0.031  0.00  0.00    +0.010 A 
ATOM     23  C   UNL     1      -2.464   3.829   0.035  0.00  0.00    +0.033 A 
ATOM     24  C   UNL     1      -3.654   3.112   0.037  0.00  0.00    +0.126 A 
ATOM     25  C   UNL     1      -3.642   1.724   0.029  0.00  0.00    +0.033 A 
ATOM     26  C   UNL     1      -2.457   1.046   0.019  0.00  0.00    +0.010 A 
BRANCH  24  27
ATOM     27  N   UNL     1      -4.946   3.835   0.047  0.00  0.00    +0.056 N 
ATOM     28  O   UNL     1      -6.077   3.161   0.049  0.00  0.00    -0.126 OA
ATOM     29  O   UNL     1      -4.963   5.152   0.054  0.00  0.00    -0.126 OA
ENDBRANCH  24  27
ENDBRANCH  20  21
ENDBRANCH  18  19
ENDBRANCH   6  17
TORSDOF 4
