REMARK  Name = ZINC59114012
REMARK  16 active torsions:
REMARK  status: ('A' for Active; 'I' for Inactive)
REMARK    1  A    between atoms: C_1  and  C_2
REMARK    2  A    between atoms: C_2  and  C_23
REMARK    3  A    between atoms: C_4  and  N_11
REMARK    4  A    between atoms: C_7  and  C_9
REMARK    5  A    between atoms: C_7  and  C_10
REMARK    6  A    between atoms: N_11  and  C_12
REMARK    7  A    between atoms: C_12  and  N_14
REMARK    8  A    between atoms: N_14  and  C_15
REMARK    9  A    between atoms: C_18  and  O_21
REMARK   10  A    between atoms: O_21  and  C_22
REMARK   11  A    between atoms: C_23  and  N_24
REMARK   12  A    between atoms: N_24  and  C_25
REMARK   13  A    between atoms: C_25  and  N_27
REMARK   14  A    between atoms: N_27  and  C_28
REMARK   15  A    between atoms: C_31  and  O_34
REMARK   16  A    between atoms: O_34  and  C_35
REMARK                            x       y       z     vdW  Elec       q    Type
REMARK                         _______ _______ _______ _____ _____    ______ ____
ROOT
ATOM      1  C   UNL     1       0.354   0.862   1.156  0.00  0.00    +0.013 C 
ATOM      2  C   UNL     1       0.638  -0.636   1.022  0.00  0.00    -0.014 C 
ATOM      3  C   UNL     1      -0.663  -1.395   0.783  0.00  0.00    +0.030 C 
ATOM      4  C   UNL     1      -1.502  -1.446   2.057  0.00  0.00    +0.073 C 
ATOM      5  C   UNL     1      -0.718  -2.189   3.136  0.00  0.00    +0.028 C 
ATOM      6  C   UNL     1       0.581  -1.459   3.460  0.00  0.00    -0.033 C 
ATOM      7  C   UNL     1       1.406  -1.157   2.222  0.00  0.00    +0.014 C 
ATOM      8  C   UNL     1       1.418  -2.379   4.377  0.00  0.00    +0.011 C 
ATOM      9  C   UNL     1       0.281  -0.181   4.248  0.00  0.00    +0.011 C 
ENDROOT
BRANCH   4  10
ATOM     10  N   UNL     1      -2.749  -2.173   1.783  0.00  0.00    -0.323 N 
ATOM     11  H   UNL     1      -2.784  -2.821   1.062  0.00  0.00    +0.148 HD
BRANCH  10  12
ATOM     12  C   UNL     1      -3.844  -1.939   2.533  0.00  0.00    +0.135 C 
ATOM     13  S   UNL     1      -3.783  -0.795   3.804  0.00  0.00    -0.019 S 
BRANCH  12  14
ATOM     14  N   UNL     1      -4.988  -2.606   2.281  0.00  0.00    -0.297 N 
ATOM     15  H   UNL     1      -5.050  -3.187   1.506  0.00  0.00    +0.154 HD
BRANCH  14  16
ATOM     16  C   UNL     1      -6.087  -2.461   3.138  0.00  0.00    +0.033 A 
ATOM     17  C   UNL     1      -7.372  -2.408   2.616  0.00  0.00    +0.027 A 
ATOM     18  C   UNL     1      -8.455  -2.266   3.461  0.00  0.00    +0.047 A 
ATOM     19  C   UNL     1      -8.258  -2.175   4.831  0.00  0.00    +0.120 A 
ATOM     20  C   UNL     1      -6.974  -2.227   5.353  0.00  0.00    +0.047 A 
ATOM     21  C   UNL     1      -5.891  -2.376   4.510  0.00  0.00    +0.027 A 
BRANCH  19  22
ATOM     22  O   UNL     1      -9.325  -2.034   5.663  0.00  0.00    -0.495 OA
ATOM     23  C   UNL     1      -9.049  -1.947   7.063  0.00  0.00    +0.277 C 
ENDBRANCH  19  22
ENDBRANCH  14  16
ENDBRANCH  12  14
ENDBRANCH  10  12
ENDBRANCH   4  10
BRANCH   2  24
ATOM     24  C   UNL     1       1.525  -0.825  -0.229  0.00  0.00    +0.110 C 
BRANCH  24  25
ATOM     25  N   UNL     1       0.816  -0.328  -1.411  0.00  0.00    -0.326 N 
ATOM     26  H   UNL     1      -0.075   0.046  -1.320  0.00  0.00    +0.148 HD
BRANCH  25  27
ATOM     27  C   UNL     1       1.400  -0.391  -2.623  0.00  0.00    +0.135 C 
ATOM     28  S   UNL     1       2.972  -1.050  -2.783  0.00  0.00    -0.019 S 
BRANCH  27  29
ATOM     29  N   UNL     1       0.748   0.067  -3.710  0.00  0.00    -0.297 N 
ATOM     30  H   UNL     1      -0.114   0.501  -3.612  0.00  0.00    +0.154 HD
BRANCH  29  31
ATOM     31  C   UNL     1       1.314  -0.085  -4.983  0.00  0.00    +0.033 A 
ATOM     32  C   UNL     1       0.534  -0.529  -6.042  0.00  0.00    +0.027 A 
ATOM     33  C   UNL     1       1.093  -0.678  -7.296  0.00  0.00    +0.047 A 
ATOM     34  C   UNL     1       2.433  -0.384  -7.497  0.00  0.00    +0.120 A 
ATOM     35  C   UNL     1       3.213   0.060  -6.440  0.00  0.00    +0.047 A 
ATOM     36  C   UNL     1       2.655   0.215  -5.186  0.00  0.00    +0.027 A 
BRANCH  34  37
ATOM     37  O   UNL     1       2.983  -0.531  -8.732  0.00  0.00    -0.495 OA
ATOM     38  C   UNL     1       4.369  -0.210  -8.868  0.00  0.00    +0.277 C 
ENDBRANCH  34  37
ENDBRANCH  29  31
ENDBRANCH  27  29
ENDBRANCH  25  27
ENDBRANCH  24  25
ENDBRANCH   2  24
TORSDOF 11
