REMARK  Name = ZINC22007150
REMARK  10 active torsions:
REMARK  status: ('A' for Active; 'I' for Inactive)
REMARK    1  A    between atoms: C_1  and  C_2
REMARK    2  A    between atoms: C_7  and  N_8
REMARK    3  A    between atoms: C_9  and  C_11
REMARK    4  A    between atoms: C_11  and  N_12
REMARK    5  A    between atoms: C_13  and  C_15
REMARK    6  A    between atoms: C_17  and  C_22
REMARK    7  A    between atoms: C_19  and  C_20
REMARK    8  A    between atoms: C_19  and  C_21
REMARK    9  A    between atoms: C_23  and  C_24
REMARK   10  A    between atoms: C_23  and  C_25
REMARK                            x       y       z     vdW  Elec       q    Type
REMARK                         _______ _______ _______ _____ _____    ______ ____
ROOT
ATOM      1  C   UNL     1       2.293   5.675   0.224  0.00  0.00    +0.200 C 
ENDROOT
BRANCH   1   3
ATOM      2  N   UNL     1       1.161   3.486   0.010  0.00  0.00    -0.284 N 
ATOM      3  C   UNL     1       2.317   4.173   0.105  0.00  0.00    +0.234 C 
ATOM      4  O   UNL     1       3.376   3.582   0.095  0.00  0.00    -0.274 OA
ATOM      5  H   UNL     1       0.206   4.026  -0.073  0.00  0.00    +0.155 HD
BRANCH   2  12
ATOM      6  C   UNL     1      -1.000   2.114  -1.232  0.00  0.00    +0.046 C 
ATOM      7  C   UNL     1       0.139   1.377  -0.576  0.00  0.00    -0.028 A 
ATOM      8  C   UNL     1       0.156  -0.004  -0.568  0.00  0.00    +0.020 A 
ATOM      9  C   UNL     1       1.205  -0.680   0.029  0.00  0.00    +0.018 A 
ATOM     10  C   UNL     1       2.239   0.024   0.620  0.00  0.00    +0.017 A 
ATOM     11  C   UNL     1       2.227   1.405   0.615  0.00  0.00    +0.024 A 
ATOM     12  C   UNL     1       1.175   2.087   0.017  0.00  0.00    +0.036 A 
ATOM     13 BR   UNL     1       1.226  -2.571   0.037  0.00  0.00    -0.050 Br
ENDBRANCH   2  12
ENDBRANCH   1   3
BRANCH   1  14
ATOM     14  N   UNL     1       3.666   6.179   0.311  0.00  0.00    -0.306 N 
ATOM     15  C   UNL     1       3.891   7.503   0.424  0.00  0.00    +0.218 C 
ATOM     16  O   UNL     1       2.958   8.277   0.454  0.00  0.00    -0.275 OA
ATOM     17  H   UNL     1       4.512   5.477   0.285  0.00  0.00    +0.149 HD
BRANCH  15  18
ATOM     18  C   UNL     1       5.303   8.022   0.515  0.00  0.00    +0.089 C 
ATOM     19  C   UNL     1       5.788   8.517   1.879  0.00  0.00    +0.030 C 
ATOM     20  C   UNL     1       5.491   9.520   0.763  0.00  0.00    -0.016 C 
ATOM     21  C   UNL     1       6.684  10.203   0.091  0.00  0.00    +0.012 C 
ATOM     22  C   UNL     1       4.231  10.377   0.900  0.00  0.00    +0.012 C 
BRANCH  19  23
ATOM     23  C   UNL     1       7.233   8.277   2.233  0.00  0.00    -0.023 C 
ATOM     24  C   UNL     1       7.660   8.526   3.446  0.00  0.00    -0.079 C 
ATOM     25  C   UNL     1       6.707   9.051   4.488  0.00  0.00    +0.038 C 
ATOM     26  C   UNL     1       9.105   8.286   3.800  0.00  0.00    +0.038 C 
ENDBRANCH  19  23
ENDBRANCH  15  18
ENDBRANCH   1  14
TORSDOF 5
