REMARK  Name = ZINC21837500
REMARK  12 active torsions:
REMARK  status: ('A' for Active; 'I' for Inactive)
REMARK    1  A    between atoms: C_1  and  C_2
REMARK    2  A    between atoms: C_2  and  C_3
REMARK    3  A    between atoms: C_3  and  O_4
REMARK    4  A    between atoms: O_4  and  C_5
REMARK    5  A    between atoms: C_6  and  O_29
REMARK    6  A    between atoms: C_8  and  C_12
REMARK    7  A    between atoms: N_14  and  C_15
REMARK    8  A    between atoms: C_20  and  O_21
REMARK    9  A    between atoms: O_21  and  C_22
REMARK   10  A    between atoms: C_22  and  C_23
REMARK   11  A    between atoms: C_25  and  C_28
REMARK   12  A    between atoms: O_29  and  C_30
REMARK                            x       y       z     vdW  Elec       q    Type
REMARK                         _______ _______ _______ _____ _____    ______ ____
ROOT
ATOM      1  C   UNL     1       2.738   5.677   0.923  0.00  0.00    +0.249 C 
ATOM      2  O   UNL     1       1.547   5.444   1.005  0.00  0.00    -0.270 OA
ATOM      3  N   UNL     1       3.597   4.691   0.597  0.00  0.00    -0.278 N 
ATOM      4  H   UNL     1       4.680   4.879   0.612  0.00  0.00    +0.155 HD
ENDROOT
BRANCH   3   5
ATOM      5  C   UNL     1       3.109   3.428   0.240  0.00  0.00    +0.079 A 
ATOM      6  C   UNL     1       1.830   3.301  -0.276  0.00  0.00    +0.073 A 
ATOM      7  C   UNL     1       1.339   2.049  -0.634  0.00  0.00    +0.126 A 
ATOM      8  C   UNL     1       2.147   0.933  -0.458  0.00  0.00    +0.001 A 
ATOM      9  C   UNL     1       3.422   1.054   0.051  0.00  0.00    +0.055 A 
ATOM     10  C   UNL     1       3.912   2.301   0.404  0.00  0.00    +0.142 A 
ATOM     11  C   UNL     1       1.347  -0.271  -0.917  0.00  0.00    +0.083 C 
ATOM     12  C   UNL     1      -0.091   0.299  -0.961  0.00  0.00    +0.175 C 
ATOM     13  O   UNL     1       0.130   1.705  -1.159  0.00  0.00    -0.488 OA
ATOM     14  C   UNL     1      -0.874  -0.297  -2.132  0.00  0.00    +0.052 C 
BRANCH  10  15
ATOM     15  O   UNL     1       5.170   2.425   0.908  0.00  0.00    -0.490 OA
BRANCH  15  16
ATOM     16  C   UNL     1       5.934   1.225   1.048  0.00  0.00    +0.226 C 
ATOM     17  C   UNL     1       7.310   1.561   1.626  0.00  0.00    +0.048 C 
ENDBRANCH  15  16
ENDBRANCH  10  15
ENDBRANCH   3   5
BRANCH   1  21
ATOM     18  C   UNL     1       4.195   9.601   1.664  0.00  0.00    +0.180 A 
ATOM     19  C   UNL     1       2.829   9.338   1.759  0.00  0.00    +0.164 A 
ATOM     20  C   UNL     1       2.352   8.065   1.513  0.00  0.00    +0.062 A 
ATOM     21  C   UNL     1       3.242   7.040   1.181  0.00  0.00    +0.042 A 
ATOM     22  C   UNL     1       4.609   7.310   1.087  0.00  0.00    +0.037 A 
ATOM     23  C   UNL     1       5.079   8.584   1.328  0.00  0.00    +0.087 A 
ATOM     24 CL   UNL     1       6.779   8.917   1.210  0.00  0.00    -0.080 Cl
BRANCH  19  25
ATOM     25  O   UNL     1       1.966  10.336   2.089  0.00  0.00    -0.491 OA
ATOM     26  C   UNL     1       0.581   9.995   2.168  0.00  0.00    +0.277 C 
ENDBRANCH  19  25
BRANCH  18  27
ATOM     27  O   UNL     1       4.662  10.854   1.901  0.00  0.00    -0.487 OA
BRANCH  27  28
ATOM     28  C   UNL     1       4.745  11.738   0.781  0.00  0.00    +0.229 C 
BRANCH  28  30
ATOM     29  C   UNL     1       5.377  14.039   0.041  0.00  0.00    +0.007 C 
ATOM     30  C   UNL     1       5.288  13.093   1.240  0.00  0.00    +0.038 C 
ENDBRANCH  28  30
ENDBRANCH  27  28
ENDBRANCH  18  27
ENDBRANCH   1  21
TORSDOF 8
