REMARK  Name = ZINC61523330
REMARK  9 active torsions:
REMARK  status: ('A' for Active; 'I' for Inactive)
REMARK    1  A    between atoms: C_1  and  C_2
REMARK    2  A    between atoms: C_2  and  O_3
REMARK    3  A    between atoms: O_3  and  C_4
REMARK    4  A    between atoms: C_11  and  C_13
REMARK    5  A    between atoms: C_13  and  C_14
REMARK    6  A    between atoms: C_13  and  N_15
REMARK    7  A    between atoms: N_18  and  C_19
REMARK    8  A    between atoms: C_19  and  C_20
REMARK    9  A    between atoms: C_19  and  C_26
REMARK                            x       y       z     vdW  Elec       q    Type
REMARK                         _______ _______ _______ _____ _____    ______ ____
ROOT
ATOM      1  N   UNL     1      -6.762  -1.464  -0.830  0.00  0.00    -0.290 N 
ATOM      2  C   UNL     1      -7.989  -1.365  -1.377  0.00  0.00    +0.301 C 
ATOM      3  O   UNL     1      -8.830  -2.211  -1.141  0.00  0.00    -0.253 OA
ATOM      4  N   UNL     1      -8.285  -0.328  -2.186  0.00  0.00    -0.284 N 
ATOM      5  H   UNL     1      -6.091  -0.789  -1.018  0.00  0.00    +0.151 HD
ATOM      6  H   UNL     1      -7.614   0.347  -2.374  0.00  0.00    +0.151 HD
ENDROOT
BRANCH   1   7
ATOM      7  C   UNL     1      -6.441  -2.591   0.050  0.00  0.00    +0.137 C 
ATOM      8  C   UNL     1      -6.890  -2.269   1.476  0.00  0.00    +0.036 C 
BRANCH   7  16
ATOM      9  C   UNL     1      -1.498  -1.849   0.006  0.00  0.00    +0.163 A 
ATOM     10  C   UNL     1      -0.391  -2.678  -0.003  0.00  0.00    +0.049 A 
ATOM     11  C   UNL     1      -0.541  -4.056  -0.009  0.00  0.00    +0.004 A 
ATOM     12  C   UNL     1      -1.798  -4.620  -0.006  0.00  0.00    +0.012 A 
ATOM     13  C   UNL     1      -2.924  -3.796   0.004  0.00  0.00    +0.024 A 
ATOM     14  C   UNL     1      -2.778  -2.400   0.016  0.00  0.00    +0.177 A 
ATOM     15  O   UNL     1      -4.017  -1.867   0.030  0.00  0.00    -0.454 OA
ATOM     16  C   UNL     1      -4.953  -2.832   0.034  0.00  0.00    +0.126 A 
ATOM     17  C   UNL     1      -4.372  -4.039   0.010  0.00  0.00    +0.055 A 
BRANCH   9  18
ATOM     18  O   UNL     1      -1.339  -0.499   0.012  0.00  0.00    -0.489 OA
BRANCH  18  20
ATOM     19  C   UNL     1      -0.019   1.526   0.010  0.00  0.00    +0.048 C 
ATOM     20  C   UNL     1       0.002  -0.004   0.002  0.00  0.00    +0.226 C 
ENDBRANCH  18  20
ENDBRANCH   9  18
ENDBRANCH   7  16
ENDBRANCH   1   7
BRANCH   4  21
ATOM     21  C   UNL     1      -9.619  -0.220  -2.781  0.00  0.00    +0.190 C 
BRANCH  21  22
ATOM     22  C   UNL     1      -9.912   1.223  -3.100  0.00  0.00    -0.018 A 
ATOM     23  C   UNL     1      -8.919   2.029  -3.627  0.00  0.00    +0.006 A 
ATOM     24  C   UNL     1      -9.188   3.353  -3.920  0.00  0.00    +0.000 A 
ATOM     25  C   UNL     1     -10.448   3.871  -3.688  0.00  0.00    +0.000 A 
ATOM     26  C   UNL     1     -11.441   3.065  -3.162  0.00  0.00    +0.000 A 
ATOM     27  C   UNL     1     -11.174   1.740  -2.873  0.00  0.00    +0.006 A 
ENDBRANCH  21  22
BRANCH  21  28
ATOM     28  C   UNL     1      -9.672  -1.036  -4.047  0.00  0.00    +0.235 C 
ATOM     29  O   UNL     1      -8.692  -1.647  -4.416  0.00  0.00    -0.274 OA
ATOM     30  N   UNL     1     -10.809  -1.086  -4.769  0.00  0.00    -0.328 N 
ATOM     31  H   UNL     1     -11.593  -0.597  -4.474  0.00  0.00    +0.145 HD
ATOM     32  H   UNL     1     -10.843  -1.611  -5.584  0.00  0.00    +0.145 HD
ENDBRANCH  21  28
ENDBRANCH   4  21
TORSDOF 7
