REMARK  Name = ZINC09793078
REMARK  9 active torsions:
REMARK  status: ('A' for Active; 'I' for Inactive)
REMARK    1  A    between atoms: C_1  and  C_2
REMARK    2  A    between atoms: C_7  and  N_8
REMARK    3  A    between atoms: C_9  and  C_11
REMARK    4  A    between atoms: C_11  and  N_12
REMARK    5  A    between atoms: N_15  and  C_16
REMARK    6  A    between atoms: C_16  and  C_18
REMARK    7  A    between atoms: C_16  and  C_28
REMARK    8  A    between atoms: C_28  and  C_29
REMARK    9  A    between atoms: C_28  and  C_30
REMARK                            x       y       z     vdW  Elec       q    Type
REMARK                         _______ _______ _______ _____ _____    ______ ____
ROOT
ATOM      1  N   UNL     1      -6.557  -0.228  -2.213  0.00  0.00    -0.291 N 
ATOM      2  C   UNL     1      -5.675  -0.839  -1.398  0.00  0.00    +0.300 C 
ATOM      3  O   UNL     1      -5.783  -2.028  -1.168  0.00  0.00    -0.253 OA
ATOM      4  N   UNL     1      -4.674  -0.133  -0.838  0.00  0.00    -0.292 N 
ATOM      5  H   UNL     1      -6.471   0.720  -2.397  0.00  0.00    +0.151 HD
ATOM      6  H   UNL     1      -4.588   0.816  -1.022  0.00  0.00    +0.151 HD
ENDROOT
BRANCH   1   7
ATOM      7  C   UNL     1      -7.646  -0.996  -2.822  0.00  0.00    +0.202 C 
BRANCH   7   9
ATOM      8  N   UNL     1      -9.549  -0.577  -4.346  0.00  0.00    -0.284 N 
ATOM      9  C   UNL     1      -8.484  -0.086  -3.683  0.00  0.00    +0.234 C 
ATOM     10  O   UNL     1      -8.199   1.089  -3.778  0.00  0.00    -0.274 OA
ATOM     11  H   UNL     1      -9.730  -1.530  -4.335  0.00  0.00    +0.155 HD
BRANCH   8  18
ATOM     12  C   UNL     1     -11.041  -1.637  -6.524  0.00  0.00    +0.046 C 
ATOM     13  C   UNL     1     -11.140  -0.188  -6.121  0.00  0.00    -0.028 A 
ATOM     14  C   UNL     1     -11.977   0.666  -6.812  0.00  0.00    +0.020 A 
ATOM     15  C   UNL     1     -12.063   1.997  -6.447  0.00  0.00    +0.018 A 
ATOM     16  C   UNL     1     -11.317   2.476  -5.384  0.00  0.00    +0.017 A 
ATOM     17  C   UNL     1     -10.483   1.625  -4.686  0.00  0.00    +0.024 A 
ATOM     18  C   UNL     1     -10.394   0.288  -5.051  0.00  0.00    +0.036 A 
ATOM     19 BR   UNL     1     -13.204   3.166  -7.400  0.00  0.00    -0.050 Br
ENDBRANCH   8  18
ENDBRANCH   7   9
ENDBRANCH   1   7
BRANCH   4  20
ATOM     20  C   UNL     1      -3.715  -0.797   0.048  0.00  0.00    +0.107 C 
BRANCH  20  21
ATOM     21  C   UNL     1      -2.417  -0.031   0.049  0.00  0.00    -0.023 A 
ATOM     22  C   UNL     1      -2.431   1.351   0.051  0.00  0.00    +0.009 A 
ATOM     23  C   UNL     1      -1.243   2.057   0.046  0.00  0.00    +0.050 A 
ATOM     24  C   UNL     1      -0.033   1.380   0.047  0.00  0.00    +0.162 A 
ATOM     25  C   UNL     1      -0.018  -0.009   0.047  0.00  0.00    +0.162 A 
ATOM     26  C   UNL     1      -1.214  -0.712   0.047  0.00  0.00    +0.055 A 
ATOM     27  O   UNL     1       1.158  -0.694   0.048  0.00  0.00    -0.485 OA
ATOM     28  C   UNL     1       2.329   0.039  -0.331  0.00  0.00    +0.270 C 
ATOM     29  C   UNL     1       2.317   1.381   0.413  0.00  0.00    +0.270 C 
ATOM     30  O   UNL     1       1.129   2.089   0.042  0.00  0.00    -0.485 OA
ENDBRANCH  20  21
BRANCH  20  31
ATOM     31  C   UNL     1      -4.280  -0.843   1.469  0.00  0.00    +0.008 C 
ATOM     32  C   UNL     1      -3.279  -1.536   2.395  0.00  0.00    +0.009 C 
ATOM     33  C   UNL     1      -4.530   0.583   1.965  0.00  0.00    +0.009 C 
ENDBRANCH  20  31
ENDBRANCH   4  20
TORSDOF 6
