REMARK  Name = ZINC11690515
REMARK  7 active torsions:
REMARK  status: ('A' for Active; 'I' for Inactive)
REMARK    1  A    between atoms: C_1  and  N_2
REMARK    2  A    between atoms: N_2  and  C_3
REMARK    3  A    between atoms: C_9  and  C_11
REMARK    4  A    between atoms: C_12  and  N_25
REMARK    5  A    between atoms: N_13  and  C_16
REMARK    6  A    between atoms: C_20  and  O_22
REMARK    7  A    between atoms: O_22  and  C_23
REMARK                            x       y       z     vdW  Elec       q    Type
REMARK                         _______ _______ _______ _____ _____    ______ ____
ROOT
ATOM      1  C   UNL     1       5.495   3.305   0.485  0.00  0.00    +0.189 A 
ATOM      2  C   UNL     1       4.396   2.518   0.807  0.00  0.00    +0.152 A 
ATOM      3  N   UNL     1       3.304   3.175   0.327  0.00  0.00    -0.198 N 
ATOM      4  N   UNL     1       3.770   4.354  -0.270  0.00  0.00    -0.058 NA
ATOM      5  N   UNL     1       5.051   4.399  -0.161  0.00  0.00    -0.122 NA
ENDROOT
BRANCH   3   6
ATOM      6  C   UNL     1       1.968   2.754   0.418  0.00  0.00    +0.073 A 
ATOM      7  C   UNL     1       1.658   1.403   0.336  0.00  0.00    +0.029 A 
ATOM      8  C   UNL     1       0.343   0.989   0.426  0.00  0.00    +0.026 A 
ATOM      9  C   UNL     1      -0.667   1.918   0.598  0.00  0.00    +0.083 A 
ATOM     10  C   UNL     1      -0.361   3.270   0.679  0.00  0.00    +0.140 A 
ATOM     11  C   UNL     1       0.957   3.688   0.589  0.00  0.00    +0.075 A 
ATOM     12 CL   UNL     1      -2.318   1.393   0.710  0.00  0.00    -0.080 Cl
BRANCH  10  13
ATOM     13  O   UNL     1      -1.355   4.183   0.841  0.00  0.00    -0.494 OA
ATOM     14  C   UNL     1      -0.968   5.556   0.917  0.00  0.00    +0.277 C 
ENDBRANCH  10  13
ENDBRANCH   3   6
BRANCH   1  17
ATOM     15  C   UNL     1       7.548   5.004  -0.423  0.00  0.00    +0.138 C 
ATOM     16  N   UNL     1       7.879   3.801   0.344  0.00  0.00    -0.269 N 
ATOM     17  C   UNL     1       6.896   2.999   0.800  0.00  0.00    +0.274 C 
ATOM     18  O   UNL     1       7.170   2.022   1.472  0.00  0.00    -0.268 OA
BRANCH  16  19
ATOM     19  C   UNL     1       9.217   3.483   0.604  0.00  0.00    +0.036 A 
ATOM     20  C   UNL     1       9.530   2.445   1.471  0.00  0.00    +0.023 A 
ATOM     21  C   UNL     1      10.851   2.130   1.720  0.00  0.00    +0.002 A 
ATOM     22  C   UNL     1      11.862   2.856   1.117  0.00  0.00    +0.000 A 
ATOM     23  C   UNL     1      11.554   3.894   0.258  0.00  0.00    +0.002 A 
ATOM     24  C   UNL     1      10.234   4.210  -0.000  0.00  0.00    +0.023 A 
ENDBRANCH  16  19
ENDBRANCH   1  17
BRANCH   2  25
ATOM     25  N   UNL     1       4.409   1.312   1.476  0.00  0.00    -0.341 N 
ATOM     26  H   UNL     1       3.578   0.843   1.647  0.00  0.00    +0.144 HD
ATOM     27  H   UNL     1       5.250   0.933   1.776  0.00  0.00    +0.144 HD
ENDBRANCH   2  25
TORSDOF 5
