REMARK  Name = ZINC44547675
REMARK  7 active torsions:
REMARK  status: ('A' for Active; 'I' for Inactive)
REMARK    1  A    between atoms: C_1  and  C_2
REMARK    2  A    between atoms: C_2  and  C_4
REMARK    3  A    between atoms: C_4  and  C_7
REMARK    4  A    between atoms: C_7  and  C_8
REMARK    5  A    between atoms: C_10  and  O_26
REMARK    6  A    between atoms: C_13  and  O_14
REMARK    7  A    between atoms: C_22  and  O_23
REMARK                            x       y       z     vdW  Elec       q    Type
REMARK                         _______ _______ _______ _____ _____    ______ ____
ROOT
ATOM      1  C   UNL     1      -0.431   1.249  -2.512  0.00  0.00    -0.001 A 
ATOM      2  C   UNL     1      -1.405   2.103  -2.045  0.00  0.00    +0.053 A 
ATOM      3  C   UNL     1      -1.210   3.483  -2.076  0.00  0.00    +0.129 A 
ATOM      4  C   UNL     1      -0.019   4.004  -2.584  0.00  0.00    +0.078 A 
ATOM      5  C   UNL     1       0.978   3.129  -3.063  0.00  0.00    +0.078 A 
ATOM      6  C   UNL     1       0.767   1.751  -3.019  0.00  0.00    +0.132 A 
ATOM      7  C   UNL     1       2.236   3.680  -3.601  0.00  0.00    +0.202 C 
ATOM      8  O   UNL     1       2.993   2.974  -4.240  0.00  0.00    -0.286 OA
ATOM      9  C   UNL     1       2.565   5.097  -3.356  0.00  0.00    +0.075 A 
ATOM     10  C   UNL     1       1.571   5.972  -2.877  0.00  0.00    +0.037 A 
ATOM     11  C   UNL     1       1.880   7.307  -2.644  0.00  0.00    +0.012 A 
ATOM     12  C   UNL     1       3.163   7.772  -2.885  0.00  0.00    +0.004 A 
ATOM     13  C   UNL     1       4.142   6.921  -3.356  0.00  0.00    +0.046 A 
ATOM     14  C   UNL     1       3.854   5.580  -3.594  0.00  0.00    +0.128 A 
ATOM     15  C   UNL     1       0.206   5.460  -2.625  0.00  0.00    +0.198 C 
ATOM     16  O   UNL     1      -0.718   6.231  -2.453  0.00  0.00    -0.286 OA
ENDROOT
BRANCH   6  17
ATOM     17  O   UNL     1       1.723   0.901  -3.472  0.00  0.00    -0.506 OA
ATOM     18  H   UNL     1       1.645   0.687  -4.411  0.00  0.00    +0.292 HD
ENDBRANCH   6  17
BRANCH  14  19
ATOM     19  O   UNL     1       4.819   4.747  -4.057  0.00  0.00    -0.506 OA
ATOM     20  H   UNL     1       4.872   4.703  -5.021  0.00  0.00    +0.292 HD
ENDBRANCH  14  19
BRANCH   3  21
ATOM     21  O   UNL     1      -2.176   4.316  -1.614  0.00  0.00    -0.506 OA
ATOM     22  H   UNL     1      -2.098   4.526  -0.673  0.00  0.00    +0.292 HD
ENDBRANCH   3  21
BRANCH   1  23
ATOM     23  C   UNL     1      -0.659  -0.240  -2.469  0.00  0.00    +0.053 C 
BRANCH  23  24
ATOM     24  C   UNL     1      -0.052  -0.813  -1.187  0.00  0.00    +0.033 C 
ATOM     25  C   UNL     1       1.399  -1.293  -1.246  0.00  0.00    +0.016 C 
ATOM     26  C   UNL     1       0.260  -2.311  -1.161  0.00  0.00    +0.016 C 
BRANCH  24  28
ATOM     27  C   UNL     1      -1.845  -0.583   0.696  0.00  0.00    +0.086 C 
ATOM     28  C   UNL     1      -0.523  -0.177   0.096  0.00  0.00    +0.137 C 
ATOM     29  O   UNL     1       0.157   0.657   0.642  0.00  0.00    -0.297 OA
ENDBRANCH  24  28
ENDBRANCH  23  24
ENDBRANCH   1  23
TORSDOF 6
