REMARK  Name = ZINC36531106
REMARK  11 active torsions:
REMARK  status: ('A' for Active; 'I' for Inactive)
REMARK    1  A    between atoms: C_1  and  C_2
REMARK    2  A    between atoms: C_2  and  C_3
REMARK    3  A    between atoms: C_2  and  C_4
REMARK    4  A    between atoms: C_2  and  N_5
REMARK    5  A    between atoms: C_6  and  C_8
REMARK    6  A    between atoms: C_8  and  C_10
REMARK    7  A    between atoms: C_8  and  N_18
REMARK    8  A    between atoms: N_18  and  C_19
REMARK    9  A    between atoms: C_20  and  C_22
REMARK   10  A    between atoms: C_23  and  O_29
REMARK   11  A    between atoms: C_27  and  O_28
REMARK                            x       y       z     vdW  Elec       q    Type
REMARK                         _______ _______ _______ _____ _____    ______ ____
ROOT
ATOM      1  C   UNL     1       2.459  -0.774  -2.700  0.00  0.00    +0.195 C 
ENDROOT
BRANCH   1   2
ATOM      2  C   UNL     1       1.230  -0.399  -3.487  0.00  0.00    +0.018 A 
ATOM      3  C   UNL     1       1.165  -0.674  -4.841  0.00  0.00    +0.048 A 
ATOM      4  C   UNL     1       0.037  -0.330  -5.563  0.00  0.00    +0.020 A 
ATOM      5  C   UNL     1      -1.026   0.289  -4.932  0.00  0.00    +0.003 A 
ATOM      6  C   UNL     1      -0.961   0.564  -3.579  0.00  0.00    +0.020 A 
ATOM      7  C   UNL     1       0.164   0.215  -2.854  0.00  0.00    +0.048 A 
ATOM      8 CL   UNL     1       0.242   0.553  -1.153  0.00  0.00    -0.083 Cl
ATOM      9 CL   UNL     1       2.500  -1.451  -5.634  0.00  0.00    -0.083 Cl
ENDBRANCH   1   2
BRANCH   1  11
ATOM     10  N   UNL     1       1.341  -2.525  -1.357  0.00  0.00    -0.309 N 
ATOM     11  C   UNL     1       2.047  -1.377  -1.381  0.00  0.00    +0.239 C 
ATOM     12  O   UNL     1       2.351  -0.830  -0.343  0.00  0.00    -0.273 OA
ATOM     13  H   UNL     1       1.143  -2.991  -2.184  0.00  0.00    +0.149 HD
BRANCH  10  15
ATOM     14  C   UNL     1      -0.015  -2.036   0.619  0.00  0.00    +0.031 C 
ATOM     15  C   UNL     1       0.871  -3.069  -0.080  0.00  0.00    +0.026 C 
ATOM     16  C   UNL     1       2.073  -3.394   0.809  0.00  0.00    +0.031 C 
ATOM     17  C   UNL     1       0.065  -4.344  -0.335  0.00  0.00    +0.031 C 
ENDBRANCH  10  15
ENDBRANCH   1  11
BRANCH   1  18
ATOM     18  N   UNL     1       3.268   0.423  -2.457  0.00  0.00    -0.285 N 
ATOM     19  C   UNL     1       2.653   1.617  -1.873  0.00  0.00    +0.133 C 
ATOM     20  C   UNL     1       4.579   0.426  -2.772  0.00  0.00    +0.254 C 
ATOM     21  O   UNL     1       5.090  -0.565  -3.258  0.00  0.00    -0.270 OA
BRANCH  20  22
ATOM     22  C   UNL     1       5.392   1.629  -2.529  0.00  0.00    +0.119 A 
ATOM     23  C   UNL     1       6.054   1.798  -1.304  0.00  0.00    +0.133 A 
ATOM     24  C   UNL     1       6.817   2.934  -1.086  0.00  0.00    +0.046 A 
ATOM     25  C   UNL     1       6.926   3.899  -2.070  0.00  0.00    +0.007 A 
ATOM     26  C   UNL     1       6.277   3.743  -3.280  0.00  0.00    +0.046 A 
ATOM     27  C   UNL     1       5.514   2.612  -3.522  0.00  0.00    +0.133 A 
BRANCH  27  28
ATOM     28  O   UNL     1       4.883   2.458  -4.713  0.00  0.00    -0.506 OA
ATOM     29  H   UNL     1       3.990   2.828  -4.736  0.00  0.00    +0.292 HD
ENDBRANCH  27  28
BRANCH  23  30
ATOM     30  O   UNL     1       5.948   0.853  -0.337  0.00  0.00    -0.506 OA
ATOM     31  H   UNL     1       6.626   0.165  -0.383  0.00  0.00    +0.292 HD
ENDBRANCH  23  30
ENDBRANCH  20  22
ENDBRANCH   1  18
TORSDOF 7
