REMARK  Name = ZINC40369102
REMARK  4 active torsions:
REMARK  status: ('A' for Active; 'I' for Inactive)
REMARK    1  A    between atoms: C_3  and  C_18
REMARK    2  A    between atoms: C_5  and  N_7
REMARK    3  A    between atoms: C_8  and  C_10
REMARK    4  A    between atoms: N_19  and  O_20
REMARK                            x       y       z     vdW  Elec       q    Type
REMARK                         _______ _______ _______ _____ _____    ______ ____
ROOT
ATOM      1  C   UNL     1       2.457   1.664   0.187  0.00  0.00    +0.002 A 
ATOM      2  C   UNL     1       1.292   2.311   0.547  0.00  0.00    +0.011 A 
ATOM      3  C   UNL     1       0.148   1.571   0.850  0.00  0.00    +0.019 A 
ATOM      4  C   UNL     1       0.187   0.180   0.787  0.00  0.00    +0.034 A 
ATOM      5  C   UNL     1       1.361  -0.461   0.424  0.00  0.00    +0.034 A 
ATOM      6  C   UNL     1       2.496   0.284   0.125  0.00  0.00    +0.023 A 
ENDROOT
BRANCH   3   7
ATOM      7  C   UNL     1      -1.102   2.263   1.237  0.00  0.00    +0.162 C 
ATOM      8  N   UNL     1      -1.349   3.460   0.791  0.00  0.00    -0.072 NA
ATOM      9  N   UNL     1      -2.009   1.636   2.074  0.00  0.00    -0.340 N 
ATOM     10  H   UNL     1      -1.826   0.744   2.407  0.00  0.00    +0.144 HD
ATOM     11  H   UNL     1      -2.829   2.089   2.328  0.00  0.00    +0.144 HD
BRANCH   8  12
ATOM     12  O   UNL     1      -0.490   4.048  -0.170  0.00  0.00    -0.408 OA
ATOM     13  H   UNL     1      -0.754   4.938  -0.441  0.00  0.00    +0.328 HD
ENDBRANCH   8  12
ENDBRANCH   3   7
BRANCH   5  14
ATOM     14  N   UNL     1       1.405  -1.858   0.361  0.00  0.00    -0.281 N 
ATOM     15  C   UNL     1       0.305  -2.551   0.007  0.00  0.00    +0.255 C 
ATOM     16  O   UNL     1      -0.698  -1.961  -0.349  0.00  0.00    -0.269 OA
ATOM     17  H   UNL     1       2.228  -2.327   0.571  0.00  0.00    +0.155 HD
BRANCH  15  18
ATOM     18  C   UNL     1       0.316  -4.016   0.051  0.00  0.00    +0.075 A 
ATOM     19  C   UNL     1      -0.690  -4.904  -0.271  0.00  0.00    +0.024 A 
ATOM     20  C   UNL     1      -0.399  -6.263  -0.133  0.00  0.00    -0.036 A 
ATOM     21  C   UNL     1       0.846  -6.578   0.307  0.00  0.00    -0.006 A 
ATOM     22  S   UNL     1       1.634  -5.115   0.528  0.00  0.00    -0.088 S 
ATOM     23  C   UNL     1       1.038  -8.068   0.422  0.00  0.00    +0.043 C 
ATOM     24  C   UNL     1      -0.393  -8.648   0.409  0.00  0.00    +0.010 C 
ATOM     25  C   UNL     1      -1.169  -7.566  -0.366  0.00  0.00    +0.036 C 
ENDBRANCH  15  18
ENDBRANCH   5  14
TORSDOF 4
