REMARK  Name = ZINC03327473
REMARK  6 active torsions:
REMARK  status: ('A' for Active; 'I' for Inactive)
REMARK    1  A    between atoms: C_1  and  C_2
REMARK    2  A    between atoms: C_7  and  C_13
REMARK    3  A    between atoms: N_14  and  N_15
REMARK    4  A    between atoms: C_16  and  C_18
REMARK    5  A    between atoms: N_27  and  C_29
REMARK    6  A    between atoms: C_29  and  C_30
REMARK                            x       y       z     vdW  Elec       q    Type
REMARK                         _______ _______ _______ _____ _____    ______ ____
ROOT
ATOM      1  N   UNL     1       4.883   1.139  -0.036  0.00  0.00    -0.202 N 
ATOM      2  C   UNL     1       3.780   1.913  -0.022  0.00  0.00    +0.284 C 
ATOM      3  O   UNL     1       3.887   3.125  -0.017  0.00  0.00    -0.267 OA
ATOM      4  H   UNL     1       4.798   0.173  -0.040  0.00  0.00    +0.178 HD
ENDROOT
BRANCH   2   5
ATOM      5  C   UNL     1       2.442   1.291  -0.014  0.00  0.00    +0.155 A 
ATOM      6  C   UNL     1       1.231   2.128   0.002  0.00  0.00    +0.020 A 
ATOM      7  C   UNL     1       1.276   3.518   0.009  0.00  0.00    +0.011 A 
ATOM      8  C   UNL     1       0.098   4.233   0.025  0.00  0.00    +0.001 A 
ATOM      9  C   UNL     1      -1.129   3.582   0.033  0.00  0.00    +0.001 A 
ATOM     10  C   UNL     1      -1.196   2.205   0.031  0.00  0.00    +0.014 A 
ATOM     11  C   UNL     1      -0.018   1.465   0.010  0.00  0.00    +0.050 A 
ATOM     12  C   UNL     1       0.002  -0.004   0.002  0.00  0.00    +0.275 A 
ATOM     13  O   UNL     1      -1.035  -0.641   0.008  0.00  0.00    -0.266 OA
ATOM     14  N   UNL     1       1.196  -0.631  -0.013  0.00  0.00    -0.224 N 
ATOM     15  N   UNL     1       2.318  -0.014  -0.020  0.00  0.00    -0.163 NA
BRANCH  14  16
ATOM     16  C   UNL     1       1.211  -2.095  -0.021  0.00  0.00    +0.182 C 
BRANCH  16  17
ATOM     17  C   UNL     1       1.202  -2.590  -1.444  0.00  0.00    -0.026 A 
ATOM     18  C   UNL     1       0.001  -2.834  -2.084  0.00  0.00    +0.005 A 
ATOM     19  C   UNL     1      -0.007  -3.283  -3.391  0.00  0.00    +0.000 A 
ATOM     20  C   UNL     1       1.187  -3.498  -4.055  0.00  0.00    +0.000 A 
ATOM     21  C   UNL     1       2.388  -3.259  -3.414  0.00  0.00    +0.000 A 
ATOM     22  C   UNL     1       2.395  -2.805  -2.108  0.00  0.00    +0.005 A 
ENDBRANCH  16  17
ENDBRANCH  14  16
ENDBRANCH   2   5
BRANCH   1  24
ATOM     23  C   UNL     1       7.216   0.985  -0.057  0.00  0.00    +0.141 C 
ATOM     24  N   UNL     1       6.153   1.730  -0.044  0.00  0.00    -0.187 NA
BRANCH  23  31
ATOM     25  C   UNL     1      14.721   3.465  -0.109  0.00  0.00    +0.044 C 
ATOM     26  C   UNL     1      13.383   2.770  -0.102  0.00  0.00    -0.048 A 
ATOM     27  C   UNL     1      13.334   1.378  -0.109  0.00  0.00    +0.004 A 
ATOM     28  C   UNL     1      12.141   0.722  -0.101  0.00  0.00    +0.010 A 
ATOM     29  C   UNL     1      10.944   1.457  -0.087  0.00  0.00    +0.001 A 
ATOM     30  C   UNL     1       9.695   0.814  -0.080  0.00  0.00    +0.022 A 
ATOM     31  C   UNL     1       8.553   1.607  -0.066  0.00  0.00    +0.032 A 
ATOM     32  C   UNL     1       8.684   3.010  -0.065  0.00  0.00    +0.139 A 
ATOM     33  N   UNL     1       9.859   3.586  -0.066  0.00  0.00    -0.235 NA
ATOM     34  C   UNL     1      10.992   2.874  -0.080  0.00  0.00    +0.073 A 
ATOM     35  C   UNL     1      12.243   3.514  -0.088  0.00  0.00    +0.031 A 
ATOM     36 CL   UNL     1       7.255   3.995  -0.055  0.00  0.00    -0.061 Cl
ENDBRANCH  23  31
ENDBRANCH   1  24
TORSDOF 5
