REMARK  Name = ZINC37616598
REMARK  3 active torsions:
REMARK  status: ('A' for Active; 'I' for Inactive)
REMARK    1  A    between atoms: C_6  and  N_7
REMARK    2  A    between atoms: C_8  and  C_10
REMARK    3  A    between atoms: C_10  and  N_15
REMARK                            x       y       z     vdW  Elec       q    Type
REMARK                         _______ _______ _______ _____ _____    ______ ____
ROOT
ATOM      1  N   UNL     1      -1.204  -0.718   0.012  0.00  0.00    -0.287 N 
ATOM      2  C   UNL     1      -2.375  -0.061   0.131  0.00  0.00    +0.206 C 
ATOM      3  O   UNL     1      -2.392   1.151   0.138  0.00  0.00    -0.277 OA
ATOM      4  H   UNL     1      -1.196  -1.684  -0.070  0.00  0.00    +0.155 HD
ENDROOT
BRANCH   1  10
ATOM      5  C   UNL     1       0.123   1.152   0.766  0.00  0.00    +0.024 A 
ATOM      6  C   UNL     1       1.315   1.855   0.764  0.00  0.00    +0.018 A 
ATOM      7  C   UNL     1       2.382   1.405   0.006  0.00  0.00    +0.030 A 
ATOM      8  C   UNL     1       2.269   0.244  -0.762  0.00  0.00    +0.049 A 
ATOM      9  C   UNL     1       1.070  -0.458  -0.753  0.00  0.00    +0.047 A 
ATOM     10  C   UNL     1       0.002  -0.005   0.008  0.00  0.00    +0.035 A 
ATOM     11  N   UNL     1       3.327  -0.220  -1.539  0.00  0.00    -0.284 N 
ATOM     12  C   UNL     1       4.615   0.068  -1.370  0.00  0.00    +0.227 C 
ATOM     13  O   UNL     1       5.418  -0.429  -2.130  0.00  0.00    -0.275 OA
ATOM     14  C   UNL     1       5.129   0.976  -0.286  0.00  0.00    +0.170 C 
ATOM     15  S   UNL     1       3.907   2.293   0.002  0.00  0.00    -0.114 S 
ATOM     16  H   UNL     1       3.104  -0.811  -2.275  0.00  0.00    +0.155 HD
ENDBRANCH   1  10
BRANCH   2  17
ATOM     17  C   UNL     1      -3.663  -0.834   0.255  0.00  0.00    +0.007 C 
ATOM     18  C   UNL     1      -4.272  -1.101  -1.143  0.00  0.00    -0.004 C 
ATOM     19  C   UNL     1      -4.980   0.238  -1.469  0.00  0.00    -0.001 C 
ATOM     20  C   UNL     1      -5.569   0.693  -0.118  0.00  0.00    -0.001 C 
ATOM     21  C   UNL     1      -4.731   0.011   0.979  0.00  0.00    -0.004 C 
BRANCH  17  22
ATOM     22  N   UNL     1      -3.436  -2.097   0.970  0.00  0.00    +0.388 N 
ATOM     23  H   UNL     1      -3.091  -1.902   1.898  0.00  0.00    -0.089 HD
ATOM     24  H   UNL     1      -4.304  -2.607   1.035  0.00  0.00    -0.089 HD
ATOM     25  H   UNL     1      -2.757  -2.650   0.468  0.00  0.00    -0.089 HD
ENDBRANCH  17  22
ENDBRANCH   2  17
TORSDOF 3
