REMARK  Name = ZINC04143067
REMARK  7 active torsions:
REMARK  status: ('A' for Active; 'I' for Inactive)
REMARK    1  A    between atoms: C_1  and  C_2
REMARK    2  A    between atoms: C_5  and  C_27
REMARK    3  A    between atoms: C_6  and  N_8
REMARK    4  A    between atoms: N_8  and  C_9
REMARK    5  A    between atoms: C_14  and  O_16
REMARK    6  A    between atoms: O_16  and  C_17
REMARK    7  A    between atoms: C_17  and  C_19
REMARK                            x       y       z     vdW  Elec       q    Type
REMARK                         _______ _______ _______ _____ _____    ______ ____
ROOT
ATOM      1  C   UNL     1      -0.011  -2.197   3.619  0.00  0.00    +0.115 C 
ATOM      2  C   UNL     1      -0.118  -0.874   3.872  0.00  0.00    +0.149 C 
ATOM      3  C   UNL     1      -0.153  -0.660   5.263  0.00  0.00    +0.355 C 
ATOM      4  O   UNL     1      -0.245   0.433   5.790  0.00  0.00    -0.244 OA
ATOM      5  O   UNL     1      -0.070  -1.825   5.932  0.00  0.00    -0.415 OA
ATOM      6  C   UNL     1       0.018  -2.882   4.968  0.00  0.00    +0.418 C 
ATOM      7 CL   UNL     1      -0.199   0.372   2.666  0.00  0.00    -0.074 Cl
ENDROOT
BRANCH   1   8
ATOM      8  N   UNL     1       0.051  -2.797   2.391  0.00  0.00    -0.310 N 
ATOM      9  H   UNL     1      -0.673  -2.679   1.756  0.00  0.00    +0.152 HD
BRANCH   8  15
ATOM     10  C   UNL     1       4.534  -4.487   3.488  0.00  0.00    +0.044 C 
ATOM     11  C   UNL     1       3.346  -4.417   2.564  0.00  0.00    -0.049 A 
ATOM     12  C   UNL     1       3.350  -5.128   1.378  0.00  0.00    +0.004 A 
ATOM     13  C   UNL     1       2.262  -5.066   0.527  0.00  0.00    +0.005 A 
ATOM     14  C   UNL     1       1.166  -4.294   0.860  0.00  0.00    -0.029 A 
ATOM     15  C   UNL     1       1.158  -3.580   2.051  0.00  0.00    +0.034 A 
ATOM     16  C   UNL     1       2.251  -3.648   2.906  0.00  0.00    +0.027 A 
ATOM     17  C   UNL     1      -0.019  -4.227  -0.068  0.00  0.00    +0.045 C 
ENDBRANCH   8  15
ENDBRANCH   1   8
BRANCH   6  18
ATOM     18  O   UNL     1      -1.096  -3.768   5.097  0.00  0.00    -0.415 OA
BRANCH  18  19
ATOM     19  C   UNL     1      -1.147  -4.528   6.208  0.00  0.00    +0.345 C 
ATOM     20  O   UNL     1      -0.270  -4.441   7.045  0.00  0.00    -0.245 OA
BRANCH  19  21
ATOM     21  C   UNL     1      -2.267  -5.467   6.410  0.00  0.00    +0.094 A 
ATOM     22  C   UNL     1      -3.275  -5.574   5.447  0.00  0.00    +0.018 A 
ATOM     23  C   UNL     1      -4.318  -6.454   5.641  0.00  0.00    +0.001 A 
ATOM     24  C   UNL     1      -4.372  -7.230   6.787  0.00  0.00    +0.003 A 
ATOM     25  C   UNL     1      -3.381  -7.131   7.745  0.00  0.00    +0.039 A 
ATOM     26  C   UNL     1      -2.324  -6.258   7.562  0.00  0.00    +0.137 A 
ATOM     27  F   UNL     1      -1.352  -6.165   8.496  0.00  0.00    -0.205 F 
ENDBRANCH  19  21
ENDBRANCH  18  19
ENDBRANCH   6  18
TORSDOF 5
