REMARK  Name = ZINC11162903
REMARK  8 active torsions:
REMARK  status: ('A' for Active; 'I' for Inactive)
REMARK    1  A    between atoms: C_1  and  C_2
REMARK    2  A    between atoms: C_5  and  O_25
REMARK    3  A    between atoms: C_6  and  N_8
REMARK    4  A    between atoms: N_8  and  C_9
REMARK    5  A    between atoms: C_9  and  C_10
REMARK    6  A    between atoms: N_15  and  C_16
REMARK    7  A    between atoms: C_22  and  C_24
REMARK    8  A    between atoms: O_25  and  C_26
REMARK                            x       y       z     vdW  Elec       q    Type
REMARK                         _______ _______ _______ _____ _____    ______ ____
ROOT
ATOM      1  C   UNL     1      -5.436   0.594   2.350  0.00  0.00    +0.237 C 
ATOM      2  O   UNL     1      -6.077   0.303   1.363  0.00  0.00    -0.274 OA
ATOM      3  N   UNL     1      -4.093   0.484   2.339  0.00  0.00    -0.239 N 
ATOM      4  C   UNL     1      -3.462   0.049   1.230  0.00  0.00    +0.306 C 
ATOM      5  O   UNL     1      -4.105  -0.243   0.240  0.00  0.00    -0.252 OA
ATOM      6  N   UNL     1      -2.119  -0.061   1.218  0.00  0.00    -0.296 N 
ATOM      7  H   UNL     1      -3.580   0.717   3.128  0.00  0.00    +0.159 HD
ATOM      8  H   UNL     1      -1.606   0.172   2.008  0.00  0.00    +0.151 HD
ENDROOT
BRANCH   6   9
ATOM      9  C   UNL     1      -1.433  -0.534   0.013  0.00  0.00    +0.077 C 
ATOM     10  C   UNL     1      -1.413  -2.063   0.004  0.00  0.00    +0.022 C 
ATOM     11  C   UNL     1      -0.673  -2.570   1.244  0.00  0.00    +0.002 C 
ATOM     12  C   UNL     1       0.763  -2.041   1.233  0.00  0.00    +0.000 C 
ATOM     13  C   UNL     1       0.742  -0.511   1.242  0.00  0.00    +0.005 C 
ATOM     14  C   UNL     1       0.002  -0.004   0.002  0.00  0.00    +0.006 C 
ATOM     15  C   UNL     1      -0.019   1.526   0.010  0.00  0.00    +0.009 C 
ENDBRANCH   6   9
BRANCH   1  16
ATOM     16  C   UNL     1      -6.142   1.080   3.590  0.00  0.00    +0.198 C 
BRANCH  16  17
ATOM     17  N   UNL     1      -7.586   1.111   3.350  0.00  0.00    -0.333 N 
ATOM     18  H   UNL     1      -7.941   0.841   2.488  0.00  0.00    +0.147 HD
BRANCH  17  24
ATOM     19  C   UNL     1      -8.262   2.757   7.933  0.00  0.00    +0.044 C 
ATOM     20  C   UNL     1      -8.812   2.335   6.594  0.00  0.00    -0.048 A 
ATOM     21  C   UNL     1     -10.175   2.364   6.369  0.00  0.00    +0.007 A 
ATOM     22  C   UNL     1     -10.685   1.979   5.142  0.00  0.00    +0.048 A 
ATOM     23  C   UNL     1      -9.830   1.562   4.136  0.00  0.00    +0.141 A 
ATOM     24  C   UNL     1      -8.456   1.532   4.363  0.00  0.00    +0.070 A 
ATOM     25  C   UNL     1      -7.952   1.914   5.598  0.00  0.00    +0.030 A 
BRANCH  23  26
ATOM     26  O   UNL     1     -10.330   1.183   2.930  0.00  0.00    -0.493 OA
ATOM     27  C   UNL     1     -11.749   1.239   2.769  0.00  0.00    +0.277 C 
ENDBRANCH  23  26
ENDBRANCH  17  24
ENDBRANCH  16  17
ENDBRANCH   1  16
TORSDOF 5
