REMARK  Name = ZINC01094235
REMARK  14 active torsions:
REMARK  status: ('A' for Active; 'I' for Inactive)
REMARK    1  A    between atoms: C_1  and  C_2
REMARK    2  A    between atoms: C_2  and  O_3
REMARK    3  A    between atoms: O_3  and  C_4
REMARK    4  A    between atoms: C_6  and  N_29
REMARK    5  A    between atoms: C_9  and  C_10
REMARK    6  A    between atoms: N_12  and  N_13
REMARK    7  A    between atoms: N_13  and  C_15
REMARK    8  A    between atoms: C_15  and  C_17
REMARK    9  A    between atoms: C_15  and  C_19
REMARK   10  A    between atoms: C_22  and  N_26
REMARK   11  A    between atoms: C_24  and  O_25
REMARK   12  A    between atoms: N_26  and  C_27
REMARK   13  A    between atoms: N_26  and  C_28
REMARK   14  A    between atoms: C_30  and  C_32
REMARK                            x       y       z     vdW  Elec       q    Type
REMARK                         _______ _______ _______ _____ _____    ______ ____
ROOT
ATOM      1  C   UNL     1      -1.170   7.208   0.278  0.00  0.00    +0.261 C 
ATOM      2  O   UNL     1      -1.677   7.682   1.277  0.00  0.00    -0.269 OA
ATOM      3  N   UNL     1      -1.415   5.926  -0.058  0.00  0.00    -0.245 N 
ATOM      4  H   UNL     1      -1.010   5.547  -0.854  0.00  0.00    +0.169 HD
ENDROOT
BRANCH   1  10
ATOM      5  C   UNL     1      -0.037   9.371  -0.220  0.00  0.00    +0.134 A 
ATOM      6  C   UNL     1       0.798  10.138  -1.015  0.00  0.00    +0.069 A 
ATOM      7  C   UNL     1       1.370   9.584  -2.153  0.00  0.00    +0.037 A 
ATOM      8  C   UNL     1       1.112   8.258  -2.493  0.00  0.00    +0.024 A 
ATOM      9  C   UNL     1       0.296   7.492  -1.712  0.00  0.00    +0.018 A 
ATOM     10  C   UNL     1      -0.289   8.034  -0.564  0.00  0.00    +0.080 A 
BRANCH   7  11
ATOM     11  N   UNL     1       2.206  10.358  -2.957  0.00  0.00    -0.286 N 
ATOM     12  C   UNL     1       2.228  10.162  -4.290  0.00  0.00    +0.214 C 
ATOM     13  O   UNL     1       1.459   9.376  -4.801  0.00  0.00    -0.276 OA
ATOM     14  C   UNL     1       3.208  10.921  -5.147  0.00  0.00    +0.109 C 
ATOM     15  H   UNL     1       2.771  11.038  -2.557  0.00  0.00    +0.155 HD
ENDBRANCH   7  11
BRANCH   5  16
ATOM     16  O   UNL     1      -0.604   9.908   0.890  0.00  0.00    -0.491 OA
BRANCH  16  18
ATOM     17  C   UNL     1      -1.025  11.701   2.455  0.00  0.00    +0.048 C 
ATOM     18  C   UNL     1      -0.301  11.275   1.176  0.00  0.00    +0.226 C 
ENDBRANCH  16  18
ENDBRANCH   5  16
ENDBRANCH   1  10
BRANCH   3  19
ATOM     19  N   UNL     1      -2.232   5.159   0.724  0.00  0.00    -0.219 NA
ATOM     20  H   UNL     1      -3.159   5.554   0.773  0.00  0.00    +0.146 HD
BRANCH  19  21
ATOM     21  C   UNL     1      -2.275   3.773   0.239  0.00  0.00    +0.208 C 
BRANCH  21  22
ATOM     22  C   UNL     1      -0.897   3.170   0.318  0.00  0.00    +0.026 A 
ATOM     23  C   UNL     1      -0.149   3.001  -0.832  0.00  0.00    +0.011 A 
ATOM     24  C   UNL     1       1.115   2.449  -0.763  0.00  0.00    +0.024 A 
ATOM     25  C   UNL     1       1.638   2.061   0.464  0.00  0.00    +0.033 A 
ATOM     26  C   UNL     1       0.889   2.229   1.620  0.00  0.00    +0.068 A 
ATOM     27  C   UNL     1      -0.381   2.778   1.546  0.00  0.00    +0.124 A 
BRANCH  25  28
ATOM     28  N   UNL     1       2.916   1.502   0.534  0.00  0.00    -0.336 N 
ATOM     29  C   UNL     1       3.467   1.093   1.828  0.00  0.00    +0.129 C 
ATOM     30  C   UNL     1       3.706   1.325  -0.687  0.00  0.00    +0.129 C 
ENDBRANCH  25  28
BRANCH  27  31
ATOM     31  O   UNL     1      -1.120   2.939   2.676  0.00  0.00    -0.506 OA
ATOM     32  H   UNL     1      -0.990   3.793   3.111  0.00  0.00    +0.292 HD
ENDBRANCH  27  31
ENDBRANCH  21  22
BRANCH  21  33
ATOM     33  C   UNL     1      -2.738   3.756  -1.159  0.00  0.00    +0.088 C 
ATOM     34  N   UNL     1      -3.095   3.743  -2.237  0.00  0.00    -0.195 NA
ENDBRANCH  21  33
ENDBRANCH  19  21
ENDBRANCH   3  19
TORSDOF 10
