REMARK  Name = ZINC08935228
REMARK  5 active torsions:
REMARK  status: ('A' for Active; 'I' for Inactive)
REMARK    1  A    between atoms: C_1  and  C_2
REMARK    2  A    between atoms: C_11  and  C_12
REMARK    3  A    between atoms: C_12  and  N_13
REMARK    4  A    between atoms: N_13  and  N_20
REMARK    5  A    between atoms: N_21  and  C_22
REMARK                            x       y       z     vdW  Elec       q    Type
REMARK                         _______ _______ _______ _____ _____    ______ ____
ROOT
ATOM      1  N   UNL     1      -1.751   5.875   2.053  0.00  0.00    -0.179 N 
ATOM      2  C   UNL     1      -2.166   4.778   2.804  0.00  0.00    +0.228 A 
ATOM      3  C   UNL     1      -3.553   4.341   2.993  0.00  0.00    +0.204 A 
ATOM      4  N   UNL     1      -3.549   3.282   3.755  0.00  0.00    -0.032 NA
ATOM      5  O   UNL     1      -2.203   2.990   4.086  0.00  0.00    -0.239 OA
ATOM      6  N   UNL     1      -1.386   3.960   3.455  0.00  0.00    -0.030 NA
ATOM      7  N   UNL     1      -4.679   4.951   2.453  0.00  0.00    -0.338 N 
ATOM      8  H   UNL     1      -4.580   5.693   1.836  0.00  0.00    +0.144 HD
ATOM      9  H   UNL     1      -5.564   4.634   2.692  0.00  0.00    +0.144 HD
ENDROOT
BRANCH   1  10
ATOM     10  N   UNL     1      -1.527   7.108   2.679  0.00  0.00    -0.070 NA
ATOM     11  N   UNL     1      -1.795   7.253   3.933  0.00  0.00    -0.106 NA
BRANCH  11  12
ATOM     12  C   UNL     1      -1.672   8.483   4.521  0.00  0.00    +0.259 A 
ATOM     13  C   UNL     1      -1.842   8.776   5.952  0.00  0.00    +0.208 A 
ATOM     14  N   UNL     1      -1.645  10.052   6.135  0.00  0.00    -0.032 NA
ATOM     15  O   UNL     1      -1.357  10.635   4.877  0.00  0.00    -0.239 OA
ATOM     16  N   UNL     1      -1.388   9.604   3.906  0.00  0.00    -0.025 NA
ATOM     17  N   UNL     1      -2.156   7.851   6.939  0.00  0.00    -0.337 N 
ATOM     18  H   UNL     1      -2.209   6.907   6.721  0.00  0.00    +0.144 HD
ATOM     19  H   UNL     1      -2.322   8.148   7.847  0.00  0.00    +0.144 HD
ENDBRANCH  11  12
ENDBRANCH   1  10
BRANCH   1  20
ATOM     20  C   UNL     1      -1.551   5.740   0.609  0.00  0.00    +0.171 C 
BRANCH  20  31
ATOM     21  C   UNL     1       0.541   7.684   0.445  0.00  0.00    +0.044 C 
ATOM     22  C   UNL     1       0.864   6.224   0.259  0.00  0.00    -0.045 A 
ATOM     23  C   UNL     1       2.179   5.838   0.008  0.00  0.00    +0.004 A 
ATOM     24  C   UNL     1       2.504   4.527  -0.164  0.00  0.00    +0.009 A 
ATOM     25  C   UNL     1       1.500   3.547  -0.091  0.00  0.00    -0.018 A 
ATOM     26  C   UNL     1       1.798   2.184  -0.264  0.00  0.00    +0.008 A 
ATOM     27  C   UNL     1       0.799   1.262  -0.186  0.00  0.00    +0.001 A 
ATOM     28  C   UNL     1      -0.517   1.649   0.059  0.00  0.00    +0.001 A 
ATOM     29  C   UNL     1      -0.841   2.958   0.238  0.00  0.00    +0.009 A 
ATOM     30  C   UNL     1       0.163   3.939   0.163  0.00  0.00    -0.013 A 
ATOM     31  C   UNL     1      -0.135   5.302   0.337  0.00  0.00    -0.017 A 
ENDBRANCH  20  31
ENDBRANCH   1  20
TORSDOF 4
