REMARK  Name = ZINC63090032
REMARK  9 active torsions:
REMARK  status: ('A' for Active; 'I' for Inactive)
REMARK    1  A    between atoms: C_1  and  C_2
REMARK    2  A    between atoms: C_2  and  C_4
REMARK    3  A    between atoms: C_2  and  N_9
REMARK    4  A    between atoms: C_4  and  C_5
REMARK    5  A    between atoms: N_6  and  O_7
REMARK    6  A    between atoms: N_9  and  C_10
REMARK    7  A    between atoms: C_13  and  C_17
REMARK    8  A    between atoms: C_17  and  C_18
REMARK    9  A    between atoms: C_17  and  C_19
REMARK                            x       y       z     vdW  Elec       q    Type
REMARK                         _______ _______ _______ _____ _____    ______ ____
ROOT
ATOM      1  N   UNL     1       0.688  -0.476  -1.203  0.00  0.00    -0.315 N 
ATOM      2  C   UNL     1       2.019   0.037  -1.536  0.00  0.00    +0.131 C 
ATOM      3  C   UNL     1       0.052  -1.360  -2.060  0.00  0.00    +0.125 A 
ATOM      4  C   UNL     1      -1.306  -1.647  -1.905  0.00  0.00    +0.067 A 
ATOM      5  C   UNL     1      -1.893  -2.534  -2.784  0.00  0.00    +0.049 A 
ATOM      6  N   UNL     1      -1.155  -3.081  -3.741  0.00  0.00    -0.240 NA
ATOM      7  C   UNL     1       0.124  -2.790  -3.861  0.00  0.00    +0.223 A 
ATOM      8  N   UNL     1       0.724  -1.945  -3.048  0.00  0.00    -0.221 NA
ENDROOT
BRANCH   5   9
ATOM      9  C   UNL     1      -3.355  -2.878  -2.659  0.00  0.00    +0.032 C 
ATOM     10  C   UNL     1      -3.528  -4.006  -1.640  0.00  0.00    +0.014 C 
ATOM     11  C   UNL     1      -4.130  -1.645  -2.191  0.00  0.00    +0.014 C 
ENDBRANCH   5   9
BRANCH   1  13
ATOM     12  C   UNL     1      -0.292   1.438  -0.040  0.00  0.00    +0.028 C 
ATOM     13  C   UNL     1       0.029  -0.056   0.035  0.00  0.00    +0.079 C 
BRANCH  13  14
ATOM     14  C   UNL     1       0.958  -0.319   1.222  0.00  0.00    +0.096 C 
BRANCH  14  15
ATOM     15  C   UNL     1       1.175  -1.803   1.371  0.00  0.00    +0.133 C 
ATOM     16  N   UNL     1       0.605  -2.624   0.553  0.00  0.00    -0.077 NA
ATOM     17  N   UNL     1       1.982  -2.283   2.378  0.00  0.00    -0.344 N 
ATOM     18  H   UNL     1       2.410  -1.667   2.992  0.00  0.00    +0.144 HD
ATOM     19  H   UNL     1       2.121  -3.239   2.474  0.00  0.00    +0.144 HD
BRANCH  16  20
ATOM     20  O   UNL     1       0.809  -4.018   0.692  0.00  0.00    -0.408 OA
ATOM     21  H   UNL     1       0.342  -4.552   0.035  0.00  0.00    +0.328 HD
ENDBRANCH  16  20
ENDBRANCH  14  15
ENDBRANCH  13  14
ENDBRANCH   1  13
TORSDOF 5
