REMARK  Name = ZINC05145849
REMARK  6 active torsions:
REMARK  status: ('A' for Active; 'I' for Inactive)
REMARK    1  A    between atoms: C_1  and  C_2
REMARK    2  A    between atoms: C_9  and  N_18
REMARK    3  A    between atoms: C_10  and  C_11
REMARK    4  A    between atoms: C_14  and  O_16
REMARK    5  A    between atoms: O_16  and  C_17
REMARK    6  A    between atoms: C_19  and  C_21
REMARK                            x       y       z     vdW  Elec       q    Type
REMARK                         _______ _______ _______ _____ _____    ______ ____
ROOT
ATOM      1  C   UNL     1      -1.434   3.622   2.530  0.00  0.00    +0.008 C 
ATOM      2  C   UNL     1      -0.937   3.098   1.181  0.00  0.00    -0.009 C 
ATOM      3  C   UNL     1      -0.735   1.582   1.262  0.00  0.00    +0.008 C 
ATOM      4  C   UNL     1      -0.013   1.086   0.008  0.00  0.00    +0.037 C 
ATOM      5  C   UNL     1      -0.755   1.593  -1.222  0.00  0.00    -0.023 A 
ATOM      6  C   UNL     1      -1.621   2.627  -1.135  0.00  0.00    -0.004 A 
ATOM      7  S   UNL     1      -2.225   2.851  -2.783  0.00  0.00    -0.077 S 
ATOM      8  C   UNL     1      -1.342   1.591  -3.580  0.00  0.00    +0.084 A 
ATOM      9  C   UNL     1      -0.600   1.026  -2.551  0.00  0.00    +0.069 A 
ATOM     10  C   UNL     1      -1.979   3.404   0.095  0.00  0.00    +0.046 C 
ENDROOT
BRANCH   9  11
ATOM     11  C   UNL     1       0.306  -0.098  -2.796  0.00  0.00    +0.255 C 
ATOM     12  O   UNL     1      -0.103  -1.240  -2.702  0.00  0.00    -0.270 OA
ATOM     13  N   UNL     1       1.592   0.132  -3.126  0.00  0.00    -0.217 N 
ATOM     14  C   UNL     1       2.426  -0.903  -3.352  0.00  0.00    +0.407 C 
ATOM     15  O   UNL     1       2.017  -2.043  -3.258  0.00  0.00    -0.226 OA
ATOM     16  H   UNL     1       1.918   1.042  -3.201  0.00  0.00    +0.161 HD
BRANCH  14  17
ATOM     17  O   UNL     1       3.710  -0.673  -3.682  0.00  0.00    -0.453 OA
ATOM     18  C   UNL     1       4.550  -1.835  -3.910  0.00  0.00    +0.282 C 
ENDBRANCH  14  17
ENDBRANCH   9  11
BRANCH   8  19
ATOM     19  N   UNL     1      -1.369   1.234  -4.919  0.00  0.00    -0.280 N 
ATOM     20  C   UNL     1      -2.160   1.905  -5.779  0.00  0.00    +0.214 C 
ATOM     21  O   UNL     1      -2.848   2.821  -5.382  0.00  0.00    -0.276 OA
ATOM     22  C   UNL     1      -2.190   1.517  -7.235  0.00  0.00    +0.109 C 
ATOM     23  H   UNL     1      -0.819   0.502  -5.237  0.00  0.00    +0.155 HD
ENDBRANCH   8  19
TORSDOF 3
