REMARK  Name = ZINC20393129
REMARK  4 active torsions:
REMARK  status: ('A' for Active; 'I' for Inactive)
REMARK    1  A    between atoms: C_1  and  C_2
REMARK    2  A    between atoms: N_6  and  C_14
REMARK    3  A    between atoms: C_14  and  C_15
REMARK    4  A    between atoms: C_19  and  C_21
REMARK                            x       y       z     vdW  Elec       q    Type
REMARK                         _______ _______ _______ _____ _____    ______ ____
ROOT
ATOM      1  C   UNL     1      -1.673   5.334  -4.215  0.00  0.00    +0.062 C 
ATOM      2  C   UNL     1      -1.583   6.548  -3.289  0.00  0.00    +0.256 C 
ATOM      3  C   UNL     1      -1.453   6.082  -1.861  0.00  0.00    +0.261 C 
ATOM      4  O   UNL     1      -2.444   5.918  -1.181  0.00  0.00    -0.271 OA
ATOM      5  N   UNL     1      -0.229   5.846  -1.342  0.00  0.00    -0.261 N 
ATOM      6  C   UNL     1       0.903   6.082  -2.136  0.00  0.00    +0.079 A 
ATOM      7  C   UNL     1       2.138   5.562  -1.779  0.00  0.00    +0.027 A 
ATOM      8  C   UNL     1       3.241   5.802  -2.578  0.00  0.00    +0.002 A 
ATOM      9  C   UNL     1       3.114   6.553  -3.732  0.00  0.00    +0.004 A 
ATOM     10  C   UNL     1       1.883   7.070  -4.095  0.00  0.00    +0.047 A 
ATOM     11  C   UNL     1       0.775   6.834  -3.301  0.00  0.00    +0.143 A 
ATOM     12  O   UNL     1      -0.443   7.334  -3.643  0.00  0.00    -0.478 OA
ENDROOT
BRANCH   5  13
ATOM     13  C   UNL     1      -0.084   5.357   0.031  0.00  0.00    +0.149 C 
BRANCH  13  14
ATOM     14  C   UNL     1       0.155   6.522   0.957  0.00  0.00    -0.029 A 
ATOM     15  C   UNL     1       1.449   6.912   1.256  0.00  0.00    +0.005 A 
ATOM     16  C   UNL     1       1.678   7.984   2.099  0.00  0.00    +0.001 A 
ATOM     17  C   UNL     1       0.616   8.664   2.659  0.00  0.00    +0.015 A 
ATOM     18  C   UNL     1      -0.692   8.276   2.362  0.00  0.00    +0.063 A 
ATOM     19  C   UNL     1      -0.916   7.197   1.504  0.00  0.00    +0.020 A 
BRANCH  18  20
ATOM     20  C   UNL     1      -1.834   9.005   2.951  0.00  0.00    +0.387 C 
ATOM     21  O   UNL     1      -2.971   8.665   2.691  0.00  0.00    -0.241 OA
ATOM     22  O   UNL     1      -1.615  10.046   3.778  0.00  0.00    -0.241 OA
ENDBRANCH  18  20
ENDBRANCH  13  14
ENDBRANCH   5  13
TORSDOF 3
