REMARK  Name = ZINC05700383
REMARK  4 active torsions:
REMARK  status: ('A' for Active; 'I' for Inactive)
REMARK    1  A    between atoms: C_9  and  C_11
REMARK    2  A    between atoms: C_11  and  O_12
REMARK    3  A    between atoms: O_12  and  C_13
REMARK    4  A    between atoms: C_13  and  C_15
REMARK                            x       y       z     vdW  Elec       q    Type
REMARK                         _______ _______ _______ _____ _____    ______ ____
ROOT
ATOM      1  C   UNL     1       4.383  11.245   1.184  0.00  0.00    +0.045 A 
ATOM      2  C   UNL     1       3.368  11.786   0.405  0.00  0.00    +0.061 A 
ATOM      3  C   UNL     1       2.297  10.991   0.043  0.00  0.00    +0.133 A 
ATOM      4  N   UNL     1       2.230   9.730   0.427  0.00  0.00    -0.237 NA
ATOM      5  C   UNL     1       3.177   9.179   1.169  0.00  0.00    +0.144 A 
ATOM      6  C   UNL     1       4.281   9.921   1.575  0.00  0.00    +0.082 A 
ATOM      7 CL   UNL     1       5.517   9.196   2.555  0.00  0.00    -0.080 Cl
ATOM      8  N   UNL     1       3.064   7.843   1.552  0.00  0.00    -0.266 N 
ATOM      9  C   UNL     1       1.994   7.119   1.167  0.00  0.00    +0.256 C 
ATOM     10  O   UNL     1       1.129   7.630   0.487  0.00  0.00    -0.272 OA
ATOM     11 CL   UNL     1       3.442  13.443  -0.107  0.00  0.00    -0.082 Cl
ATOM     12  H   UNL     1       3.755   7.434   2.096  0.00  0.00    +0.156 HD
ENDROOT
BRANCH   9  13
ATOM     13  C   UNL     1       1.872   5.675   1.580  0.00  0.00    +0.328 C 
BRANCH  13  14
ATOM     14  O   UNL     1       0.642   5.120   1.044  0.00  0.00    -0.455 OA
BRANCH  14  15
ATOM     15  C   UNL     1       0.381   3.834   1.323  0.00  0.00    +0.311 C 
ATOM     16  O   UNL     1       1.155   3.192   1.994  0.00  0.00    -0.251 OA
BRANCH  15  17
ATOM     17  C   UNL     1      -0.877   3.189   0.801  0.00  0.00    +0.105 C 
ATOM     18  C   UNL     1      -0.890   3.197  -0.747  0.00  0.00    +0.023 C 
ATOM     19  C   UNL     1      -0.926   1.682  -1.125  0.00  0.00    +0.013 C 
ATOM     20  C   UNL     1      -0.013   1.086   0.008  0.00  0.00    +0.016 C 
ATOM     21  C   UNL     1      -0.904   1.670   1.164  0.00  0.00    +0.026 C 
ATOM     22  C   UNL     1      -2.285   1.200   0.692  0.00  0.00    -0.027 C 
ATOM     23  C   UNL     1      -2.298   1.207  -0.631  0.00  0.00    -0.027 C 
ENDBRANCH  15  17
ENDBRANCH  14  15
ENDBRANCH  13  14
ENDBRANCH   9  13
TORSDOF 4
