REMARK  Name = ZINC13342805
REMARK  5 active torsions:
REMARK  status: ('A' for Active; 'I' for Inactive)
REMARK    1  A    between atoms: C_1  and  C_2
REMARK    2  A    between atoms: C_5  and  C_20
REMARK    3  A    between atoms: C_6  and  O_8
REMARK    4  A    between atoms: O_8  and  S_9
REMARK    5  A    between atoms: S_9  and  C_12
REMARK                            x       y       z     vdW  Elec       q    Type
REMARK                         _______ _______ _______ _____ _____    ______ ____
ROOT
ATOM      1  O   UNL     1      -1.240   3.592   0.681  0.00  0.00    -0.341 OA
ENDROOT
BRANCH   1   7
ATOM      2  C   UNL     1      -1.526   7.309  -2.463  0.00  0.00    +0.044 C 
ATOM      3  C   UNL     1      -0.718   6.290  -1.702  0.00  0.00    -0.047 A 
ATOM      4  C   UNL     1       0.658   6.248  -1.855  0.00  0.00    +0.004 A 
ATOM      5  C   UNL     1       1.407   5.321  -1.165  0.00  0.00    +0.019 A 
ATOM      6  C   UNL     1       0.777   4.421  -0.299  0.00  0.00    +0.108 A 
ATOM      7  C   UNL     1      -0.616   4.463  -0.151  0.00  0.00    +0.171 A 
ATOM      8  C   UNL     1      -1.354   5.404  -0.856  0.00  0.00    +0.052 A 
BRANCH   6   9
ATOM      9  C   UNL     1       1.573   3.431   0.449  0.00  0.00    +0.390 C 
ATOM     10  O   UNL     1       1.032   2.704   1.258  0.00  0.00    -0.240 OA
ATOM     11  O   UNL     1       2.900   3.333   0.235  0.00  0.00    -0.240 OA
ENDBRANCH   6   9
ENDBRANCH   1   7
BRANCH   1  12
ATOM     12  S   UNL     1      -1.800   2.362  -0.018  0.00  0.00    +0.152 S 
ATOM     13  O   UNL     1      -2.165   1.445   1.004  0.00  0.00    -0.131 OA
ATOM     14  O   UNL     1      -0.882   2.027  -1.050  0.00  0.00    -0.131 OA
BRANCH  12  15
ATOM     15  C   UNL     1      -3.295   2.850  -0.814  0.00  0.00    +0.143 A 
ATOM     16  C   UNL     1      -3.677   2.247  -1.997  0.00  0.00    +0.047 A 
ATOM     17  C   UNL     1      -4.853   2.626  -2.618  0.00  0.00    +0.020 A 
ATOM     18  C   UNL     1      -5.647   3.609  -2.055  0.00  0.00    +0.016 A 
ATOM     19  C   UNL     1      -5.265   4.213  -0.872  0.00  0.00    +0.018 A 
ATOM     20  C   UNL     1      -4.088   3.833  -0.251  0.00  0.00    +0.046 A 
ATOM     21 BR   UNL     1      -3.566   4.659   1.369  0.00  0.00    -0.048 Br
ATOM     22 BR   UNL     1      -5.376   1.801  -4.237  0.00  0.00    -0.050 Br
ENDBRANCH  12  15
ENDBRANCH   1  12
TORSDOF 4
