REMARK  Name = ZINC01080268
REMARK  4 active torsions:
REMARK  status: ('A' for Active; 'I' for Inactive)
REMARK    1  A    between atoms: C_1  and  N_2
REMARK    2  A    between atoms: C_12  and  C_29
REMARK    3  A    between atoms: C_13  and  C_17
REMARK    4  A    between atoms: C_20  and  C_23
REMARK                            x       y       z     vdW  Elec       q    Type
REMARK                         _______ _______ _______ _____ _____    ______ ____
ROOT
ATOM      1  C   UNL     1      12.346  -2.759   0.950  0.00  0.00    +0.155 C 
ATOM      2  N   UNL     1      11.055  -3.452   0.962  0.00  0.00    -0.280 N 
ATOM      3  C   UNL     1       9.898  -2.768   0.623  0.00  0.00    +0.172 A 
ATOM      4  C   UNL     1       8.684  -3.451   0.642  0.00  0.00    +0.159 A 
ATOM      5  C   UNL     1       8.668  -4.810   1.003  0.00  0.00    +0.280 A 
ATOM      6  O   UNL     1       7.619  -5.428   1.027  0.00  0.00    -0.265 OA
ATOM      7  N   UNL     1       9.827  -5.422   1.323  0.00  0.00    -0.273 N 
ATOM      8  H   UNL     1       9.819  -6.388   1.581  0.00  0.00    +0.173 HD
ATOM      9  C   UNL     1      10.993  -4.754   1.301  0.00  0.00    +0.331 A 
ATOM     10  O   UNL     1      12.018  -5.339   1.596  0.00  0.00    -0.246 OA
ATOM     11  N   UNL     1       7.717  -2.534   0.266  0.00  0.00    -0.252 N 
ATOM     12  C   UNL     1       6.362  -2.335   0.036  0.00  0.00    +0.102 A 
ATOM     13  C   UNL     1       6.205  -1.038  -0.339  0.00  0.00    +0.163 A 
ATOM     14  O   UNL     1       7.423  -0.450  -0.332  0.00  0.00    -0.422 OA
ATOM     15  C   UNL     1       8.349  -1.359   0.036  0.00  0.00    +0.311 A 
ATOM     16  N   UNL     1       9.645  -1.514   0.253  0.00  0.00    -0.176 NA
ENDROOT
BRANCH  13  17
ATOM     17  C   UNL     1       4.929  -0.385  -0.686  0.00  0.00    +0.020 A 
ATOM     18  C   UNL     1       4.039  -1.011  -1.564  0.00  0.00    +0.012 A 
ATOM     19  C   UNL     1       2.849  -0.399  -1.887  0.00  0.00    +0.009 A 
ATOM     20  C   UNL     1       2.531   0.844  -1.340  0.00  0.00    -0.018 A 
ATOM     21  C   UNL     1       3.421   1.472  -0.467  0.00  0.00    +0.009 A 
ATOM     22  C   UNL     1       4.609   0.860  -0.138  0.00  0.00    +0.012 A 
BRANCH  20  23
ATOM     23  C   UNL     1       1.249   1.501  -1.690  0.00  0.00    -0.018 A 
ATOM     24  C   UNL     1       0.928   2.743  -1.144  0.00  0.00    +0.008 A 
ATOM     25  C   UNL     1      -0.269   3.348  -1.470  0.00  0.00    +0.001 A 
ATOM     26  C   UNL     1      -1.145   2.729  -2.344  0.00  0.00    +0.000 A 
ATOM     27  C   UNL     1      -0.831   1.497  -2.888  0.00  0.00    +0.001 A 
ATOM     28  C   UNL     1       0.360   0.880  -2.566  0.00  0.00    +0.008 A 
ENDBRANCH  20  23
ENDBRANCH  13  17
BRANCH  12  29
ATOM     29  C   UNL     1       5.292  -3.344   0.169  0.00  0.00    +0.003 A 
ATOM     30  C   UNL     1       5.377  -4.552  -0.527  0.00  0.00    +0.010 A 
ATOM     31  C   UNL     1       4.377  -5.493  -0.392  0.00  0.00    +0.001 A 
ATOM     32  C   UNL     1       3.287  -5.238   0.420  0.00  0.00    +0.000 A 
ATOM     33  C   UNL     1       3.194  -4.041   1.109  0.00  0.00    +0.001 A 
ATOM     34  C   UNL     1       4.189  -3.093   0.988  0.00  0.00    +0.010 A 
ENDBRANCH  12  29
TORSDOF 3
