REMARK  Name = ZINC50427953
REMARK  7 active torsions:
REMARK  status: ('A' for Active; 'I' for Inactive)
REMARK    1  A    between atoms: C_1  and  C_2
REMARK    2  A    between atoms: C_2  and  C_3
REMARK    3  A    between atoms: C_3  and  C_5
REMARK    4  A    between atoms: C_3  and  C_6
REMARK    5  A    between atoms: C_6  and  S_7
REMARK    6  A    between atoms: S_7  and  C_10
REMARK    7  A    between atoms: C_14  and  N_19
REMARK                            x       y       z     vdW  Elec       q    Type
REMARK                         _______ _______ _______ _____ _____    ______ ____
ROOT
ATOM      1  C   UNL     1      -2.956  -4.421  -0.404  0.00  0.00    +0.341 A 
ATOM      2  N   UNL     1      -2.944  -5.252   0.594  0.00  0.00    -0.193 NA
ATOM      3  C   UNL     1      -2.805  -6.516   0.111  0.00  0.00    +0.113 A 
ATOM      4  C   UNL     1      -2.732  -7.775   0.710  0.00  0.00    +0.054 A 
ATOM      5  C   UNL     1      -2.586  -8.901  -0.080  0.00  0.00    +0.027 A 
ATOM      6  C   UNL     1      -2.512  -8.782  -1.466  0.00  0.00    +0.026 A 
ATOM      7  C   UNL     1      -2.584  -7.542  -2.064  0.00  0.00    +0.050 A 
ATOM      8  C   UNL     1      -2.731  -6.404  -1.285  0.00  0.00    +0.157 A 
ATOM      9  O   UNL     1      -2.834  -5.085  -1.564  0.00  0.00    -0.422 OA
ENDROOT
BRANCH   1  10
ATOM     10  S   UNL     1      -3.117  -2.672  -0.257  0.00  0.00    +0.048 S 
ATOM     11  O   UNL     1      -3.808  -2.474   0.969  0.00  0.00    -0.165 OA
ATOM     12  O   UNL     1      -3.691  -2.256  -1.488  0.00  0.00    -0.165 OA
BRANCH  10  13
ATOM     13  C   UNL     1      -1.416  -2.058  -0.121  0.00  0.00    +0.180 C 
BRANCH  13  14
ATOM     14  C   UNL     1      -1.433  -0.534   0.013  0.00  0.00    +0.007 C 
ATOM     15  C   UNL     1      -2.110  -0.145   1.329  0.00  0.00    +0.009 C 
BRANCH  14  17
ATOM     16  C   UNL     1      -0.019   1.526   0.010  0.00  0.00    +0.004 C 
ATOM     17  C   UNL     1       0.002  -0.004   0.002  0.00  0.00    +0.001 C 
ENDBRANCH  14  17
ENDBRANCH  13  14
ENDBRANCH  10  13
ENDBRANCH   1  10
BRANCH   5  18
ATOM     18  N   UNL     1      -2.511 -10.165   0.515  0.00  0.00    -0.358 N 
ATOM     19  H   UNL     1      -2.562 -10.250   1.480  0.00  0.00    +0.142 HD
ATOM     20  H   UNL     1      -2.409 -10.956  -0.037  0.00  0.00    +0.142 HD
ENDBRANCH   5  18
TORSDOF 5
