REMARK  Name = ZINC19755031
REMARK  4 active torsions:
REMARK  status: ('A' for Active; 'I' for Inactive)
REMARK    1  A    between atoms: C_1  and  C_2
REMARK    2  A    between atoms: C_9  and  C_13
REMARK    3  A    between atoms: C_10  and  C_11
REMARK    4  A    between atoms: C_22  and  C_25
REMARK                            x       y       z     vdW  Elec       q    Type
REMARK                         _______ _______ _______ _____ _____    ______ ____
ROOT
ATOM      1  C   UNL     1      -2.560   1.773   0.022  0.00  0.00    +0.005 A 
ATOM      2  C   UNL     1      -2.927   0.624  -0.680  0.00  0.00    +0.014 A 
ATOM      3  C   UNL     1      -4.240   0.200  -0.675  0.00  0.00    +0.048 A 
ATOM      4  C   UNL     1      -5.199   0.918   0.021  0.00  0.00    +0.143 A 
ATOM      5  C   UNL     1      -4.839   2.071   0.721  0.00  0.00    +0.076 A 
ATOM      6  C   UNL     1      -3.524   2.498   0.723  0.00  0.00    +0.037 A 
ATOM      7  N   UNL     1      -5.824   2.786   1.419  0.00  0.00    -0.280 N 
ATOM      8  C   UNL     1      -7.012   2.193   1.664  0.00  0.00    +0.258 C 
ATOM      9  O   UNL     1      -7.889   2.801   2.239  0.00  0.00    -0.271 OA
ATOM     10  C   UNL     1      -7.244   0.771   1.220  0.00  0.00    +0.256 C 
ATOM     11  O   UNL     1      -6.496   0.511   0.030  0.00  0.00    -0.478 OA
ATOM     12  C   UNL     1      -8.734   0.560   0.942  0.00  0.00    +0.062 C 
ATOM     13  H   UNL     1      -5.622   3.813   1.756  0.00  0.00    +0.155 HD
ENDROOT
BRANCH   1  22
ATOM     14  C   UNL     1       3.825   5.497  -0.006  0.00  0.00    +0.044 C 
ATOM     15  C   UNL     1       2.843   4.354  -0.002  0.00  0.00    -0.046 A 
ATOM     16  C   UNL     1       3.301   3.030  -0.014  0.00  0.00    +0.021 A 
ATOM     17  C   UNL     1       2.417   2.006  -0.010  0.00  0.00    +0.093 A 
ATOM     18  N   UNL     1       1.080   2.244   0.004  0.00  0.00    -0.297 N 
ATOM     19  C   UNL     1       0.600   3.523   0.015  0.00  0.00    +0.139 A 
ATOM     20  C   UNL     1       1.502   4.602   0.012  0.00  0.00    +0.050 A 
ATOM     21  N   UNL     1      -0.732   3.486   0.028  0.00  0.00    -0.227 NA
ATOM     22  C   UNL     1      -1.150   2.224   0.019  0.00  0.00    +0.100 A 
ATOM     23  C   UNL     1      -0.017   1.397   0.010  0.00  0.00    +0.113 A 
BRANCH  23  24
ATOM     24  C   UNL     1       0.002  -0.004   0.002  0.00  0.00    +0.279 C 
ATOM     25  O   UNL     1       1.063  -0.598  -0.011  0.00  0.00    -0.294 OA
ENDBRANCH  23  24
ENDBRANCH   1  22
TORSDOF 2
