REMARK  Name = ZINC45285658
REMARK  3 active torsions:
REMARK  status: ('A' for Active; 'I' for Inactive)
REMARK    1  A    between atoms: C_1  and  C_2
REMARK    2  A    between atoms: C_9  and  N_19
REMARK    3  A    between atoms: C_14  and  C_16
REMARK                            x       y       z     vdW  Elec       q    Type
REMARK                         _______ _______ _______ _____ _____    ______ ____
ROOT
ATOM      1  C   UNL     1      -0.018   1.503   0.010  0.00  0.00    +0.039 C 
ATOM      2  C   UNL     1       0.002  -0.004   0.002  0.00  0.00    -0.076 C 
ATOM      3  C   UNL     1       0.005  -0.609  -1.143  0.00  0.00    -0.024 C 
ATOM      4  C   UNL     1       0.029  -2.099  -1.311  0.00  0.00    +0.018 C 
ATOM      5  C   UNL     1       1.436  -2.556  -1.697  0.00  0.00    +0.063 C 
ATOM      6  C   UNL     1       2.388  -2.344  -0.546  0.00  0.00    +0.051 A 
ATOM      7  C   UNL     1       1.944  -2.170   0.747  0.00  0.00    +0.000 A 
ATOM      8  C   UNL     1       2.875  -1.982   1.770  0.00  0.00    +0.061 A 
ATOM      9  C   UNL     1       4.238  -1.974   1.442  0.00  0.00    +0.150 A 
ATOM     10  C   UNL     1       4.610  -2.156   0.103  0.00  0.00    +0.250 A 
ATOM     11  N   UNL     1       3.685  -2.331  -0.824  0.00  0.00    -0.215 NA
ATOM     12  O   UNL     1       5.960  -2.102   0.081  0.00  0.00    -0.421 OA
ATOM     13  C   UNL     1       6.394  -1.899   1.335  0.00  0.00    +0.202 A 
ATOM     14  N   UNL     1       5.386  -1.821   2.151  0.00  0.00    -0.209 NA
ATOM     15  C   UNL     1       0.486  -2.166   1.118  0.00  0.00    +0.027 C 
ATOM     16  C   UNL     1      -0.354  -2.790   0.002  0.00  0.00    +0.016 C 
ATOM     17  C   UNL     1       0.024  -0.720   1.322  0.00  0.00    +0.038 C 
ENDROOT
BRANCH  13  18
ATOM     18  C   UNL     1       7.841  -1.778   1.738  0.00  0.00    +0.075 C 
ATOM     19  C   UNL     1       8.881  -1.693   0.619  0.00  0.00    +0.013 C 
ATOM     20  C   UNL     1       8.756  -2.970   1.451  0.00  0.00    +0.013 C 
ENDBRANCH  13  18
BRANCH   8  21
ATOM     21  N   UNL     1       2.460  -1.807   3.086  0.00  0.00    -0.356 N 
ATOM     22  H   UNL     1       1.514  -1.814   3.301  0.00  0.00    +0.142 HD
ATOM     23  H   UNL     1       3.116  -1.677   3.789  0.00  0.00    +0.142 HD
ENDBRANCH   8  21
TORSDOF 2
