REMARK  Name = ZINC05196632
REMARK  6 active torsions:
REMARK  status: ('A' for Active; 'I' for Inactive)
REMARK    1  A    between atoms: C_1  and  C_2
REMARK    2  A    between atoms: C_2  and  C_4
REMARK    3  A    between atoms: C_4  and  C_5
REMARK    4  A    between atoms: C_5  and  C_7
REMARK    5  A    between atoms: C_5  and  C_13
REMARK    6  A    between atoms: C_17  and  O_24
REMARK                            x       y       z     vdW  Elec       q    Type
REMARK                         _______ _______ _______ _____ _____    ______ ____
ROOT
ATOM      1  C   UNL     1      -2.181  -3.196  -0.108  0.00  0.00    +0.092 A 
ATOM      2  C   UNL     1      -3.449  -2.697   0.011  0.00  0.00    +0.200 A 
ATOM      3  C   UNL     1      -4.575  -3.637  -0.102  0.00  0.00    +0.068 A 
ATOM      4  C   UNL     1      -5.895  -3.195   0.009  0.00  0.00    +0.060 A 
ATOM      5  C   UNL     1      -6.930  -4.103  -0.103  0.00  0.00    +0.118 A 
ATOM      6  C   UNL     1      -6.659  -5.450  -0.324  0.00  0.00    +0.049 A 
ATOM      7  C   UNL     1      -5.359  -5.895  -0.434  0.00  0.00    +0.050 A 
ATOM      8  C   UNL     1      -4.305  -4.996  -0.326  0.00  0.00    +0.143 A 
ATOM      9  O   UNL     1      -3.026  -5.418  -0.433  0.00  0.00    -0.422 OA
ATOM     10  C   UNL     1      -1.992  -4.567  -0.336  0.00  0.00    +0.345 A 
ATOM     11  O   UNL     1      -0.858  -4.999  -0.446  0.00  0.00    -0.245 OA
ATOM     12  O   UNL     1      -3.661  -1.378   0.226  0.00  0.00    -0.287 OA
ENDROOT
BRANCH   5  13
ATOM     13  O   UNL     1      -8.218  -3.680   0.005  0.00  0.00    -0.507 OA
ATOM     14  H   UNL     1      -8.618  -3.419  -0.836  0.00  0.00    +0.292 HD
ENDBRANCH   5  13
BRANCH   1  15
ATOM     15  C   UNL     1      -0.993  -2.276  -0.001  0.00  0.00    +0.067 C 
BRANCH  15  16
ATOM     16  C   UNL     1      -0.369  -2.418   1.364  0.00  0.00    -0.039 A 
ATOM     17  C   UNL     1      -1.089  -2.075   2.492  0.00  0.00    +0.004 A 
ATOM     18  C   UNL     1      -0.516  -2.206   3.744  0.00  0.00    +0.000 A 
ATOM     19  C   UNL     1       0.776  -2.680   3.866  0.00  0.00    +0.000 A 
ATOM     20  C   UNL     1       1.496  -3.025   2.738  0.00  0.00    +0.000 A 
ATOM     21  C   UNL     1       0.922  -2.898   1.486  0.00  0.00    +0.004 A 
ENDBRANCH  15  16
BRANCH  15  22
ATOM     22  C   UNL     1      -1.448  -0.829  -0.205  0.00  0.00    +0.087 C 
BRANCH  22  24
ATOM     23  C   UNL     1      -0.418   1.553  -0.491  0.00  0.00    +0.086 C 
ATOM     24  C   UNL     1      -0.241   0.070  -0.290  0.00  0.00    +0.131 C 
ATOM     25  O   UNL     1       0.869  -0.398  -0.197  0.00  0.00    -0.298 OA
ENDBRANCH  22  24
ENDBRANCH  15  22
ENDBRANCH   1  15
TORSDOF 5
