REMARK  Name = ZINC02112873
REMARK  7 active torsions:
REMARK  status: ('A' for Active; 'I' for Inactive)
REMARK    1  A    between atoms: C_1  and  C_2
REMARK    2  A    between atoms: C_6  and  C_12
REMARK    3  A    between atoms: C_7  and  C_11
REMARK    4  A    between atoms: C_13  and  O_15
REMARK    5  A    between atoms: O_15  and  C_16
REMARK    6  A    between atoms: C_16  and  C_17
REMARK    7  A    between atoms: C_22  and  C_25
REMARK                            x       y       z     vdW  Elec       q    Type
REMARK                         _______ _______ _______ _____ _____    ______ ____
ROOT
ATOM      1  O   UNL     1       0.043  -2.755   2.387  0.00  0.00    -0.482 OA
ENDROOT
BRANCH   1  14
ATOM      2  C   UNL     1      -0.031   1.503   0.010  0.00  0.00    +0.044 C 
ATOM      3  C   UNL     1      -0.007  -0.004   0.002  0.00  0.00    -0.043 A 
ATOM      4  C   UNL     1      -0.001  -0.680  -1.202  0.00  0.00    +0.050 A 
ATOM      5  C   UNL     1       0.021  -2.067  -1.222  0.00  0.00    +0.143 A 
ATOM      6  C   UNL     1       0.036  -2.776  -0.007  0.00  0.00    +0.062 A 
ATOM      7  C   UNL     1       0.059  -4.239  -0.039  0.00  0.00    -0.027 A 
ATOM      8  C   UNL     1       0.065  -4.855  -1.250  0.00  0.00    +0.038 A 
ATOM      9  C   UNL     1       0.049  -4.082  -2.429  0.00  0.00    +0.340 A 
ATOM     10  O   UNL     1       0.053  -4.646  -3.509  0.00  0.00    -0.245 OA
ATOM     11  O   UNL     1       0.027  -2.740  -2.392  0.00  0.00    -0.422 OA
ATOM     12  C   UNL     1       0.089  -6.359  -1.333  0.00  0.00    +0.051 C 
ATOM     13  C   UNL     1       0.077  -5.041   1.237  0.00  0.00    +0.045 C 
ATOM     14  C   UNL     1       0.029  -2.079   1.211  0.00  0.00    +0.132 A 
ATOM     15  C   UNL     1       0.013  -0.695   1.202  0.00  0.00    +0.050 A 
ENDBRANCH   1  14
BRANCH   1  16
ATOM     16  C   UNL     1       0.035  -1.976   3.584  0.00  0.00    +0.324 C 
BRANCH  16  17
ATOM     17  C   UNL     1       0.053  -2.892   4.781  0.00  0.00    +0.253 C 
ATOM     18  O   UNL     1       0.071  -4.094   4.623  0.00  0.00    -0.272 OA
ATOM     19  N   UNL     1       0.048  -2.375   6.025  0.00  0.00    -0.299 N 
ATOM     20  C   UNL     1       0.020  -0.920   6.232  0.00  0.00    +0.108 C 
ATOM     21  C   UNL     1       1.184  -0.530   7.148  0.00  0.00    +0.032 C 
ATOM     22  C   UNL     1       1.110  -1.349   8.438  0.00  0.00    +0.078 C 
ATOM     23  C   UNL     1       1.235  -2.838   8.107  0.00  0.00    +0.032 C 
ATOM     24  C   UNL     1       0.066  -3.255   7.202  0.00  0.00    +0.108 C 
BRANCH  22  25
ATOM     25  C   UNL     1       2.234  -0.943   9.356  0.00  0.00    +0.214 C 
ATOM     26  O   UNL     1       3.017  -0.083   9.012  0.00  0.00    -0.276 OA
ATOM     27  N   UNL     1       2.369  -1.536  10.559  0.00  0.00    -0.329 N 
ATOM     28  H   UNL     1       1.742  -2.224  10.834  0.00  0.00    +0.145 HD
ATOM     29  H   UNL     1       3.092  -1.274  11.150  0.00  0.00    +0.145 HD
ENDBRANCH  22  25
ENDBRANCH  16  17
ENDBRANCH   1  16
TORSDOF 4
