REMARK  Name = ZINC27794555
REMARK  6 active torsions:
REMARK  status: ('A' for Active; 'I' for Inactive)
REMARK    1  A    between atoms: C_1  and  C_2
REMARK    2  A    between atoms: C_6  and  C_26
REMARK    3  A    between atoms: C_7  and  C_12
REMARK    4  A    between atoms: C_10  and  C_11
REMARK    5  A    between atoms: N_14  and  C_15
REMARK    6  A    between atoms: C_22  and  C_25
REMARK                            x       y       z     vdW  Elec       q    Type
REMARK                         _______ _______ _______ _____ _____    ______ ____
ROOT
ATOM      1  C   UNL     1       2.161   6.712   0.016  0.00  0.00    +0.286 C 
ATOM      2  O   UNL     1       3.374   6.799   0.005  0.00  0.00    -0.266 OA
ATOM      3  N   UNL     1       1.405   7.828   0.029  0.00  0.00    -0.247 N 
ATOM      4  H   UNL     1       0.308   7.750   0.040  0.00  0.00    +0.158 HD
ENDROOT
BRANCH   1  11
ATOM      5  C   UNL     1      -2.514   0.964   0.019  0.00  0.00    +0.044 C 
ATOM      6  C   UNL     1      -1.227   1.749   0.017  0.00  0.00    -0.044 A 
ATOM      7  C   UNL     1      -0.013   1.076   0.008  0.00  0.00    +0.004 A 
ATOM      8  C   UNL     1       1.164   1.770   0.001  0.00  0.00    +0.012 A 
ATOM      9  C   UNL     1       1.143   3.167   0.008  0.00  0.00    +0.024 A 
ATOM     10  C   UNL     1       2.177   4.202   0.003  0.00  0.00    +0.008 A 
ATOM     11  C   UNL     1       1.519   5.391   0.015  0.00  0.00    +0.194 A 
ATOM     12  O   UNL     1       0.187   5.174   0.027  0.00  0.00    -0.450 OA
ATOM     13  C   UNL     1      -0.085   3.855   0.023  0.00  0.00    +0.139 A 
ATOM     14  C   UNL     1      -1.269   3.126   0.030  0.00  0.00    -0.005 A 
ATOM     15  C   UNL     1      -2.595   3.841   0.046  0.00  0.00    +0.048 C 
ATOM     16  C   UNL     1       3.669   3.992  -0.011  0.00  0.00    +0.048 C 
ENDBRANCH   1  11
BRANCH   3  17
ATOM     17  C   UNL     1       2.011   9.075   0.030  0.00  0.00    +0.228 A 
ATOM     18  C   UNL     1       1.398  10.278   0.042  0.00  0.00    +0.037 A 
ATOM     19  C   UNL     1       2.455  11.214   0.036  0.00  0.00    +0.089 A 
ATOM     20  N   UNL     1       3.552  10.531   0.023  0.00  0.00    -0.081 NA
ATOM     21  O   UNL     1       3.333   9.336   0.024  0.00  0.00    -0.339 OA
ATOM     22  C   UNL     1       2.235  12.705   0.041  0.00  0.00    +0.059 C 
ATOM     23  C   UNL     1       0.780  12.973  -0.367  0.00  0.00    +0.010 C 
ATOM     24  C   UNL     1      -0.167  12.121   0.481  0.00  0.00    -0.009 C 
ATOM     25  C   UNL     1      -0.057  10.648   0.062  0.00  0.00    +0.045 C 
ATOM     26  C   UNL     1      -1.605  12.602   0.276  0.00  0.00    +0.008 C 
ENDBRANCH   3  17
TORSDOF 2
