REMARK  Name = ZINC29935434
REMARK  9 active torsions:
REMARK  status: ('A' for Active; 'I' for Inactive)
REMARK    1  A    between atoms: C_1  and  C_2
REMARK    2  A    between atoms: C_5  and  N_9
REMARK    3  A    between atoms: C_6  and  C_8
REMARK    4  A    between atoms: C_10  and  C_12
REMARK    5  A    between atoms: C_12  and  C_14
REMARK    6  A    between atoms: C_12  and  N_15
REMARK    7  A    between atoms: C_18  and  N_21
REMARK    8  A    between atoms: N_21  and  S_22
REMARK    9  A    between atoms: S_22  and  C_25
REMARK                            x       y       z     vdW  Elec       q    Type
REMARK                         _______ _______ _______ _____ _____    ______ ____
ROOT
ATOM      1  N   UNL     1      -0.112  -6.835  -2.571  0.00  0.00    +0.387 N 
ATOM      2  C   UNL     1       1.079  -6.314  -3.254  0.00  0.00    -0.076 C 
ATOM      3  C   UNL     1       1.065  -6.757  -4.719  0.00  0.00    +0.002 C 
ATOM      4  C   UNL     1       1.065  -8.287  -4.784  0.00  0.00    +0.073 C 
ATOM      5  C   UNL     1      -0.141  -8.821  -4.005  0.00  0.00    +0.002 C 
ATOM      6  C   UNL     1      -0.082  -8.302  -2.567  0.00  0.00    -0.076 C 
ATOM      7  H   UNL     1      -0.939  -6.517  -3.053  0.00  0.00    -0.081 HD
ENDROOT
BRANCH   1   8
ATOM      8  C   UNL     1      -0.134  -6.343  -1.187  0.00  0.00    +0.016 C 
ATOM      9  C   UNL     1      -1.303  -6.984  -0.437  0.00  0.00    -0.004 C 
BRANCH   8  11
ATOM     10  N   UNL     1      -0.081  -4.141  -0.060  0.00  0.00    -0.287 N 
ATOM     11  C   UNL     1      -0.299  -4.845  -1.189  0.00  0.00    +0.203 C 
ATOM     12  O   UNL     1      -0.627  -4.272  -2.206  0.00  0.00    -0.277 OA
ATOM     13  H   UNL     1       0.255  -4.588   0.733  0.00  0.00    +0.155 HD
BRANCH  10  18
ATOM     14  C   UNL     1      -1.132   1.432   0.056  0.00  0.00    +0.044 C 
ATOM     15  C   UNL     1      -0.853  -0.048   0.025  0.00  0.00    -0.050 A 
ATOM     16  C   UNL     1      -0.389  -0.639  -1.136  0.00  0.00    +0.005 A 
ATOM     17  C   UNL     1      -0.132  -1.996  -1.167  0.00  0.00    +0.024 A 
ATOM     18  C   UNL     1      -0.340  -2.767  -0.031  0.00  0.00    +0.036 A 
ATOM     19  C   UNL     1      -0.805  -2.171   1.133  0.00  0.00    -0.029 A 
ATOM     20  C   UNL     1      -1.056  -0.812   1.160  0.00  0.00    +0.008 A 
ATOM     21  C   UNL     1      -1.032  -3.004   2.369  0.00  0.00    +0.045 C 
ENDBRANCH  10  18
ENDBRANCH   8  11
ENDBRANCH   1   8
BRANCH   4  22
ATOM     22  N   UNL     1       0.975  -8.718  -6.181  0.00  0.00    -0.187 NA
ATOM     23  H   UNL     1       0.450  -8.204  -6.815  0.00  0.00    +0.148 HD
BRANCH  22  24
ATOM     24  S   UNL     1       1.771 -10.082  -6.680  0.00  0.00    +0.059 S 
ATOM     25  O   UNL     1       1.470 -10.246  -8.059  0.00  0.00    -0.153 OA
ATOM     26  O   UNL     1       3.103  -9.974  -6.199  0.00  0.00    -0.153 OA
BRANCH  24  27
ATOM     27  C   UNL     1       1.040 -11.448  -5.839  0.00  0.00    +0.105 A 
ATOM     28  C   UNL     1       1.536 -11.848  -4.612  0.00  0.00    +0.031 A 
ATOM     29  C   UNL     1       0.964 -12.919  -3.952  0.00  0.00    +0.040 A 
ATOM     30  C   UNL     1      -0.106 -13.590  -4.519  0.00  0.00    +0.124 A 
ATOM     31  C   UNL     1      -0.602 -13.188  -5.748  0.00  0.00    +0.040 A 
ATOM     32  C   UNL     1      -0.031 -12.114  -6.404  0.00  0.00    +0.031 A 
ATOM     33  F   UNL     1      -0.666 -14.637  -3.875  0.00  0.00    -0.205 F 
ENDBRANCH  24  27
ENDBRANCH  22  24
ENDBRANCH   4  22
TORSDOF 6
