REMARK  Name = ZINC54669622
REMARK  6 active torsions:
REMARK  status: ('A' for Active; 'I' for Inactive)
REMARK    1  A    between atoms: C_1  and  C_2
REMARK    2  A    between atoms: C_2  and  C_4
REMARK    3  A    between atoms: C_2  and  C_19
REMARK    4  A    between atoms: C_4  and  N_5
REMARK    5  A    between atoms: C_6  and  C_8
REMARK    6  A    between atoms: N_20  and  O_21
REMARK                            x       y       z     vdW  Elec       q    Type
REMARK                         _______ _______ _______ _____ _____    ______ ____
ROOT
ATOM      1  N   UNL     1      -0.213  -0.933   2.581  0.00  0.00    -0.314 N 
ATOM      2  C   UNL     1       0.457  -0.484   3.661  0.00  0.00    +0.220 C 
ATOM      3  O   UNL     1       1.669  -0.475   3.662  0.00  0.00    -0.275 OA
ATOM      4  H   UNL     1      -1.180  -1.010   2.607  0.00  0.00    +0.149 HD
ENDROOT
BRANCH   2   5
ATOM      5  C   UNL     1      -0.301   0.006   4.868  0.00  0.00    +0.105 C 
ATOM      6  C   UNL     1       0.445  -0.408   6.134  0.00  0.00    +0.018 C 
ATOM      7  C   UNL     1      -0.217   0.281   7.333  0.00  0.00    +0.006 C 
ATOM      8  C   UNL     1       0.086   1.776   7.258  0.00  0.00    +0.035 C 
ATOM      9  C   UNL     1      -0.258   2.317   5.895  0.00  0.00    -0.043 A 
ATOM     10  C   UNL     1      -0.432   1.505   4.797  0.00  0.00    -0.032 A 
ATOM     11  C   UNL     1      -0.742   2.070   3.567  0.00  0.00    +0.004 A 
ATOM     12  C   UNL     1      -0.879   3.437   3.438  0.00  0.00    +0.000 A 
ATOM     13  C   UNL     1      -0.708   4.251   4.541  0.00  0.00    +0.000 A 
ATOM     14  C   UNL     1      -0.400   3.693   5.763  0.00  0.00    +0.004 A 
ENDBRANCH   2   5
BRANCH   1  15
ATOM     15  C   UNL     1       0.519  -1.305   1.368  0.00  0.00    +0.115 C 
BRANCH  15  17
ATOM     16  C   UNL     1      -1.371  -0.612  -0.112  0.00  0.00    +0.017 C 
ATOM     17  C   UNL     1      -0.470  -1.777   0.300  0.00  0.00    +0.069 C 
BRANCH  17  18
ATOM     18  C   UNL     1       0.289  -2.275  -0.903  0.00  0.00    +0.136 C 
ATOM     19  N   UNL     1       0.511  -1.483  -1.899  0.00  0.00    -0.076 NA
ATOM     20  N   UNL     1       0.746  -3.574  -0.940  0.00  0.00    -0.344 N 
ATOM     21  H   UNL     1       0.579  -4.168  -0.191  0.00  0.00    +0.144 HD
ATOM     22  H   UNL     1       1.235  -3.894  -1.714  0.00  0.00    +0.144 HD
BRANCH  19  23
ATOM     23  O   UNL     1       1.224  -1.951  -3.030  0.00  0.00    -0.408 OA
ATOM     24  H   UNL     1       1.341  -1.288  -3.723  0.00  0.00    +0.328 HD
ENDBRANCH  19  23
ENDBRANCH  17  18
ENDBRANCH  15  17
ENDBRANCH   1  15
TORSDOF 5
