REMARK  Name = ZINC15980887
REMARK  7 active torsions:
REMARK  status: ('A' for Active; 'I' for Inactive)
REMARK    1  A    between atoms: C_1  and  C_2
REMARK    2  A    between atoms: C_2  and  C_3
REMARK    3  A    between atoms: C_3  and  C_4
REMARK    4  A    between atoms: C_4  and  N_5
REMARK    5  A    between atoms: N_7  and  N_16
REMARK    6  A    between atoms: C_8  and  C_11
REMARK    7  A    between atoms: C_17  and  C_18
REMARK                            x       y       z     vdW  Elec       q    Type
REMARK                         _______ _______ _______ _____ _____    ______ ____
ROOT
ATOM      1  N   UNL     1      -4.191  -0.627   0.017  0.00  0.00    -0.259 NA
ATOM      2  C   UNL     1      -5.048   0.361  -0.059  0.00  0.00    +0.190 A 
ATOM      3  N   UNL     1      -4.812   1.720  -0.061  0.00  0.00    -0.205 N 
ATOM      4  C   UNL     1      -5.884   2.570  -0.146  0.00  0.00    +0.117 A 
ATOM      5  C   UNL     1      -7.133   2.060  -0.236  0.00  0.00    +0.080 A 
ATOM      6  S   UNL     1      -6.828   0.302  -0.189  0.00  0.00    -0.056 S 
ENDROOT
BRANCH   4   7
ATOM      7  C   UNL     1      -5.676   4.027  -0.145  0.00  0.00    +0.154 A 
ATOM      8  C   UNL     1      -6.652   4.974  -0.224  0.00  0.00    +0.051 A 
ATOM      9  C   UNL     1      -6.006   6.227  -0.189  0.00  0.00    +0.042 A 
ATOM     10  C   UNL     1      -4.684   5.987  -0.091  0.00  0.00    +0.196 A 
ATOM     11  O   UNL     1      -4.488   4.657  -0.060  0.00  0.00    -0.461 OA
ENDBRANCH   4   7
BRANCH   3  12
ATOM     12  N   UNL     1      -3.507   2.220   0.029  0.00  0.00    -0.172 NA
ATOM     13  C   UNL     1      -2.576   1.510   0.593  0.00  0.00    +0.143 C 
BRANCH  13  14
ATOM     14  C   UNL     1      -1.180   1.975   0.569  0.00  0.00    +0.020 A 
ATOM     15  C   UNL     1      -0.104   1.345   1.111  0.00  0.00    +0.093 A 
ATOM     16  N   UNL     1       1.022   2.079   0.882  0.00  0.00    -0.360 N 
ATOM     17  H   UNL     1       1.915   1.830   1.171  0.00  0.00    +0.165 HD
ATOM     18  C   UNL     1       0.712   3.224   0.180  0.00  0.00    +0.047 A 
ATOM     19  C   UNL     1      -0.675   3.216  -0.046  0.00  0.00    +0.008 A 
ATOM     20  C   UNL     1      -1.275   4.264  -0.741  0.00  0.00    +0.010 A 
ATOM     21  C   UNL     1      -0.501   5.306  -1.204  0.00  0.00    +0.001 A 
ATOM     22  C   UNL     1       0.868   5.315  -0.981  0.00  0.00    +0.002 A 
ATOM     23  C   UNL     1       1.475   4.285  -0.296  0.00  0.00    +0.026 A 
ENDBRANCH  13  14
ENDBRANCH   3  12
BRANCH   1  24
ATOM     24  C   UNL     1      -4.667  -2.013   0.001  0.00  0.00    +0.144 C 
BRANCH  24  25
ATOM     25  C   UNL     1      -4.062  -2.746  -1.198  0.00  0.00    +0.023 C 
BRANCH  25  27
ATOM     26  C   UNL     1      -3.954  -4.927  -2.413  0.00  0.00    +0.004 C 
ATOM     27  C   UNL     1      -4.559  -4.193  -1.214  0.00  0.00    -0.002 C 
ENDBRANCH  25  27
ENDBRANCH  24  25
ENDBRANCH   1  24
TORSDOF 6
