REMARK  Name = ZINC02659989
REMARK  9 active torsions:
REMARK  status: ('A' for Active; 'I' for Inactive)
REMARK    1  A    between atoms: C_1  and  C_2
REMARK    2  A    between atoms: N_12  and  N_13
REMARK    3  A    between atoms: N_13  and  C_14
REMARK    4  A    between atoms: C_14  and  N_16
REMARK    5  A    between atoms: C_17  and  C_19
REMARK    6  A    between atoms: C_19  and  C_21
REMARK    7  A    between atoms: C_19  and  N_24
REMARK    8  A    between atoms: C_21  and  C_22
REMARK    9  A    between atoms: C_21  and  C_23
REMARK                            x       y       z     vdW  Elec       q    Type
REMARK                         _______ _______ _______ _____ _____    ______ ____
ROOT
ATOM      1  N   UNL     1       0.170  -4.242   2.391  0.00  0.00    -0.265 N 
ATOM      2  C   UNL     1       0.846  -4.889   3.361  0.00  0.00    +0.240 C 
ATOM      3  O   UNL     1       1.057  -6.079   3.262  0.00  0.00    -0.273 OA
ATOM      4  H   UNL     1      -0.069  -3.309   2.507  0.00  0.00    +0.157 HD
ENDROOT
BRANCH   1   5
ATOM      5  C   UNL     1      -0.173  -4.890   1.260  0.00  0.00    +0.155 C 
ATOM      6  S   UNL     1       0.250  -6.537   1.056  0.00  0.00    -0.017 S 
BRANCH   5   7
ATOM      7  N   UNL     1      -0.848  -4.243   0.290  0.00  0.00    -0.230 N 
ATOM      8  H   UNL     1      -1.095  -4.709  -0.523  0.00  0.00    +0.175 HD
BRANCH   7  20
ATOM      9  C   UNL     1      -3.495  -3.667   0.867  0.00  0.00    +0.088 C 
ATOM     10  C   UNL     1      -2.479  -2.561   0.742  0.00  0.00    +0.128 A 
ATOM     11  N   UNL     1      -2.878  -1.337   0.911  0.00  0.00    -0.232 NA
ATOM     12  C   UNL     1      -2.021  -0.290   0.814  0.00  0.00    +0.078 A 
ATOM     13  C   UNL     1      -2.449   1.027   0.996  0.00  0.00    +0.028 A 
ATOM     14  C   UNL     1      -1.544   2.059   0.888  0.00  0.00    +0.002 A 
ATOM     15  C   UNL     1      -0.209   1.808   0.600  0.00  0.00    +0.001 A 
ATOM     16  C   UNL     1       0.237   0.517   0.416  0.00  0.00    +0.015 A 
ATOM     17  C   UNL     1      -0.662  -0.542   0.521  0.00  0.00    +0.066 A 
ATOM     18  C   UNL     1      -0.244  -1.939   0.335  0.00  0.00    +0.279 A 
ATOM     19  O   UNL     1       0.912  -2.225   0.081  0.00  0.00    -0.265 OA
ATOM     20  N   UNL     1      -1.194  -2.895   0.458  0.00  0.00    -0.210 N 
ENDBRANCH   7  20
ENDBRANCH   5   7
ENDBRANCH   1   5
BRANCH   2  21
ATOM     21  C   UNL     1       1.339  -4.135   4.568  0.00  0.00    +0.173 C 
BRANCH  21  22
ATOM     22  N   UNL     1       1.688  -5.084   5.628  0.00  0.00    -0.222 N 
ATOM     23  C   UNL     1       2.618  -6.049   5.510  0.00  0.00    +0.255 C 
ATOM     24  O   UNL     1       3.291  -6.267   4.522  0.00  0.00    -0.270 OA
ATOM     25  C   UNL     1       2.686  -6.796   6.783  0.00  0.00    +0.049 A 
ATOM     26  C   UNL     1       3.440  -7.867   7.238  0.00  0.00    +0.014 A 
ATOM     27  C   UNL     1       3.248  -8.345   8.525  0.00  0.00    +0.001 A 
ATOM     28  C   UNL     1       2.311  -7.761   9.356  0.00  0.00    +0.001 A 
ATOM     29  C   UNL     1       1.550  -6.690   8.915  0.00  0.00    +0.014 A 
ATOM     30  C   UNL     1       1.731  -6.202   7.631  0.00  0.00    +0.049 A 
ATOM     31  C   UNL     1       1.118  -5.109   6.846  0.00  0.00    +0.255 C 
ATOM     32  O   UNL     1       0.245  -4.360   7.236  0.00  0.00    -0.270 OA
ENDBRANCH  21  22
BRANCH  21  33
ATOM     33  C   UNL     1       2.575  -3.316   4.189  0.00  0.00    +0.013 C 
ATOM     34  C   UNL     1       2.182  -2.242   3.173  0.00  0.00    +0.009 C 
ATOM     35  C   UNL     1       3.149  -2.649   5.440  0.00  0.00    +0.009 C 
ENDBRANCH  21  33
ENDBRANCH   2  21
TORSDOF 6
