REMARK  Name = ZINC54394344
REMARK  10 active torsions:
REMARK  status: ('A' for Active; 'I' for Inactive)
REMARK    1  A    between atoms: C_1  and  C_2
REMARK    2  A    between atoms: C_4  and  C_15
REMARK    3  A    between atoms: C_6  and  C_14
REMARK    4  A    between atoms: C_7  and  O_8
REMARK    5  A    between atoms: O_8  and  C_9
REMARK    6  A    between atoms: C_9  and  C_10
REMARK    7  A    between atoms: C_15  and  N_16
REMARK    8  A    between atoms: N_16  and  C_17
REMARK    9  A    between atoms: N_16  and  C_18
REMARK   10  A    between atoms: C_18  and  C_19
REMARK                            x       y       z     vdW  Elec       q    Type
REMARK                         _______ _______ _______ _____ _____    ______ ____
ROOT
ATOM      1  C   UNL     1      -0.018   1.503   0.010  0.00  0.00    +0.047 C 
ATOM      2  C   UNL     1       0.002  -0.004   0.002  0.00  0.00    -0.008 A 
ATOM      3  C   UNL     1       0.006  -0.689  -1.198  0.00  0.00    +0.008 A 
ATOM      4  C   UNL     1       0.024  -2.071  -1.206  0.00  0.00    -0.063 A 
ATOM      5  C   UNL     1       0.040  -2.772  -0.014  0.00  0.00    +0.008 A 
ATOM      6  C   UNL     1       0.036  -2.092   1.188  0.00  0.00    -0.008 A 
ATOM      7  C   UNL     1       0.023  -0.705   1.199  0.00  0.00    +0.127 A 
ATOM      8  C   UNL     1       0.052  -2.856   2.487  0.00  0.00    +0.047 C 
ENDROOT
BRANCH   7   9
ATOM      9  O   UNL     1       0.025  -0.033   2.381  0.00  0.00    -0.483 OA
BRANCH   9  10
ATOM     10  C   UNL     1      -1.246   0.270   2.957  0.00  0.00    +0.342 C 
BRANCH  10  11
ATOM     11  C   UNL     1      -1.043   1.022   4.274  0.00  0.00    +0.424 C 
ATOM     12  F   UNL     1      -0.346   2.211   4.030  0.00  0.00    -0.167 F 
ATOM     13  F   UNL     1      -2.288   1.320   4.838  0.00  0.00    -0.167 F 
ATOM     14  F   UNL     1      -0.309   0.225   5.158  0.00  0.00    -0.167 F 
ENDBRANCH  10  11
ENDBRANCH   9  10
ENDBRANCH   7   9
BRANCH   4  15
ATOM     15  C   UNL     1       0.028  -2.816  -2.516  0.00  0.00    -0.043 C 
BRANCH  15  16
ATOM     16  N   UNL     1       1.414  -3.039  -2.949  0.00  0.00    +0.386 N 
ATOM     17  C   UNL     1       2.052  -1.747  -3.235  0.00  0.00    -0.095 C 
ATOM     18  H   UNL     1       1.923  -3.511  -2.217  0.00  0.00    -0.081 HD
BRANCH  16  19
ATOM     19  C   UNL     1       1.421  -3.867  -4.162  0.00  0.00    +0.019 C 
BRANCH  19  20
ATOM     20  C   UNL     1       2.842  -4.198  -4.537  0.00  0.00    +0.204 C 
ATOM     21  O   UNL     1       3.759  -3.785  -3.859  0.00  0.00    -0.277 OA
ATOM     22  N   UNL     1       3.095  -4.954  -5.624  0.00  0.00    -0.242 N 
ATOM     23  C   UNL     1       4.366  -5.250  -5.958  0.00  0.00    +0.303 C 
ATOM     24  O   UNL     1       5.285  -4.836  -5.280  0.00  0.00    -0.253 OA
ATOM     25  N   UNL     1       4.618  -6.005  -7.046  0.00  0.00    -0.313 N 
ATOM     26  H   UNL     1       2.361  -5.284  -6.166  0.00  0.00    +0.159 HD
ATOM     27  H   UNL     1       3.885  -6.335  -7.588  0.00  0.00    +0.146 HD
ATOM     28  H   UNL     1       5.534  -6.218  -7.287  0.00  0.00    +0.146 HD
ENDBRANCH  19  20
ENDBRANCH  16  19
ENDBRANCH  15  16
ENDBRANCH   4  15
TORSDOF 7
