REMARK  Name = ZINC43710891
REMARK  7 active torsions:
REMARK  status: ('A' for Active; 'I' for Inactive)
REMARK    1  A    between atoms: C_1  and  C_2
REMARK    2  A    between atoms: N_6  and  O_7
REMARK    3  A    between atoms: O_7  and  C_8
REMARK    4  A    between atoms: C_8  and  C_9
REMARK    5  A    between atoms: C_22  and  C_30
REMARK    6  A    between atoms: C_27  and  C_28
REMARK    7  A    between atoms: C_27  and  O_29
REMARK                            x       y       z     vdW  Elec       q    Type
REMARK                         _______ _______ _______ _____ _____    ______ ____
ROOT
ATOM      1  C   UNL     1      -0.019   1.526   0.010  0.00  0.00    +0.016 C 
ATOM      2  C   UNL     1       0.002  -0.004   0.002  0.00  0.00    -0.007 C 
ATOM      3  C   UNL     1       0.632  -0.458  -1.303  0.00  0.00    +0.017 C 
ATOM      4  C   UNL     1       2.157  -0.368  -1.255  0.00  0.00    +0.059 C 
ATOM      5  C   UNL     1       2.624  -1.227  -0.095  0.00  0.00    +0.080 C 
ATOM      6  N   UNL     1       3.572  -2.098  -0.231  0.00  0.00    -0.089 NA
ATOM      7  C   UNL     1       1.942  -1.017   1.194  0.00  0.00    +0.026 C 
ATOM      8  C   UNL     1       0.732  -0.464   1.226  0.00  0.00    -0.062 C 
ATOM      9  C   UNL     1       0.082  -0.251   2.581  0.00  0.00    +0.031 C 
ATOM     10  C   UNL     1      -1.354  -0.777   2.523  0.00  0.00    +0.008 C 
ATOM     11  C   UNL     1      -2.096  -0.098   1.367  0.00  0.00    -0.003 C 
ATOM     12  C   UNL     1      -1.450  -0.496   0.043  0.00  0.00    +0.002 C 
ATOM     13  C   UNL     1      -2.218   0.156  -1.113  0.00  0.00    +0.005 C 
ATOM     14  C   UNL     1      -3.650  -0.372  -1.113  0.00  0.00    +0.010 C 
ATOM     15  C   UNL     1      -4.367   0.023   0.181  0.00  0.00    -0.000 C 
ATOM     16  C   UNL     1      -3.556  -0.481   1.403  0.00  0.00    +0.001 C 
ATOM     17  C   UNL     1      -3.767  -2.007   1.387  0.00  0.00    +0.007 C 
ATOM     18  C   UNL     1      -5.251  -2.161   0.982  0.00  0.00    +0.035 C 
ATOM     19  C   UNL     1      -5.657  -0.837   0.254  0.00  0.00    +0.069 C 
ATOM     20  C   UNL     1      -6.134  -1.189  -1.156  0.00  0.00    +0.042 C 
ATOM     21  C   UNL     1      -4.672   1.522   0.228  0.00  0.00    +0.014 C 
ENDROOT
BRANCH  19  22
ATOM     22  O   UNL     1      -6.680  -0.128   0.956  0.00  0.00    -0.388 OA
ATOM     23  H   UNL     1      -7.512  -0.614   1.035  0.00  0.00    +0.210 HD
ENDBRANCH  19  22
BRANCH   6  24
ATOM     24  O   UNL     1       4.203  -2.268  -1.488  0.00  0.00    -0.382 OA
BRANCH  24  25
ATOM     25  C   UNL     1       5.230  -3.262  -1.493  0.00  0.00    +0.387 C 
BRANCH  25  26
ATOM     26  C   UNL     1       5.829  -3.358  -2.872  0.00  0.00    +0.395 C 
ATOM     27  O   UNL     1       5.414  -2.643  -3.768  0.00  0.00    -0.242 OA
ATOM     28  O   UNL     1       6.728  -4.152  -3.092  0.00  0.00    -0.242 OA
ENDBRANCH  25  26
ENDBRANCH  24  25
ENDBRANCH   6  24
TORSDOF 4
