REMARK  Name = ZINC04290856
REMARK  9 active torsions:
REMARK  status: ('A' for Active; 'I' for Inactive)
REMARK    1  A    between atoms: C_1  and  C_2
REMARK    2  A    between atoms: C_5  and  C_8
REMARK    3  A    between atoms: C_8  and  C_10
REMARK    4  A    between atoms: C_8  and  O_23
REMARK    5  A    between atoms: C_12  and  O_21
REMARK    6  A    between atoms: C_13  and  O_19
REMARK    7  A    between atoms: C_15  and  N_16
REMARK    8  A    between atoms: O_19  and  C_20
REMARK    9  A    between atoms: O_21  and  C_22
REMARK                            x       y       z     vdW  Elec       q    Type
REMARK                         _______ _______ _______ _____ _____    ______ ____
ROOT
ATOM      1  C   UNL     1       2.809   1.054  -1.527  0.00  0.00    +0.019 A 
ATOM      2  C   UNL     1       3.770   1.922  -2.011  0.00  0.00    +0.058 A 
ATOM      3  C   UNL     1       4.390   1.664  -3.223  0.00  0.00    +0.162 A 
ATOM      4  C   UNL     1       4.033   0.537  -3.957  0.00  0.00    +0.164 A 
ATOM      5  C   UNL     1       3.065  -0.326  -3.469  0.00  0.00    +0.082 A 
ATOM      6  C   UNL     1       2.455  -0.066  -2.256  0.00  0.00    +0.136 A 
ENDROOT
BRANCH   6   7
ATOM      7  N   UNL     1       1.421  -0.989  -1.736  0.00  0.00    +0.057 N 
ATOM      8  O   UNL     1       1.027  -1.912  -2.426  0.00  0.00    -0.126 OA
ATOM      9  O   UNL     1       0.964  -0.825  -0.619  0.00  0.00    -0.126 OA
ENDBRANCH   6   7
BRANCH   4  10
ATOM     10  O   UNL     1       4.634   0.282  -5.150  0.00  0.00    -0.491 OA
ATOM     11  C   UNL     1       4.219  -0.893  -5.848  0.00  0.00    +0.277 C 
ENDBRANCH   4  10
BRANCH   3  12
ATOM     12  O   UNL     1       5.340   2.514  -3.697  0.00  0.00    -0.491 OA
ATOM     13  C   UNL     1       5.654   3.651  -2.890  0.00  0.00    +0.277 C 
ENDBRANCH   3  12
BRANCH   1  14
ATOM     14  C   UNL     1       2.140   1.333  -0.205  0.00  0.00    +0.177 C 
BRANCH  14  19
ATOM     15  C   UNL     1      -2.918   3.970  -1.125  0.00  0.00    +0.044 C 
ATOM     16  C   UNL     1      -1.599   3.283  -0.885  0.00  0.00    -0.050 A 
ATOM     17  C   UNL     1      -1.573   1.982  -0.418  0.00  0.00    +0.004 A 
ATOM     18  C   UNL     1      -0.362   1.353  -0.193  0.00  0.00    +0.007 A 
ATOM     19  C   UNL     1       0.821   2.021  -0.445  0.00  0.00    -0.015 A 
ATOM     20  C   UNL     1       0.795   3.320  -0.916  0.00  0.00    +0.007 A 
ATOM     21  C   UNL     1      -0.415   3.951  -1.136  0.00  0.00    +0.004 A 
ENDBRANCH  14  19
BRANCH  14  22
ATOM     22  O   UNL     1       2.981   2.176   0.585  0.00  0.00    -0.382 OA
ATOM     23  H   UNL     1       3.175   3.031   0.177  0.00  0.00    +0.211 HD
ENDBRANCH  14  22
ENDBRANCH   1  14
TORSDOF 6
