REMARK  Name = ZINC47097978
REMARK  5 active torsions:
REMARK  status: ('A' for Active; 'I' for Inactive)
REMARK    1  A    between atoms: C_1  and  C_2
REMARK    2  A    between atoms: C_5  and  C_7
REMARK    3  A    between atoms: C_7  and  N_8
REMARK    4  A    between atoms: N_11  and  N_12
REMARK    5  A    between atoms: C_13  and  C_15
REMARK                            x       y       z     vdW  Elec       q    Type
REMARK                         _______ _______ _______ _____ _____    ______ ____
ROOT
ATOM      1  N   UNL     1       3.420  -3.277   4.332  0.00  0.00    -0.229 N 
ATOM      2  C   UNL     1       4.060  -3.698   5.441  0.00  0.00    +0.262 C 
ATOM      3  O   UNL     1       4.717  -4.721   5.413  0.00  0.00    -0.269 OA
ATOM      4  H   UNL     1       2.896  -2.461   4.354  0.00  0.00    +0.173 HD
ENDROOT
BRANCH   2   5
ATOM      5  C   UNL     1       3.965  -2.916   6.689  0.00  0.00    +0.057 A 
ATOM      6  C   UNL     1       3.207  -1.743   6.726  0.00  0.00    +0.017 A 
ATOM      7  C   UNL     1       3.121  -1.017   7.894  0.00  0.00    +0.039 A 
ATOM      8  C   UNL     1       3.786  -1.448   9.033  0.00  0.00    +0.125 A 
ATOM      9  C   UNL     1       4.539  -2.611   9.004  0.00  0.00    +0.059 A 
ATOM     10  C   UNL     1       4.628  -3.349   7.841  0.00  0.00    +0.056 A 
ATOM     11 CL   UNL     1       5.568  -4.808   7.807  0.00  0.00    -0.083 Cl
ATOM     12  F   UNL     1       3.698  -0.732  10.175  0.00  0.00    -0.205 F 
ENDBRANCH   2   5
BRANCH   1  16
ATOM     13  N   UNL     1       2.142  -2.465   2.069  0.00  0.00    -0.298 N 
ATOM     14  C   UNL     1       2.869  -3.599   2.038  0.00  0.00    +0.316 C 
ATOM     15  O   UNL     1       2.948  -4.243   1.010  0.00  0.00    -0.251 OA
ATOM     16  N   UNL     1       3.510  -4.019   3.147  0.00  0.00    -0.218 N 
ATOM     17  H   UNL     1       2.079  -1.951   2.890  0.00  0.00    +0.150 HD
ATOM     18  H   UNL     1       4.034  -4.836   3.125  0.00  0.00    +0.174 HD
BRANCH  13  19
ATOM     19  C   UNL     1       1.445  -2.008   0.864  0.00  0.00    +0.109 C 
BRANCH  19  23
ATOM     20  C   UNL     1      -0.019   1.526   0.010  0.00  0.00    +0.008 C 
ATOM     21  C   UNL     1       0.002  -0.004   0.002  0.00  0.00    -0.009 C 
ATOM     22  C   UNL     1      -0.828  -0.728   1.065  0.00  0.00    +0.009 C 
ATOM     23  C   UNL     1       0.700  -0.708   1.168  0.00  0.00    +0.009 C 
ENDBRANCH  19  23
ENDBRANCH  13  19
ENDBRANCH   1  16
TORSDOF 4
