REMARK  Name = ZINC61881441
REMARK  4 active torsions:
REMARK  status: ('A' for Active; 'I' for Inactive)
REMARK    1  A    between atoms: C_4  and  S_9
REMARK    2  A    between atoms: C_6  and  N_7
REMARK    3  A    between atoms: S_9  and  N_12
REMARK    4  A    between atoms: C_16  and  C_19
REMARK                            x       y       z     vdW  Elec       q    Type
REMARK                         _______ _______ _______ _____ _____    ______ ____
ROOT
ATOM      1  S   UNL     1       3.941  -0.824  -0.040  0.00  0.00    +0.062 S 
ATOM      2  O   UNL     1       3.730  -1.871  -0.977  0.00  0.00    -0.153 OA
ATOM      3  O   UNL     1       5.004   0.110  -0.169  0.00  0.00    -0.153 OA
ENDROOT
BRANCH   1   7
ATOM      4  C   UNL     1       0.110   1.594   0.096  0.00  0.00    +0.044 A 
ATOM      5  C   UNL     1       1.333   2.234   0.028  0.00  0.00    +0.045 A 
ATOM      6  C   UNL     1       2.502   1.495  -0.014  0.00  0.00    +0.049 A 
ATOM      7  C   UNL     1       2.450   0.113   0.013  0.00  0.00    +0.123 A 
ATOM      8  C   UNL     1       1.231  -0.533   0.081  0.00  0.00    +0.065 A 
ATOM      9  C   UNL     1       0.055   0.207   0.123  0.00  0.00    +0.042 A 
ATOM     10 BR   UNL     1       1.162  -2.423   0.116  0.00  0.00    -0.046 Br
ATOM     11 CL   UNL     1       1.403   3.969  -0.007  0.00  0.00    -0.083 Cl
BRANCH   9  12
ATOM     12  N   UNL     1      -1.179  -0.444   0.192  0.00  0.00    -0.357 N 
ATOM     13  H   UNL     1      -1.999   0.073   0.222  0.00  0.00    +0.142 HD
ATOM     14  H   UNL     1      -1.216  -1.413   0.211  0.00  0.00    +0.142 HD
ENDBRANCH   9  12
ENDBRANCH   1   7
BRANCH   1  15
ATOM     15  N   UNL     1       4.121  -1.543   1.441  0.00  0.00    -0.176 NA
ATOM     16  C   UNL     1       4.678  -0.792   2.575  0.00  0.00    +0.109 C 
ATOM     17  C   UNL     1       3.706  -0.888   3.755  0.00  0.00    +0.018 C 
ATOM     18  C   UNL     1       3.419  -2.361   4.056  0.00  0.00    +0.015 C 
ATOM     19  C   UNL     1       2.764  -3.015   2.837  0.00  0.00    +0.090 C 
ATOM     20  C   UNL     1       3.720  -2.941   1.648  0.00  0.00    +0.122 C 
BRANCH  19  21
ATOM     21  C   UNL     1       2.452  -4.456   3.146  0.00  0.00    +0.215 C 
ATOM     22  O   UNL     1       2.947  -5.340   2.479  0.00  0.00    -0.276 OA
ATOM     23  N   UNL     1       1.623  -4.763   4.164  0.00  0.00    -0.329 N 
ATOM     24  H   UNL     1       1.228  -4.056   4.697  0.00  0.00    +0.145 HD
ATOM     25  H   UNL     1       1.422  -5.691   4.363  0.00  0.00    +0.145 HD
ENDBRANCH  19  21
ENDBRANCH   1  15
TORSDOF 4
