REMARK  Name = ZINC06597712
REMARK  10 active torsions:
REMARK  status: ('A' for Active; 'I' for Inactive)
REMARK    1  A    between atoms: C_1  and  C_2
REMARK    2  A    between atoms: C_2  and  C_3
REMARK    3  A    between atoms: C_2  and  C_4
REMARK    4  A    between atoms: C_2  and  C_5
REMARK    5  A    between atoms: C_8  and  N_11
REMARK    6  A    between atoms: C_12  and  C_14
REMARK    7  A    between atoms: C_14  and  O_15
REMARK    8  A    between atoms: O_15  and  C_16
REMARK    9  A    between atoms: C_16  and  C_18
REMARK   10  A    between atoms: C_21  and  N_24
REMARK                            x       y       z     vdW  Elec       q    Type
REMARK                         _______ _______ _______ _____ _____    ______ ____
ROOT
ATOM      1  O   UNL     1      -0.004   1.884  -0.259  0.00  0.00    -0.452 OA
ENDROOT
BRANCH   1   2
ATOM      2  C   UNL     1      -0.497   0.645  -0.451  0.00  0.00    +0.340 C 
ATOM      3  O   UNL     1       0.257  -0.304  -0.528  0.00  0.00    -0.245 OA
BRANCH   2   4
ATOM      4  C   UNL     1      -1.953   0.441  -0.567  0.00  0.00    +0.059 A 
ATOM      5  C   UNL     1      -2.824   1.530  -0.472  0.00  0.00    +0.017 A 
ATOM      6  C   UNL     1      -4.181   1.337  -0.588  0.00  0.00    +0.024 A 
ATOM      7  C   UNL     1      -4.689   0.056  -0.785  0.00  0.00    +0.035 A 
ATOM      8  C   UNL     1      -3.826  -1.032  -0.874  0.00  0.00    +0.024 A 
ATOM      9  C   UNL     1      -2.467  -0.845  -0.766  0.00  0.00    +0.017 A 
BRANCH   7  10
ATOM     10  N   UNL     1      -6.065  -0.137  -0.896  0.00  0.00    -0.270 N 
ATOM     11  C   UNL     1      -6.627  -1.266  -0.421  0.00  0.00    +0.301 C 
ATOM     12  O   UNL     1      -5.951  -2.073   0.187  0.00  0.00    -0.253 OA
ATOM     13  N   UNL     1      -7.939  -1.501  -0.621  0.00  0.00    -0.313 N 
ATOM     14  H   UNL     1      -6.618   0.542  -1.314  0.00  0.00    +0.156 HD
ATOM     15  H   UNL     1      -8.479  -0.858  -1.106  0.00  0.00    +0.146 HD
ATOM     16  H   UNL     1      -8.344  -2.314  -0.280  0.00  0.00    +0.146 HD
ENDBRANCH   7  10
ENDBRANCH   2   4
ENDBRANCH   1   2
BRANCH   1  17
ATOM     17  C   UNL     1       1.438   2.010  -0.154  0.00  0.00    +0.328 C 
BRANCH  17  19
ATOM     18  N   UNL     1       3.095   3.816   0.183  0.00  0.00    -0.283 N 
ATOM     19  C   UNL     1       1.802   3.458   0.057  0.00  0.00    +0.255 C 
ATOM     20  O   UNL     1       0.931   4.300   0.113  0.00  0.00    -0.272 OA
ATOM     21  H   UNL     1       3.795   3.155   0.066  0.00  0.00    +0.155 HD
BRANCH  18  25
ATOM     22  C   UNL     1       4.084   7.764   1.075  0.00  0.00    -0.042 A 
ATOM     23  C   UNL     1       2.927   7.210   1.590  0.00  0.00    +0.006 A 
ATOM     24  C   UNL     1       2.596   5.901   1.296  0.00  0.00    +0.023 A 
ATOM     25  C   UNL     1       3.427   5.142   0.483  0.00  0.00    +0.034 A 
ATOM     26  C   UNL     1       4.592   5.700  -0.029  0.00  0.00    +0.023 A 
ATOM     27  C   UNL     1       4.914   7.011   0.264  0.00  0.00    +0.006 A 
BRANCH  22  29
ATOM     28  C   UNL     1       4.598   9.349   2.911  0.00  0.00    +0.015 C 
ATOM     29  C   UNL     1       4.442   9.192   1.397  0.00  0.00    -0.013 C 
ATOM     30  C   UNL     1       5.759   9.556   0.709  0.00  0.00    +0.015 C 
ATOM     31  C   UNL     1       3.333  10.120   0.899  0.00  0.00    +0.015 C 
ENDBRANCH  22  29
ENDBRANCH  18  25
ENDBRANCH  17  19
ENDBRANCH   1  17
TORSDOF 7
