REMARK  Name = ZINC57288304
REMARK  7 active torsions:
REMARK  status: ('A' for Active; 'I' for Inactive)
REMARK    1  A    between atoms: C_1  and  C_2
REMARK    2  A    between atoms: C_2  and  C_4
REMARK    3  A    between atoms: C_2  and  N_20
REMARK    4  A    between atoms: N_6  and  C_7
REMARK    5  A    between atoms: C_7  and  C_8
REMARK    6  A    between atoms: C_8  and  C_10
REMARK    7  A    between atoms: C_8  and  N_15
REMARK                            x       y       z     vdW  Elec       q    Type
REMARK                         _______ _______ _______ _____ _____    ______ ____
ROOT
ATOM      1  C   UNL     1       3.250  -0.642   2.711  0.00  0.00    +0.233 C 
ATOM      2  O   UNL     1       2.934  -1.518   1.933  0.00  0.00    -0.274 OA
ATOM      3  N   UNL     1       2.377  -0.229   3.651  0.00  0.00    -0.315 N 
ATOM      4  H   UNL     1       2.629   0.471   4.273  0.00  0.00    +0.149 HD
ENDROOT
BRANCH   1   6
ATOM      5  C   UNL     1       5.362  -0.238   3.945  0.00  0.00    +0.038 C 
ATOM      6  C   UNL     1       4.618  -0.017   2.626  0.00  0.00    +0.157 C 
BRANCH   6   7
ATOM      7  N   UNL     1       5.371  -0.635   1.531  0.00  0.00    -0.289 N 
ATOM      8  C   UNL     1       6.369   0.045   0.932  0.00  0.00    +0.298 C 
ATOM      9  O   UNL     1       6.645   1.170   1.301  0.00  0.00    -0.253 OA
ATOM     10  N   UNL     1       7.061  -0.523  -0.075  0.00  0.00    -0.313 N 
ATOM     11  H   UNL     1       5.150  -1.532   1.237  0.00  0.00    +0.151 HD
ATOM     12  H   UNL     1       6.840  -1.421  -0.369  0.00  0.00    +0.146 HD
ATOM     13  H   UNL     1       7.779  -0.035  -0.506  0.00  0.00    +0.146 HD
ENDBRANCH   6   7
ENDBRANCH   1   6
BRANCH   3  14
ATOM     14  C   UNL     1       1.046  -0.837   3.733  0.00  0.00    +0.094 C 
BRANCH  14  15
ATOM     15  C   UNL     1       0.309  -0.287   4.956  0.00  0.00    -0.013 C 
BRANCH  15  16
ATOM     16  N   UNL     1      -1.069  -0.796   4.966  0.00  0.00    +0.386 N 
ATOM     17  C   UNL     1      -1.805  -0.255   6.137  0.00  0.00    -0.078 C 
ATOM     18  C   UNL     1      -3.290  -0.393   5.717  0.00  0.00    -0.020 C 
ATOM     19  C   UNL     1      -3.254  -0.058   4.208  0.00  0.00    -0.020 C 
ATOM     20  C   UNL     1      -1.799  -0.315   3.773  0.00  0.00    -0.078 C 
ATOM     21  H   UNL     1      -1.068  -1.805   4.990  0.00  0.00    -0.081 HD
ENDBRANCH  15  16
BRANCH  15  22
ATOM     22  C   UNL     1       1.018  -0.730   6.210  0.00  0.00    -0.022 A 
ATOM     23  C   UNL     1       1.878  -0.037   6.995  0.00  0.00    +0.009 A 
ATOM     24  C   UNL     1       2.412  -0.652   8.111  0.00  0.00    +0.008 A 
ATOM     25  C   UNL     1       2.060  -1.932   8.388  0.00  0.00    +0.045 A 
ATOM     26  S   UNL     1       0.936  -2.303   7.052  0.00  0.00    -0.103 S 
ENDBRANCH  15  22
ENDBRANCH  14  15
ENDBRANCH   3  14
TORSDOF 6
