REMARK  Name = ZINC66106774
REMARK  10 active torsions:
REMARK  status: ('A' for Active; 'I' for Inactive)
REMARK    1  A    between atoms: C_1  and  C_2
REMARK    2  A    between atoms: C_4  and  O_21
REMARK    3  A    between atoms: C_7  and  N_8
REMARK    4  A    between atoms: N_8  and  C_9
REMARK    5  A    between atoms: C_9  and  C_11
REMARK    6  A    between atoms: C_9  and  C_12
REMARK    7  A    between atoms: N_17  and  C_18
REMARK    8  A    between atoms: C_18  and  C_19
REMARK    9  A    between atoms: C_18  and  C_20
REMARK   10  A    between atoms: O_21  and  C_22
REMARK                            x       y       z     vdW  Elec       q    Type
REMARK                         _______ _______ _______ _____ _____    ______ ____
ROOT
ATOM      1  C   UNL     1       0.047  -0.752   3.681  0.00  0.00    +0.154 C 
ATOM      2  C   UNL     1      -1.381  -1.138   4.071  0.00  0.00    +0.038 C 
ENDROOT
BRANCH   1   3
ATOM      3  C   UNL     1       0.646   0.114   4.759  0.00  0.00    +0.240 C 
ATOM      4  O   UNL     1       1.018   1.237   4.497  0.00  0.00    -0.273 OA
ATOM      5  N   UNL     1       0.769  -0.362   6.014  0.00  0.00    -0.239 N 
ATOM      6  C   UNL     1       1.304   0.413   6.979  0.00  0.00    +0.306 C 
ATOM      7  O   UNL     1       1.677   1.539   6.716  0.00  0.00    -0.252 OA
ATOM      8  N   UNL     1       1.427  -0.063   8.234  0.00  0.00    -0.297 N 
ATOM      9  H   UNL     1       0.471  -1.261   6.224  0.00  0.00    +0.159 HD
ATOM     10  H   UNL     1       1.129  -0.962   8.443  0.00  0.00    +0.151 HD
BRANCH   8  11
ATOM     11  C   UNL     1       2.009   0.779   9.282  0.00  0.00    +0.068 C 
ATOM     12  C   UNL     1       0.921   1.671   9.883  0.00  0.00    +0.027 C 
ATOM     13  C   UNL     1       2.603  -0.109  10.378  0.00  0.00    +0.027 C 
ENDBRANCH   8  11
ENDBRANCH   1   3
BRANCH   1  14
ATOM     14  N   UNL     1       0.025  -0.012   2.416  0.00  0.00    -0.333 N 
ATOM     15  H   UNL     1       0.012   0.958   2.422  0.00  0.00    +0.147 HD
BRANCH  14  22
ATOM     16  C   UNL     1      -0.018   1.503   0.010  0.00  0.00    +0.046 C 
ATOM     17  C   UNL     1       0.002  -0.004   0.002  0.00  0.00    -0.026 A 
ATOM     18  C   UNL     1       0.006  -0.688  -1.198  0.00  0.00    +0.050 A 
ATOM     19  C   UNL     1       0.025  -2.075  -1.206  0.00  0.00    +0.120 A 
ATOM     20  C   UNL     1       0.040  -2.776  -0.009  0.00  0.00    +0.047 A 
ATOM     21  C   UNL     1       0.036  -2.094   1.192  0.00  0.00    +0.027 A 
ATOM     22  C   UNL     1       0.023  -0.705   1.200  0.00  0.00    +0.031 A 
BRANCH  19  23
ATOM     23  O   UNL     1       0.028  -2.748  -2.388  0.00  0.00    -0.495 OA
ATOM     24  C   UNL     1       0.047  -4.175  -2.321  0.00  0.00    +0.277 C 
ENDBRANCH  19  23
ENDBRANCH  14  22
ENDBRANCH   1  14
TORSDOF 5
