REMARK  Name = ZINC19202471
REMARK  1 active torsions:
REMARK  status: ('A' for Active; 'I' for Inactive)
REMARK    1  A    between atoms: C_6  and  N_7
REMARK                            x       y       z     vdW  Elec       q    Type
REMARK                         _______ _______ _______ _____ _____    ______ ____
ROOT
ATOM      1  C   UNL     1      -2.451   3.696   0.119  0.00  0.00    +0.053 A 
ATOM      2  C   UNL     1      -3.616   2.946   0.014  0.00  0.00    +0.038 A 
ATOM      3  C   UNL     1      -3.530   1.571  -0.075  0.00  0.00    +0.128 A 
ATOM      4  N   UNL     1      -2.358   0.964  -0.062  0.00  0.00    -0.237 NA
ATOM      5  C   UNL     1      -1.225   1.643   0.036  0.00  0.00    +0.147 A 
ATOM      6  C   UNL     1      -1.238   3.031   0.135  0.00  0.00    +0.166 A 
ATOM      7  N   UNL     1      -0.013   0.963   0.046  0.00  0.00    -0.341 N 
ATOM      8 BR   UNL     1      -5.303   3.800  -0.006  0.00  0.00    -0.049 Br
ATOM      9  H   UNL     1       0.931   1.522   0.128  0.00  0.00    +0.144 HD
ATOM     10  H   UNL     1       0.003  -0.135  -0.028  0.00  0.00    +0.144 HD
ENDROOT
BRANCH   6  11
ATOM     11  N   UNL     1       0.030   3.786   0.252  0.00  0.00    +0.060 N 
ATOM     12  O   UNL     1       0.007   4.988   0.447  0.00  0.00    -0.126 OA
ATOM     13  O   UNL     1       1.096   3.205   0.153  0.00  0.00    -0.126 OA
ENDBRANCH   6  11
TORSDOF 1
