REMARK  Name = ZINC23078908
REMARK  13 active torsions:
REMARK  status: ('A' for Active; 'I' for Inactive)
REMARK    1  A    between atoms: C_1  and  C_2
REMARK    2  A    between atoms: C_2  and  C_3
REMARK    3  A    between atoms: C_3  and  N_4
REMARK    4  A    between atoms: C_5  and  N_35
REMARK    5  A    between atoms: C_6  and  N_13
REMARK    6  A    between atoms: N_13  and  C_14
REMARK    7  A    between atoms: C_14  and  C_15
REMARK    8  A    between atoms: C_15  and  O_16
REMARK    9  A    between atoms: O_16  and  C_17
REMARK   10  A    between atoms: C_18  and  C_20
REMARK   11  A    between atoms: C_20  and  C_21
REMARK   12  A    between atoms: C_24  and  S_26
REMARK   13  A    between atoms: S_26  and  N_29
REMARK                            x       y       z     vdW  Elec       q    Type
REMARK                         _______ _______ _______ _____ _____    ______ ____
ROOT
ATOM      1  N   UNL     1       2.990  -4.655  -0.223  0.00  0.00    -0.262 N 
ATOM      2  C   UNL     1       3.841  -3.930   0.534  0.00  0.00    +0.225 C 
ATOM      3  O   UNL     1       3.752  -2.720   0.556  0.00  0.00    -0.275 OA
ENDROOT
BRANCH   1   6
ATOM      4  N   UNL     1      -0.369  -3.599  -1.270  0.00  0.00    -0.280 N 
ATOM      5  C   UNL     1       0.628  -4.239  -0.572  0.00  0.00    +0.127 A 
ATOM      6  C   UNL     1       1.944  -4.014  -0.920  0.00  0.00    +0.140 A 
ATOM      7  C   UNL     1       2.226  -3.134  -1.982  0.00  0.00    +0.277 A 
ATOM      8  O   UNL     1       3.380  -2.918  -2.310  0.00  0.00    -0.266 OA
ATOM      9  N   UNL     1       1.212  -2.533  -2.633  0.00  0.00    -0.273 N 
ATOM     10  H   UNL     1       1.404  -1.927  -3.365  0.00  0.00    +0.173 HD
ATOM     11  C   UNL     1      -0.066  -2.768  -2.284  0.00  0.00    +0.331 A 
ATOM     12  O   UNL     1      -0.962  -2.216  -2.892  0.00  0.00    -0.246 OA
BRANCH   5  13
ATOM     13  N   UNL     1       0.318  -5.091   0.460  0.00  0.00    -0.343 N 
ATOM     14  H   UNL     1      -0.605  -5.197   0.741  0.00  0.00    +0.144 HD
ATOM     15  H   UNL     1       1.021  -5.587   0.908  0.00  0.00    +0.144 HD
ENDBRANCH   5  13
BRANCH   4  16
ATOM     16  C   UNL     1      -1.771  -3.828  -0.912  0.00  0.00    +0.128 C 
BRANCH  16  18
ATOM     17  C   UNL     1      -3.779  -5.254  -1.336  0.00  0.00    +0.005 C 
ATOM     18  C   UNL     1      -2.314  -5.014  -1.710  0.00  0.00    +0.018 C 
ENDBRANCH  16  18
ENDBRANCH   4  16
ENDBRANCH   1   6
BRANCH   1  19
ATOM     19  C   UNL     1       3.153  -6.108  -0.320  0.00  0.00    +0.142 C 
BRANCH  19  20
ATOM     20  C   UNL     1       4.009  -6.444  -1.542  0.00  0.00    +0.178 C 
BRANCH  20  21
ATOM     21  O   UNL     1       5.329  -5.927  -1.357  0.00  0.00    -0.381 OA
ATOM     22  C   UNL     1       6.214  -6.188  -2.447  0.00  0.00    +0.194 C 
ENDBRANCH  20  21
ENDBRANCH  19  20
ENDBRANCH   1  19
BRANCH   2  23
ATOM     23  C   UNL     1       4.899  -4.623   1.352  0.00  0.00    +0.138 C 
BRANCH  23  24
ATOM     24  C   UNL     1       5.710  -3.595   2.099  0.00  0.00    +0.000 A 
ATOM     25  C   UNL     1       5.503  -3.080   3.336  0.00  0.00    +0.013 A 
ATOM     26  C   UNL     1       6.388  -2.137   3.825  0.00  0.00    +0.036 A 
ATOM     27  C   UNL     1       7.435  -1.755   3.054  0.00  0.00    +0.143 A 
ATOM     28  S   UNL     1       7.194  -2.746   1.589  0.00  0.00    -0.073 S 
BRANCH  27  29
ATOM     29  S   UNL     1       8.707  -0.589   3.409  0.00  0.00    +0.067 S 
ATOM     30  O   UNL     1       9.202  -0.135   2.156  0.00  0.00    -0.152 OA
ATOM     31  O   UNL     1       8.183   0.298   4.387  0.00  0.00    -0.152 OA
BRANCH  29  32
ATOM     32  N   UNL     1       9.943  -1.418   4.135  0.00  0.00    -0.172 NA
ATOM     33  C   UNL     1       9.989  -1.583   5.596  0.00  0.00    +0.137 C 
ATOM     34  C   UNL     1      10.204  -3.068   5.908  0.00  0.00    +0.177 C 
ATOM     35  O   UNL     1      11.339  -3.542   5.180  0.00  0.00    -0.377 OA
ATOM     36  C   UNL     1      11.193  -3.476   3.759  0.00  0.00    +0.177 C 
ATOM     37  C   UNL     1      11.025  -2.016   3.337  0.00  0.00    +0.137 C 
ENDBRANCH  29  32
ENDBRANCH  27  29
ENDBRANCH  23  24
ENDBRANCH   2  23
TORSDOF 11
