REMARK  Name = ZINC05206408
REMARK  9 active torsions:
REMARK  status: ('A' for Active; 'I' for Inactive)
REMARK    1  A    between atoms: C_1  and  C_2
REMARK    2  A    between atoms: C_2  and  C_4
REMARK    3  A    between atoms: C_2  and  O_11
REMARK    4  A    between atoms: N_9  and  C_10
REMARK    5  A    between atoms: O_11  and  C_12
REMARK    6  A    between atoms: C_12  and  C_14
REMARK    7  A    between atoms: C_14  and  N_22
REMARK    8  A    between atoms: C_15  and  C_16
REMARK    9  A    between atoms: C_23  and  C_25
REMARK                            x       y       z     vdW  Elec       q    Type
REMARK                         _______ _______ _______ _____ _____    ______ ____
ROOT
ATOM      1  C   UNL     1      -0.190   1.347   0.113  0.00  0.00    +0.354 C 
ATOM      2  O   UNL     1      -0.211   0.132   0.152  0.00  0.00    -0.244 OA
ENDROOT
BRANCH   1   3
ATOM      3  C   UNL     1       1.094   2.058   0.072  0.00  0.00    +0.119 C 
ATOM      4  C   UNL     1       2.255   1.361   0.078  0.00  0.00    +0.038 C 
BRANCH   4   5
ATOM      5  C   UNL     1       3.538   2.069   0.205  0.00  0.00    -0.023 A 
ATOM      6  C   UNL     1       4.718   1.472  -0.249  0.00  0.00    +0.008 A 
ATOM      7  C   UNL     1       5.916   2.145  -0.132  0.00  0.00    +0.001 A 
ATOM      8  C   UNL     1       5.954   3.403   0.444  0.00  0.00    +0.000 A 
ATOM      9  C   UNL     1       4.791   3.998   0.901  0.00  0.00    +0.001 A 
ATOM     10  C   UNL     1       3.584   3.341   0.785  0.00  0.00    +0.008 A 
ENDBRANCH   4   5
BRANCH   3  11
ATOM     11  N   UNL     1       1.119   3.457   0.028  0.00  0.00    -0.280 N 
ATOM     12  C   UNL     1       0.478   4.172   0.973  0.00  0.00    +0.214 C 
ATOM     13  O   UNL     1      -0.046   3.608   1.910  0.00  0.00    -0.276 OA
ATOM     14  C   UNL     1       0.411   5.674   0.865  0.00  0.00    +0.109 C 
ATOM     15  H   UNL     1       1.597   3.911  -0.684  0.00  0.00    +0.155 HD
ENDBRANCH   3  11
ENDBRANCH   1   3
BRANCH   1  16
ATOM     16  O   UNL     1      -1.346   2.042   0.102  0.00  0.00    -0.448 OA
BRANCH  16  18
ATOM     17  C   UNL     1      -3.023   0.957  -1.291  0.00  0.00    +0.062 C 
ATOM     18  C   UNL     1      -2.577   1.273   0.138  0.00  0.00    +0.259 C 
BRANCH  18  19
ATOM     19  C   UNL     1      -3.648   2.072   0.834  0.00  0.00    +0.261 C 
ATOM     20  O   UNL     1      -3.427   3.214   1.176  0.00  0.00    -0.271 OA
ATOM     21  N   UNL     1      -4.853   1.519   1.075  0.00  0.00    -0.237 N 
ATOM     22  C   UNL     1      -5.811   2.234   1.697  0.00  0.00    +0.306 C 
ATOM     23  O   UNL     1      -5.589   3.378   2.040  0.00  0.00    -0.252 OA
ATOM     24  N   UNL     1      -7.016   1.680   1.938  0.00  0.00    -0.302 N 
ATOM     25  C   UNL     1      -8.058   2.457   2.614  0.00  0.00    +0.129 C 
ATOM     26  H   UNL     1      -5.031   0.605   0.801  0.00  0.00    +0.159 HD
ATOM     27  H   UNL     1      -7.194   0.766   1.664  0.00  0.00    +0.150 HD
ENDBRANCH  18  19
ENDBRANCH  16  18
ENDBRANCH   1  16
TORSDOF 6
