REMARK  Name = ZINC65461356
REMARK  3 active torsions:
REMARK  status: ('A' for Active; 'I' for Inactive)
REMARK    1  A    between atoms: C_1  and  C_2
REMARK    2  A    between atoms: C_15  and  C_17
REMARK    3  A    between atoms: C_20  and  N_23
REMARK                            x       y       z     vdW  Elec       q    Type
REMARK                         _______ _______ _______ _____ _____    ______ ____
ROOT
ATOM      1  C   UNL     1      -0.018   1.503   0.010  0.00  0.00    +0.053 C 
ATOM      2  C   UNL     1       0.002  -0.004   0.002  0.00  0.00    +0.007 A 
ATOM      3  C   UNL     1      -1.021  -0.858   0.002  0.00  0.00    +0.104 A 
ATOM      4  N   UNL     1      -0.803  -2.217  -0.007  0.00  0.00    -0.296 N 
ATOM      5  C   UNL     1      -1.565  -3.391  -0.018  0.00  0.00    +0.056 A 
ATOM      6  C   UNL     1      -0.720  -4.423  -0.017  0.00  0.00    +0.081 A 
ATOM      7  N   UNL     1       0.541  -3.938  -0.017  0.00  0.00    -0.224 NA
ATOM      8  C   UNL     1       0.497  -2.639  -0.012  0.00  0.00    +0.178 A 
ATOM      9  S   UNL     1       1.404  -1.110  -0.018  0.00  0.00    -0.055 S 
ATOM     10  C   UNL     1      -1.034  -5.895  -0.003  0.00  0.00    +0.161 C 
ATOM     11  N   UNL     1      -2.111  -6.194   0.937  0.00  0.00    -0.310 N 
ATOM     12  C   UNL     1      -3.334  -5.716   0.739  0.00  0.00    +0.214 C 
ATOM     13  O   UNL     1      -4.229  -6.091   1.466  0.00  0.00    -0.276 OA
ATOM     14  C   UNL     1      -3.655  -4.734  -0.343  0.00  0.00    +0.110 C 
ATOM     15  C   UNL     1      -3.070  -3.367  -0.042  0.00  0.00    +0.077 C 
ATOM     16  H   UNL     1      -1.931  -6.749   1.712  0.00  0.00    +0.149 HD
ENDROOT
BRANCH  15  17
ATOM     17  C   UNL     1      -3.528  -2.395  -1.099  0.00  0.00    -0.038 A 
ATOM     18  C   UNL     1      -3.172  -2.594  -2.420  0.00  0.00    +0.006 A 
ATOM     19  C   UNL     1      -3.589  -1.704  -3.391  0.00  0.00    +0.028 A 
ATOM     20  C   UNL     1      -4.367  -0.609  -3.039  0.00  0.00    +0.065 A 
ATOM     21  C   UNL     1      -4.723  -0.412  -1.712  0.00  0.00    +0.028 A 
ATOM     22  C   UNL     1      -4.307  -1.308  -0.746  0.00  0.00    +0.006 A 
BRANCH  20  23
ATOM     23  N   UNL     1      -4.792   0.296  -4.022  0.00  0.00    -0.240 N 
ATOM     24  C   UNL     1      -5.544   1.400  -3.815  0.00  0.00    +0.114 A 
ATOM     25  C   UNL     1      -5.734   1.999  -5.013  0.00  0.00    +0.041 A 
ATOM     26  C   UNL     1      -5.076   1.237  -5.985  0.00  0.00    +0.135 A 
ATOM     27  N   UNL     1      -4.506   0.219  -5.391  0.00  0.00    -0.175 NA
ENDBRANCH  20  23
ENDBRANCH  15  17
TORSDOF 2
