REMARK  Name = ZINC04885647
REMARK  8 active torsions:
REMARK  status: ('A' for Active; 'I' for Inactive)
REMARK    1  A    between atoms: C_1  and  C_2
REMARK    2  A    between atoms: C_5  and  C_8
REMARK    3  A    between atoms: N_16  and  C_19
REMARK    4  A    between atoms: C_25  and  C_26
REMARK    5  A    between atoms: C_25  and  C_28
REMARK    6  A    between atoms: C_26  and  O_27
REMARK    7  A    between atoms: C_28  and  O_30
REMARK    8  A    between atoms: O_30  and  C_31
REMARK                            x       y       z     vdW  Elec       q    Type
REMARK                         _______ _______ _______ _____ _____    ______ ____
ROOT
ATOM      1  C   UNL     1       2.451   3.937  -0.001  0.00  0.00    -0.027 C 
ATOM      2  C   UNL     1       2.697   4.565   1.361  0.00  0.00    +0.077 C 
ATOM      3  C   UNL     1       1.877   5.896   1.155  0.00  0.00    +0.088 C 
ATOM      4  C   UNL     1       1.748   6.358   2.514  0.00  0.00    +0.229 C 
ATOM      5  O   UNL     1       1.746   7.505   2.907  0.00  0.00    -0.275 OA
ATOM      6  N   UNL     1       1.628   5.225   3.272  0.00  0.00    -0.210 N 
ATOM      7  C   UNL     1       1.969   4.096   2.581  0.00  0.00    +0.229 C 
ATOM      8  O   UNL     1       1.730   2.949   2.894  0.00  0.00    -0.275 OA
ATOM      9  C   UNL     1       2.360   6.352  -0.159  0.00  0.00    +0.067 C 
ATOM     10  N   UNL     1       2.366   5.080  -0.948  0.00  0.00    +0.397 N 
ATOM     11  H   UNL     1       1.503   5.010  -1.499  0.00  0.00    -0.083 HD
ATOM     12  H   UNL     1       3.176   5.067  -1.579  0.00  0.00    -0.083 HD
ENDROOT
BRANCH   1  17
ATOM     13  C   UNL     1      -2.513   0.977   0.020  0.00  0.00    +0.044 C 
ATOM     14  C   UNL     1      -1.218   1.750   0.018  0.00  0.00    -0.050 A 
ATOM     15  C   UNL     1      -0.024   1.097   0.257  0.00  0.00    +0.003 A 
ATOM     16  C   UNL     1       1.164   1.804   0.249  0.00  0.00    +0.002 A 
ATOM     17  C   UNL     1       1.156   3.165   0.008  0.00  0.00    -0.061 A 
ATOM     18  C   UNL     1      -0.039   3.819  -0.226  0.00  0.00    +0.002 A 
ATOM     19  C   UNL     1      -1.227   3.112  -0.219  0.00  0.00    +0.003 A 
ENDBRANCH   1  17
BRANCH   6  20
ATOM     20  C   UNL     1       1.215   5.222   4.612  0.00  0.00    +0.044 A 
ATOM     21  C   UNL     1       0.890   6.415   5.242  0.00  0.00    +0.024 A 
ATOM     22  C   UNL     1       0.480   6.408   6.561  0.00  0.00    +0.002 A 
ATOM     23  C   UNL     1       0.401   5.216   7.256  0.00  0.00    +0.000 A 
ATOM     24  C   UNL     1       0.729   4.026   6.632  0.00  0.00    +0.002 A 
ATOM     25  C   UNL     1       1.135   4.026   5.312  0.00  0.00    +0.024 A 
ENDBRANCH   6  20
BRANCH   9  26
ATOM     26  C   UNL     1       3.751   6.922  -0.050  0.00  0.00    +0.299 C 
ATOM     27  O   UNL     1       4.103   7.465   0.970  0.00  0.00    -0.252 OA
BRANCH  26  28
ATOM     28  O   UNL     1       4.599   6.827  -1.087  0.00  0.00    -0.469 OA
ATOM     29  C   UNL     1       5.922   7.399  -0.911  0.00  0.00    +0.280 C 
ENDBRANCH  26  28
ENDBRANCH   9  26
BRANCH   9  30
ATOM     30  C   UNL     1       1.402   7.375  -0.771  0.00  0.00    +0.155 C 
BRANCH  30  31
ATOM     31  O   UNL     1       1.763   7.611  -2.134  0.00  0.00    -0.396 OA
ATOM     32  H   UNL     1       1.197   8.252  -2.586  0.00  0.00    +0.209 HD
ENDBRANCH  30  31
ENDBRANCH   9  30
TORSDOF 6
