REMARK  Name = ZINC20294066
REMARK  4 active torsions:
REMARK  status: ('A' for Active; 'I' for Inactive)
REMARK    1  A    between atoms: C_3  and  N_19
REMARK    2  A    between atoms: C_5  and  S_7
REMARK    3  A    between atoms: S_7  and  N_10
REMARK    4  A    between atoms: C_14  and  C_16
REMARK                            x       y       z     vdW  Elec       q    Type
REMARK                         _______ _______ _______ _____ _____    ______ ____
ROOT
ATOM      1  S   UNL     1      -0.791   1.758   1.358  0.00  0.00    +0.062 S 
ATOM      2  O   UNL     1      -0.083   1.768   2.590  0.00  0.00    -0.153 OA
ATOM      3  O   UNL     1      -0.661   2.795   0.396  0.00  0.00    -0.153 OA
ENDROOT
BRANCH   1   8
ATOM      4  C   UNL     1      -4.236   1.117   3.328  0.00  0.00    +0.004 A 
ATOM      5  C   UNL     1      -5.192   1.497   2.406  0.00  0.00    +0.023 A 
ATOM      6  C   UNL     1      -4.804   1.960   1.155  0.00  0.00    +0.026 A 
ATOM      7  C   UNL     1      -3.454   2.044   0.838  0.00  0.00    +0.051 A 
ATOM      8  C   UNL     1      -2.503   1.657   1.762  0.00  0.00    +0.107 A 
ATOM      9  C   UNL     1      -2.894   1.197   3.006  0.00  0.00    +0.028 A 
BRANCH   6  10
ATOM     10  N   UNL     1      -5.768   2.345   0.221  0.00  0.00    -0.358 N 
ATOM     11  H   UNL     1      -5.459   2.712  -0.769  0.00  0.00    +0.142 HD
ATOM     12  H   UNL     1      -6.836   2.282   0.475  0.00  0.00    +0.142 HD
ENDBRANCH   6  10
ENDBRANCH   1   8
BRANCH   1  13
ATOM     13  N   UNL     1      -0.386   0.347   0.591  0.00  0.00    -0.165 NA
ATOM     14  C   UNL     1      -0.500   0.093  -0.857  0.00  0.00    +0.110 C 
ATOM     15  C   UNL     1       0.530  -1.032  -1.142  0.00  0.00    +0.019 C 
ATOM     16  C   UNL     1       0.395  -1.905   0.134  0.00  0.00    +0.031 C 
ATOM     17  C   UNL     1       0.141  -0.861   1.242  0.00  0.00    +0.165 C 
BRANCH  17  18
ATOM     18  C   UNL     1       1.431  -0.540   1.952  0.00  0.00    +0.229 C 
ATOM     19  O   UNL     1       2.131   0.367   1.556  0.00  0.00    -0.274 OA
ATOM     20  N   UNL     1       1.805  -1.260   3.028  0.00  0.00    -0.328 N 
ATOM     21  H   UNL     1       2.746  -1.025   3.547  0.00  0.00    +0.145 HD
ATOM     22  H   UNL     1       1.170  -2.083   3.388  0.00  0.00    +0.145 HD
ENDBRANCH  17  18
ENDBRANCH   1  13
TORSDOF 4
