REMARK  Name = ZINC67572213
REMARK  4 active torsions:
REMARK  status: ('A' for Active; 'I' for Inactive)
REMARK    1  A    between atoms: C_6  and  C_7
REMARK    2  A    between atoms: C_14  and  C_16
REMARK    3  A    between atoms: N_18  and  C_19
REMARK    4  A    between atoms: C_20  and  C_24
REMARK                            x       y       z     vdW  Elec       q    Type
REMARK                         _______ _______ _______ _____ _____    ______ ____
ROOT
ATOM      1  C   UNL     1      -1.269  -0.712   0.071  0.00  0.00    +0.166 C 
ATOM      2  C   UNL     1      -1.636  -1.178   1.485  0.00  0.00    +0.144 C 
ATOM      3  N   UNL     1      -2.824  -2.042   1.395  0.00  0.00    -0.289 N 
ATOM      4  C   UNL     1      -2.804  -3.146   0.424  0.00  0.00    +0.136 C 
ATOM      5  C   UNL     1      -2.380  -2.585  -0.938  0.00  0.00    +0.179 C 
ATOM      6  O   UNL     1      -1.163  -1.850  -0.787  0.00  0.00    -0.369 OA
ATOM      7  C   UNL     1      -3.898  -1.827   2.180  0.00  0.00    +0.302 C 
ATOM      8  O   UNL     1      -3.885  -0.929   2.996  0.00  0.00    -0.265 OA
ENDROOT
BRANCH   1  14
ATOM      9  C   UNL     1       0.076   1.394   0.209  0.00  0.00    +0.009 A 
ATOM     10  C   UNL     1       1.284   2.064   0.243  0.00  0.00    +0.041 A 
ATOM     11  C   UNL     1       2.471   1.355   0.175  0.00  0.00    +0.158 A 
ATOM     12  C   UNL     1       2.445  -0.029   0.073  0.00  0.00    +0.159 A 
ATOM     13  C   UNL     1       1.233  -0.696   0.039  0.00  0.00    +0.047 A 
ATOM     14  C   UNL     1       0.050   0.016   0.108  0.00  0.00    -0.015 A 
ATOM     15  F   UNL     1       3.602  -0.723   0.005  0.00  0.00    -0.202 F 
ATOM     16  F   UNL     1       3.652   2.008   0.207  0.00  0.00    -0.202 F 
ENDBRANCH   1  14
BRANCH   7  17
ATOM     17  C   UNL     1      -5.106  -2.695   2.046  0.00  0.00    +0.304 C 
ATOM     18  O   UNL     1      -5.079  -3.664   1.316  0.00  0.00    -0.265 OA
ATOM     19  N   UNL     1      -6.226  -2.403   2.736  0.00  0.00    -0.272 N 
ATOM     20  H   UNL     1      -6.248  -1.628   3.320  0.00  0.00    +0.156 HD
BRANCH  19  21
ATOM     21  C   UNL     1      -7.345  -3.207   2.612  0.00  0.00    +0.084 A 
ATOM     22  C   UNL     1      -8.577  -3.058   3.235  0.00  0.00    +0.065 A 
ATOM     23  C   UNL     1      -9.581  -4.049   2.925  0.00  0.00    +0.022 A 
ATOM     24  C   UNL     1      -9.208  -5.013   2.062  0.00  0.00    +0.048 A 
ATOM     25  S   UNL     1      -7.527  -4.582   1.668  0.00  0.00    -0.081 S 
BRANCH  22  26
ATOM     26  C   UNL     1      -8.844  -1.952   4.159  0.00  0.00    +0.244 C 
ATOM     27  O   UNL     1      -7.975  -1.134   4.398  0.00  0.00    -0.270 OA
ATOM     28  N   UNL     1     -10.053  -1.840   4.745  0.00  0.00    -0.325 N 
ATOM     29  H   UNL     1     -10.746  -2.492   4.555  0.00  0.00    +0.145 HD
ATOM     30  H   UNL     1     -10.230  -1.109   5.357  0.00  0.00    +0.145 HD
ENDBRANCH  22  26
ENDBRANCH  19  21
ENDBRANCH   7  17
TORSDOF 4
