REMARK  Name = ZINC22281345
REMARK  12 active torsions:
REMARK  status: ('A' for Active; 'I' for Inactive)
REMARK    1  A    between atoms: C_1  and  C_2
REMARK    2  A    between atoms: C_2  and  N_3
REMARK    3  A    between atoms: N_3  and  C_4
REMARK    4  A    between atoms: C_4  and  C_5
REMARK    5  A    between atoms: C_6  and  C_8
REMARK    6  A    between atoms: C_8  and  S_9
REMARK    7  A    between atoms: S_9  and  C_10
REMARK    8  A    between atoms: C_13  and  S_16
REMARK    9  A    between atoms: N_14  and  N_15
REMARK   10  A    between atoms: S_16  and  C_17
REMARK   11  A    between atoms: C_17  and  C_18
REMARK   12  A    between atoms: C_27  and  C_30
REMARK                            x       y       z     vdW  Elec       q    Type
REMARK                         _______ _______ _______ _____ _____    ______ ____
ROOT
ATOM      1  C   UNL     1       1.016  11.824   0.056  0.00  0.00    +0.209 A 
ATOM      2  N   UNL     1      -0.292  11.736   0.067  0.00  0.00    -0.120 NA
ATOM      3  N   UNL     1      -0.635  10.378   0.062  0.00  0.00    -0.120 NA
ATOM      4  C   UNL     1       0.474   9.680   0.048  0.00  0.00    +0.209 A 
ATOM      5  N   UNL     1       1.524  10.555   0.049  0.00  0.00    -0.219 N 
ENDROOT
BRANCH   5   6
ATOM      6  N   UNL     1       2.848  10.220   0.041  0.00  0.00    -0.294 N 
ATOM      7  H   UNL     1       3.148   9.161   0.036  0.00  0.00    +0.163 HD
ATOM      8  H   UNL     1       3.615  11.009   0.040  0.00  0.00    +0.163 HD
ENDBRANCH   5   6
BRANCH   1   9
ATOM      9  S   UNL     1       1.954  13.315   0.056  0.00  0.00    -0.075 S 
BRANCH   9  10
ATOM     10  C   UNL     1       0.699  14.624   0.074  0.00  0.00    +0.173 C 
BRANCH  10  12
ATOM     11  N   UNL     1       0.636  17.096   0.089  0.00  0.00    -0.301 N 
ATOM     12  C   UNL     1       1.376  15.970   0.076  0.00  0.00    +0.226 C 
ATOM     13  O   UNL     1       2.587  16.040   0.066  0.00  0.00    -0.275 OA
BRANCH  11  15
ATOM     14  C   UNL     1       1.511  18.869  -1.351  0.00  0.00    +0.024 C 
ATOM     15  C   UNL     1       1.295  18.405   0.090  0.00  0.00    +0.104 C 
ENDBRANCH  11  15
BRANCH  11  16
ATOM     16  C   UNL     1      -0.826  17.012   0.101  0.00  0.00    +0.104 C 
ATOM     17  C   UNL     1      -1.323  16.975   1.548  0.00  0.00    +0.024 C 
ENDBRANCH  11  16
ENDBRANCH  10  12
ENDBRANCH   9  10
ENDBRANCH   1   9
BRANCH   4  18
ATOM     18  S   UNL     1       0.591   7.921   0.037  0.00  0.00    -0.077 S 
BRANCH  18  19
ATOM     19  C   UNL     1      -1.136   7.367   0.050  0.00  0.00    +0.151 C 
BRANCH  19  20
ATOM     20  C   UNL     1      -1.180   5.860   0.043  0.00  0.00    +0.121 A 
ATOM     21  N   UNL     1      -2.394   5.251   0.050  0.00  0.00    -0.310 N 
ATOM     22  H   UNL     1      -3.313   5.856   0.061  0.00  0.00    +0.170 HD
ATOM     23  C   UNL     1      -2.488   3.901   0.045  0.00  0.00    +0.259 A 
ATOM     24  O   UNL     1      -3.569   3.342   0.052  0.00  0.00    -0.267 OA
ATOM     25  C   UNL     1      -1.232   3.136   0.030  0.00  0.00    +0.065 A 
ATOM     26  C   UNL     1      -1.218   1.742   0.017  0.00  0.00    +0.015 A 
ATOM     27  C   UNL     1      -0.013   1.076   0.008  0.00  0.00    +0.001 A 
ATOM     28  C   UNL     1       1.184   1.781   0.000  0.00  0.00    +0.005 A 
ATOM     29  C   UNL     1       1.192   3.157   0.007  0.00  0.00    -0.024 A 
ATOM     30  C   UNL     1      -0.017   3.856   0.022  0.00  0.00    +0.081 A 
ATOM     31  N   UNL     1      -0.056   5.212   0.029  0.00  0.00    -0.233 NA
ATOM     32  C   UNL     1       2.499   3.907  -0.001  0.00  0.00    +0.046 C 
ENDBRANCH  19  20
ENDBRANCH  18  19
ENDBRANCH   4  18
TORSDOF 9
