REMARK  Name = ZINC40468336
REMARK  10 active torsions:
REMARK  status: ('A' for Active; 'I' for Inactive)
REMARK    1  A    between atoms: C_1  and  C_2
REMARK    2  A    between atoms: C_2  and  C_3
REMARK    3  A    between atoms: C_2  and  C_4
REMARK    4  A    between atoms: C_2  and  C_5
REMARK    5  A    between atoms: C_5  and  C_7
REMARK    6  A    between atoms: C_5  and  N_22
REMARK    7  A    between atoms: C_13  and  C_16
REMARK    8  A    between atoms: C_16  and  N_17
REMARK    9  A    between atoms: N_17  and  S_18
REMARK   10  A    between atoms: S_18  and  C_21
REMARK                            x       y       z     vdW  Elec       q    Type
REMARK                         _______ _______ _______ _____ _____    ______ ____
ROOT
ATOM      1  C   UNL     1       2.052  -0.080  -1.392  0.00  0.00    +0.202 C 
ATOM      2  O   UNL     1       2.930  -0.892  -1.192  0.00  0.00    -0.277 OA
ATOM      3  N   UNL     1       2.368   1.203  -1.659  0.00  0.00    -0.303 N 
ATOM      4  C   UNL     1       1.320   2.182  -1.977  0.00  0.00    +0.108 C 
ATOM      5  C   UNL     1       1.668   2.862  -3.305  0.00  0.00    +0.019 C 
ATOM      6  C   UNL     1       3.076   3.455  -3.216  0.00  0.00    +0.008 C 
ATOM      7  C   UNL     1       4.089   2.335  -2.967  0.00  0.00    +0.022 C 
ATOM      8  C   UNL     1       3.768   1.650  -1.630  0.00  0.00    +0.112 C 
ENDROOT
BRANCH   1   9
ATOM      9  C   UNL     1       0.607  -0.505  -1.342  0.00  0.00    +0.018 C 
BRANCH   9  11
ATOM     10  C   UNL     1       0.084   1.263   0.344  0.00  0.00    +0.009 C 
ATOM     11  C   UNL     1       0.044  -0.239   0.056  0.00  0.00    -0.042 C 
ATOM     12  C   UNL     1       0.889  -0.980   1.094  0.00  0.00    +0.009 C 
ATOM     13  C   UNL     1      -1.401  -0.735   0.127  0.00  0.00    +0.009 C 
ENDBRANCH   9  11
BRANCH   9  14
ATOM     14  N   UNL     1       0.507  -1.939  -1.646  0.00  0.00    +0.386 N 
ATOM     15  H   UNL     1       0.878  -2.114  -2.568  0.00  0.00    -0.089 HD
ATOM     16  H   UNL     1       1.036  -2.464  -0.966  0.00  0.00    -0.089 HD
ATOM     17  H   UNL     1      -0.461  -2.223  -1.613  0.00  0.00    -0.089 HD
ENDBRANCH   9  14
ENDBRANCH   1   9
BRANCH   7  18
ATOM     18  C   UNL     1       5.499   2.925  -2.912  0.00  0.00    +0.110 C 
BRANCH  18  19
ATOM     19  N   UNL     1       5.849   3.478  -4.222  0.00  0.00    -0.194 NA
ATOM     20  H   UNL     1       5.322   3.247  -5.003  0.00  0.00    +0.148 HD
BRANCH  19  21
ATOM     21  S   UNL     1       7.143   4.501  -4.371  0.00  0.00    +0.027 S 
ATOM     22  O   UNL     1       7.170   4.854  -5.747  0.00  0.00    -0.158 OA
ATOM     23  O   UNL     1       6.939   5.491  -3.372  0.00  0.00    -0.158 OA
ATOM     24  C   UNL     1       8.589   3.486  -3.958  0.00  0.00    +0.214 C 
ENDBRANCH  19  21
ENDBRANCH  18  19
ENDBRANCH   7  18
TORSDOF 6
