REMARK  Name = ZINC54396245
REMARK  10 active torsions:
REMARK  status: ('A' for Active; 'I' for Inactive)
REMARK    1  A    between atoms: C_1  and  C_2
REMARK    2  A    between atoms: C_2  and  C_3
REMARK    3  A    between atoms: C_3  and  C_28
REMARK    4  A    between atoms: N_6  and  N_10
REMARK    5  A    between atoms: C_11  and  C_13
REMARK    6  A    between atoms: C_13  and  N_14
REMARK    7  A    between atoms: N_14  and  C_15
REMARK    8  A    between atoms: N_14  and  C_18
REMARK    9  A    between atoms: C_18  and  C_20
REMARK   10  A    between atoms: C_18  and  C_21
REMARK                            x       y       z     vdW  Elec       q    Type
REMARK                         _______ _______ _______ _____ _____    ______ ____
ROOT
ATOM      1  N   UNL     1       2.115  -6.289  -0.823  0.00  0.00    -0.225 N 
ATOM      2  C   UNL     1       2.754  -6.397  -2.004  0.00  0.00    +0.213 C 
ATOM      3  O   UNL     1       2.450  -7.279  -2.780  0.00  0.00    -0.276 OA
ATOM      4  H   UNL     1       2.359  -5.584  -0.202  0.00  0.00    +0.173 HD
ENDROOT
BRANCH   1   8
ATOM      5  C   UNL     1      -0.098  -8.907   0.434  0.00  0.00    +0.111 C 
ATOM      6  C   UNL     1       1.243  -8.201   0.396  0.00  0.00    +0.263 C 
ATOM      7  O   UNL     1       2.237  -8.482   1.030  0.00  0.00    -0.271 OA
ATOM      8  N   UNL     1       1.100  -7.195  -0.490  0.00  0.00    -0.137 N 
ATOM      9  C   UNL     1      -0.132  -7.169  -1.011  0.00  0.00    +0.326 C 
ATOM     10  O   UNL     1      -0.500  -6.352  -1.833  0.00  0.00    -0.251 OA
ATOM     11  N   UNL     1      -0.917  -8.146  -0.525  0.00  0.00    -0.284 N 
ATOM     12  C   UNL     1       0.044 -10.363  -0.015  0.00  0.00    +0.041 C 
ATOM     13  H   UNL     1      -1.843  -8.317  -0.760  0.00  0.00    +0.151 HD
BRANCH   5  15
ATOM     14  C   UNL     1      -2.102  -9.459   1.820  0.00  0.00    +0.006 C 
ATOM     15  C   UNL     1      -0.705  -8.835   1.837  0.00  0.00    +0.032 C 
ENDBRANCH   5  15
ENDBRANCH   1   8
BRANCH   2  16
ATOM     16  C   UNL     1       3.846  -5.423  -2.362  0.00  0.00    +0.021 C 
BRANCH  16  17
ATOM     17  N   UNL     1       4.464  -5.825  -3.634  0.00  0.00    +0.392 N 
ATOM     18  H   UNL     1       5.173  -5.154  -3.890  0.00  0.00    -0.080 HD
BRANCH  17  19
ATOM     19  C   UNL     1       3.436  -5.876  -4.682  0.00  0.00    -0.067 C 
ATOM     20  C   UNL     1       3.756  -5.202  -6.018  0.00  0.00    -0.017 C 
ATOM     21  C   UNL     1       2.747  -4.563  -5.061  0.00  0.00    -0.017 C 
ENDBRANCH  17  19
BRANCH  17  22
ATOM     22  C   UNL     1       5.076  -7.151  -3.483  0.00  0.00    -0.037 C 
ATOM     23  C   UNL     1       5.598  -7.630  -4.839  0.00  0.00    -0.008 C 
BRANCH  22  24
ATOM     24  C   UNL     1       6.221  -7.068  -2.506  0.00  0.00    -0.026 A 
ATOM     25  C   UNL     1       6.803  -5.847  -2.225  0.00  0.00    +0.005 A 
ATOM     26  C   UNL     1       7.853  -5.770  -1.329  0.00  0.00    +0.000 A 
ATOM     27  C   UNL     1       8.321  -6.915  -0.712  0.00  0.00    +0.003 A 
ATOM     28  C   UNL     1       7.740  -8.138  -0.990  0.00  0.00    +0.038 A 
ATOM     29  C   UNL     1       6.685  -8.215  -1.884  0.00  0.00    +0.125 A 
ATOM     30  F   UNL     1       6.113  -9.409  -2.154  0.00  0.00    -0.205 F 
ENDBRANCH  22  24
ENDBRANCH  17  22
ENDBRANCH  16  17
ENDBRANCH   2  16
TORSDOF 7
