REMARK  Name = ZINC60376725
REMARK  4 active torsions:
REMARK  status: ('A' for Active; 'I' for Inactive)
REMARK    1  A    between atoms: C_8  and  C_23
REMARK    2  A    between atoms: N_11  and  S_12
REMARK    3  A    between atoms: S_12  and  C_15
REMARK    4  A    between atoms: C_18  and  C_21
REMARK                            x       y       z     vdW  Elec       q    Type
REMARK                         _______ _______ _______ _____ _____    ______ ____
ROOT
ATOM      1  C   UNL     1       0.076   1.462  -0.591  0.00  0.00    +0.000 A 
ATOM      2  C   UNL     1       1.286   2.131  -0.597  0.00  0.00    +0.002 A 
ATOM      3  C   UNL     1       2.461   1.431  -0.411  0.00  0.00    +0.025 A 
ATOM      4  C   UNL     1       2.427   0.054  -0.219  0.00  0.00    +0.054 A 
ATOM      5  C   UNL     1       1.214  -0.617  -0.217  0.00  0.00    -0.024 A 
ATOM      6  C   UNL     1       0.040   0.095  -0.402  0.00  0.00    +0.005 A 
ATOM      7  C   UNL     1       1.140  -2.108  -0.023  0.00  0.00    +0.051 C 
ATOM      8  C   UNL     1       2.412  -2.625   0.648  0.00  0.00    +0.098 C 
ATOM      9  C   UNL     1       3.629  -2.103  -0.126  0.00  0.00    +0.144 C 
ATOM     10  N   UNL     1       3.629  -0.637  -0.028  0.00  0.00    -0.202 N 
ENDROOT
BRANCH   8  11
ATOM     11  C   UNL     1       2.412  -4.132   0.638  0.00  0.00    +0.215 C 
ATOM     12  O   UNL     1       3.302  -4.734   0.077  0.00  0.00    -0.276 OA
ATOM     13  N   UNL     1       1.422  -4.810   1.253  0.00  0.00    -0.329 N 
ATOM     14  H   UNL     1       0.710  -4.328   1.702  0.00  0.00    +0.145 HD
ATOM     15  H   UNL     1       1.422  -5.780   1.246  0.00  0.00    +0.145 HD
ENDBRANCH   8  11
BRANCH  10  16
ATOM     16  S   UNL     1       5.028   0.184   0.304  0.00  0.00    +0.075 S 
ATOM     17  O   UNL     1       4.649   1.378   0.975  0.00  0.00    -0.150 OA
ATOM     18  O   UNL     1       5.926  -0.758   0.874  0.00  0.00    -0.150 OA
BRANCH  16  19
ATOM     19  C   UNL     1       5.723   0.674  -1.239  0.00  0.00    +0.109 A 
ATOM     20  C   UNL     1       6.606  -0.166  -1.894  0.00  0.00    +0.030 A 
ATOM     21  C   UNL     1       7.154   0.211  -3.103  0.00  0.00    +0.021 A 
ATOM     22  C   UNL     1       6.816   1.443  -3.665  0.00  0.00    +0.052 A 
ATOM     23  C   UNL     1       5.924   2.286  -2.999  0.00  0.00    +0.021 A 
ATOM     24  C   UNL     1       5.380   1.894  -1.793  0.00  0.00    +0.030 A 
BRANCH  22  25
ATOM     25  C   UNL     1       7.381   1.841  -4.919  0.00  0.00    +0.099 C 
ATOM     26  N   UNL     1       7.830   2.157  -5.914  0.00  0.00    -0.191 NA
ENDBRANCH  22  25
ENDBRANCH  16  19
ENDBRANCH  10  16
TORSDOF 4
