REMARK  Name = ZINC59198558
REMARK  5 active torsions:
REMARK  status: ('A' for Active; 'I' for Inactive)
REMARK    1  A    between atoms: C_1  and  N_2
REMARK    2  A    between atoms: N_2  and  C_3
REMARK    3  A    between atoms: N_2  and  C_4
REMARK    4  A    between atoms: C_7  and  C_9
REMARK    5  A    between atoms: N_16  and  C_19
REMARK                            x       y       z     vdW  Elec       q    Type
REMARK                         _______ _______ _______ _____ _____    ______ ____
ROOT
ATOM      1  C   UNL     1      -0.555  -3.699  -3.105  0.00  0.00    +0.064 C 
ATOM      2  C   UNL     1      -0.143  -4.767  -2.298  0.00  0.00    +0.105 C 
ATOM      3  C   UNL     1       0.179  -4.574  -0.928  0.00  0.00    +0.274 C 
ATOM      4  O   UNL     1       0.094  -3.346  -0.371  0.00  0.00    -0.268 OA
ATOM      5  N   UNL     1       0.564  -5.612  -0.205  0.00  0.00    -0.153 NA
ATOM      6  C   UNL     1       0.660  -6.835  -0.718  0.00  0.00    +0.171 C 
ATOM      7  S   UNL     1       1.167  -8.114   0.300  0.00  0.00    -0.016 S 
ATOM      8  N   UNL     1       0.375  -7.110  -2.002  0.00  0.00    -0.216 N 
ATOM      9  C   UNL     1      -0.034  -6.130  -2.837  0.00  0.00    +0.262 C 
ATOM     10  O   UNL     1      -0.301  -6.368  -4.001  0.00  0.00    -0.269 OA
ENDROOT
BRANCH   8  11
ATOM     11  C   UNL     1       0.497  -8.422  -2.476  0.00  0.00    +0.043 A 
ATOM     12  C   UNL     1      -0.505  -9.350  -2.222  0.00  0.00    +0.025 A 
ATOM     13  C   UNL     1      -0.382 -10.643  -2.691  0.00  0.00    +0.017 A 
ATOM     14  C   UNL     1       0.738 -11.015  -3.413  0.00  0.00    +0.018 A 
ATOM     15  C   UNL     1       1.738 -10.093  -3.668  0.00  0.00    +0.017 A 
ATOM     16  C   UNL     1       1.617  -8.797  -3.206  0.00  0.00    +0.025 A 
ATOM     17 BR   UNL     1       0.903 -12.787  -4.054  0.00  0.00    -0.050 Br
ENDBRANCH   8  11
BRANCH   1  21
ATOM     18  C   UNL     1       0.392  -0.603  -1.660  0.00  0.00    +0.189 A 
ATOM     19  C   UNL     1      -0.811  -0.230  -2.231  0.00  0.00    +0.066 A 
ATOM     20  C   UNL     1      -1.333  -1.353  -2.857  0.00  0.00    +0.051 A 
ATOM     21  C   UNL     1      -0.424  -2.390  -2.647  0.00  0.00    +0.131 A 
ATOM     22  O   UNL     1       0.610  -1.900  -1.924  0.00  0.00    -0.442 OA
BRANCH  18  24
ATOM     23  C   UNL     1       0.867   1.623  -0.730  0.00  0.00    +0.132 C 
ATOM     24  N   UNL     1       1.228   0.220  -0.945  0.00  0.00    -0.308 N 
ATOM     25  C   UNL     1       2.481  -0.307  -0.398  0.00  0.00    +0.132 C 
ENDBRANCH  18  24
ENDBRANCH   1  21
TORSDOF 3
