REMARK  Name = ZINC05356062
REMARK  7 active torsions:
REMARK  status: ('A' for Active; 'I' for Inactive)
REMARK    1  A    between atoms: C_1  and  C_2
REMARK    2  A    between atoms: C_4  and  C_26
REMARK    3  A    between atoms: C_6  and  C_8
REMARK    4  A    between atoms: C_8  and  O_10
REMARK    5  A    between atoms: O_10  and  C_11
REMARK    6  A    between atoms: C_11  and  C_13
REMARK    7  A    between atoms: C_11  and  C_14
REMARK                            x       y       z     vdW  Elec       q    Type
REMARK                         _______ _______ _______ _____ _____    ______ ____
ROOT
ATOM      1  C   UNL     1       0.198  -4.232  -0.020  0.00  0.00    +0.239 C 
ATOM      2  C   UNL     1       1.613  -4.666  -0.409  0.00  0.00    +0.060 C 
ENDROOT
BRANCH   1   3
ATOM      3  C   UNL     1       0.119  -2.727  -0.012  0.00  0.00    +0.151 A 
ATOM      4  N   UNL     1      -1.110  -2.147   0.003  0.00  0.00    -0.307 N 
ATOM      5  H   UNL     1      -1.929  -2.720   0.009  0.00  0.00    +0.170 HD
ATOM      6  C   UNL     1      -1.235  -0.799   0.011  0.00  0.00    +0.259 A 
ATOM      7  O   UNL     1      -2.329  -0.266   0.024  0.00  0.00    -0.267 OA
ATOM      8  C   UNL     1       0.002  -0.004   0.002  0.00  0.00    +0.065 A 
ATOM      9  C   UNL     1      -0.017   1.389   0.010  0.00  0.00    +0.015 A 
ATOM     10  C   UNL     1       1.173   2.084   0.002  0.00  0.00    +0.001 A 
ATOM     11  C   UNL     1       2.386   1.408  -0.014  0.00  0.00    +0.002 A 
ATOM     12  C   UNL     1       2.426   0.032  -0.021  0.00  0.00    +0.028 A 
ATOM     13  C   UNL     1       1.234  -0.695  -0.013  0.00  0.00    +0.078 A 
ATOM     14  N   UNL     1       1.227  -2.051  -0.020  0.00  0.00    -0.230 NA
ENDBRANCH   1   3
BRANCH   1  15
ATOM     15  O   UNL     1      -0.117  -4.740   1.303  0.00  0.00    -0.450 OA
BRANCH  15  16
ATOM     16  C   UNL     1      -0.692  -5.957   1.369  0.00  0.00    +0.340 C 
ATOM     17  O   UNL     1      -0.924  -6.575   0.350  0.00  0.00    -0.245 OA
BRANCH  16  23
ATOM     18  C   UNL     1      -0.819  -5.615   6.346  0.00  0.00    +0.044 C 
ATOM     19  C   UNL     1      -1.104  -6.378   5.078  0.00  0.00    -0.049 A 
ATOM     20  C   UNL     1      -1.695  -7.628   5.143  0.00  0.00    +0.006 A 
ATOM     21  C   UNL     1      -1.960  -8.336   3.983  0.00  0.00    -0.049 A 
ATOM     22  C   UNL     1      -1.637  -7.798   2.755  0.00  0.00    +0.018 A 
ATOM     23  C   UNL     1      -1.041  -6.538   2.682  0.00  0.00    +0.060 A 
ATOM     24  C   UNL     1      -0.771  -5.832   3.856  0.00  0.00    +0.018 A 
ATOM     25  C   UNL     1      -2.604  -9.696   4.064  0.00  0.00    +0.044 C 
ENDBRANCH  16  23
ENDBRANCH  15  16
ENDBRANCH   1  15
TORSDOF 4
