REMARK  Name = ZINC11658815
REMARK  10 active torsions:
REMARK  status: ('A' for Active; 'I' for Inactive)
REMARK    1  A    between atoms: C_1  and  C_2
REMARK    2  A    between atoms: C_2  and  C_3
REMARK    3  A    between atoms: C_2  and  C_4
REMARK    4  A    between atoms: C_4  and  N_5
REMARK    5  A    between atoms: C_6  and  N_29
REMARK    6  A    between atoms: C_7  and  C_14
REMARK    7  A    between atoms: C_14  and  C_16
REMARK    8  A    between atoms: C_16  and  S_17
REMARK    9  A    between atoms: S_17  and  C_18
REMARK   10  A    between atoms: N_27  and  C_28
REMARK                            x       y       z     vdW  Elec       q    Type
REMARK                         _______ _______ _______ _____ _____    ______ ____
ROOT
ATOM      1  N   UNL     1      -4.237   7.561   0.182  0.00  0.00    -0.281 N 
ATOM      2  C   UNL     1      -2.913   7.225   0.179  0.00  0.00    +0.116 A 
ATOM      3  C   UNL     1      -2.556   5.871   0.059  0.00  0.00    +0.120 A 
ATOM      4  C   UNL     1      -3.637   4.883  -0.045  0.00  0.00    +0.266 A 
ATOM      5  O   UNL     1      -3.386   3.696  -0.147  0.00  0.00    -0.267 OA
ATOM      6  N   UNL     1      -4.914   5.317  -0.027  0.00  0.00    -0.274 N 
ATOM      7  H   UNL     1      -5.661   4.657  -0.098  0.00  0.00    +0.173 HD
ATOM      8  C   UNL     1      -5.194   6.626   0.084  0.00  0.00    +0.331 A 
ATOM      9  O   UNL     1      -6.358   6.976   0.096  0.00  0.00    -0.246 OA
ENDROOT
BRANCH   2  10
ATOM     10  N   UNL     1      -1.956   8.186   0.286  0.00  0.00    -0.344 N 
ATOM     11  H   UNL     1      -1.019   7.948   0.205  0.00  0.00    +0.144 HD
ATOM     12  H   UNL     1      -2.210   9.109   0.442  0.00  0.00    +0.144 HD
ENDBRANCH   2  10
BRANCH   3  13
ATOM     13  C   UNL     1      -1.202   5.473   0.046  0.00  0.00    +0.182 C 
ATOM     14  O   UNL     1      -0.323   6.311   0.033  0.00  0.00    -0.291 OA
BRANCH  13  15
ATOM     15  C   UNL     1      -0.847   4.009   0.047  0.00  0.00    +0.157 C 
BRANCH  15  16
ATOM     16  S   UNL     1       0.954   3.825   0.027  0.00  0.00    -0.080 S 
BRANCH  16  17
ATOM     17  C   UNL     1       1.082   2.067   0.032  0.00  0.00    +0.172 A 
ATOM     18  N   UNL     1      -0.017   1.362   0.046  0.00  0.00    -0.223 NA
ATOM     19  C   UNL     1       0.002  -0.004   0.051  0.00  0.00    +0.086 A 
ATOM     20  C   UNL     1      -1.085  -0.890   0.067  0.00  0.00    +0.036 A 
ATOM     21  C   UNL     1      -0.874  -2.224   0.069  0.00  0.00    +0.048 A 
ATOM     22  S   UNL     1       0.907  -2.342   0.050  0.00  0.00    -0.090 S 
ATOM     23  C   UNL     1       1.273  -0.606   0.039  0.00  0.00    +0.102 A 
ATOM     24  C   UNL     1       2.440   0.154   0.023  0.00  0.00    +0.269 A 
ATOM     25  O   UNL     1       3.536  -0.382   0.012  0.00  0.00    -0.266 OA
ATOM     26  N   UNL     1       2.326   1.504   0.019  0.00  0.00    -0.290 N 
ATOM     27  C   UNL     1       3.523   2.348   0.003  0.00  0.00    +0.154 C 
ENDBRANCH  16  17
ENDBRANCH  15  16
ENDBRANCH  13  15
ENDBRANCH   3  13
BRANCH   1  28
ATOM     28  C   UNL     1      -4.619   8.971   0.301  0.00  0.00    +0.131 C 
BRANCH  28  30
ATOM     29  C   UNL     1      -3.418   9.223   2.478  0.00  0.00    +0.009 C 
ATOM     30  C   UNL     1      -4.775   9.334   1.779  0.00  0.00    +0.003 C 
ATOM     31  C   UNL     1      -5.295  10.768   1.899  0.00  0.00    +0.009 C 
ENDBRANCH  28  30
ENDBRANCH   1  28
TORSDOF 7
