REMARK  Name = ZINC14471888
REMARK  5 active torsions:
REMARK  status: ('A' for Active; 'I' for Inactive)
REMARK    1  A    between atoms: C_4  and  C_7
REMARK    2  A    between atoms: C_7  and  N_8
REMARK    3  A    between atoms: C_9  and  C_11
REMARK    4  A    between atoms: C_18  and  C_27
REMARK    5  A    between atoms: C_31  and  N_33
REMARK                            x       y       z     vdW  Elec       q    Type
REMARK                         _______ _______ _______ _____ _____    ______ ____
ROOT
ATOM      1  C   UNL     1       4.403   5.131  -3.030  0.00  0.00    +0.058 A 
ATOM      2  C   UNL     1       3.614   4.666  -4.081  0.00  0.00    +0.015 A 
ATOM      3  C   UNL     1       3.986   4.913  -5.385  0.00  0.00    +0.001 A 
ATOM      4  C   UNL     1       5.153   5.610  -5.649  0.00  0.00    +0.006 A 
ATOM      5  C   UNL     1       5.951   6.066  -4.623  0.00  0.00    -0.019 A 
ATOM      6  C   UNL     1       5.593   5.843  -3.290  0.00  0.00    +0.044 A 
ATOM      7  N   UNL     1       6.323   6.289  -2.202  0.00  0.00    -0.336 N 
ATOM      8  C   UNL     1       7.600   6.961  -2.488  0.00  0.00    +0.105 C 
ATOM      9  C   UNL     1       7.386   7.817  -3.719  0.00  0.00    +0.029 C 
ATOM     10  C   UNL     1       7.213   6.793  -4.884  0.00  0.00    +0.049 C 
ATOM     11  C   UNL     1       7.423   7.624  -6.095  0.00  0.00    -0.023 C 
ATOM     12  C   UNL     1       8.229   8.632  -5.780  0.00  0.00    -0.030 C 
ATOM     13  C   UNL     1       8.594   8.565  -4.295  0.00  0.00    +0.033 C 
ATOM     14  H   UNL     1       6.446   5.553  -1.523  0.00  0.00    +0.147 HD
ENDROOT
BRANCH   8  15
ATOM     15  C   UNL     1       7.996   7.829  -1.321  0.00  0.00    -0.025 A 
ATOM     16  C   UNL     1       7.038   8.569  -0.653  0.00  0.00    +0.005 A 
ATOM     17  C   UNL     1       7.401   9.361   0.420  0.00  0.00    +0.003 A 
ATOM     18  C   UNL     1       8.723   9.421   0.819  0.00  0.00    +0.033 A 
ATOM     19  C   UNL     1       9.682   8.686   0.148  0.00  0.00    +0.127 A 
ATOM     20  C   UNL     1       9.318   7.890  -0.922  0.00  0.00    +0.038 A 
BRANCH  19  21
ATOM     21  N   UNL     1      11.098   8.751   0.575  0.00  0.00    +0.056 N 
ATOM     22  O   UNL     1      11.942   8.103  -0.017  0.00  0.00    -0.126 OA
ATOM     23  O   UNL     1      11.418   9.453   1.518  0.00  0.00    -0.126 OA
ENDBRANCH  19  21
ENDBRANCH   8  15
BRANCH   1  25
ATOM     24  N   UNL     1       2.858   4.194  -1.384  0.00  0.00    -0.307 N 
ATOM     25  C   UNL     1       3.994   4.873  -1.638  0.00  0.00    +0.246 C 
ATOM     26  O   UNL     1       4.681   5.272  -0.718  0.00  0.00    -0.270 OA
ATOM     27  H   UNL     1       2.309   3.875  -2.118  0.00  0.00    +0.149 HD
BRANCH  24  28
ATOM     28  C   UNL     1       2.451   3.937  -0.001  0.00  0.00    +0.139 C 
BRANCH  28  32
ATOM     29  C   UNL     1      -1.219   1.751   0.017  0.00  0.00    +0.000 A 
ATOM     30  C   UNL     1      -0.013   1.076   0.008  0.00  0.00    +0.000 A 
ATOM     31  C   UNL     1       1.175   1.783   0.000  0.00  0.00    +0.005 A 
ATOM     32  C   UNL     1       1.156   3.165   0.008  0.00  0.00    -0.030 A 
ATOM     33  C   UNL     1      -0.050   3.840   0.023  0.00  0.00    +0.005 A 
ATOM     34  C   UNL     1      -1.238   3.133   0.030  0.00  0.00    +0.000 A 
ENDBRANCH  28  32
ENDBRANCH  24  28
ENDBRANCH   1  25
TORSDOF 5
