REMARK  Name = ZINC39693502
REMARK  11 active torsions:
REMARK  status: ('A' for Active; 'I' for Inactive)
REMARK    1  A    between atoms: C_1  and  C_2
REMARK    2  A    between atoms: C_7  and  C_8
REMARK    3  A    between atoms: C_12  and  C_21
REMARK    4  A    between atoms: N_23  and  C_24
REMARK    5  A    between atoms: C_24  and  C_25
REMARK    6  A    between atoms: C_25  and  N_26
REMARK    7  A    between atoms: C_27  and  O_29
REMARK    8  A    between atoms: O_29  and  C_30
REMARK    9  A    between atoms: C_30  and  C_31
REMARK   10  A    between atoms: C_30  and  C_32
REMARK   11  A    between atoms: C_30  and  C_33
REMARK                            x       y       z     vdW  Elec       q    Type
REMARK                         _______ _______ _______ _____ _____    ______ ____
ROOT
ATOM      1  C   UNL     1       0.117   0.200   2.410  0.00  0.00    +0.247 C 
ATOM      2  O   UNL     1      -0.025   1.407   2.355  0.00  0.00    -0.270 OA
ATOM      3  N   UNL     1       0.321  -0.401   3.599  0.00  0.00    -0.296 N 
ATOM      4  C   UNL     1       0.601  -1.833   3.856  0.00  0.00    +0.121 C 
ATOM      5  C   UNL     1       1.656  -1.828   4.985  0.00  0.00    +0.100 C 
ATOM      6  C   UNL     1       1.462  -0.479   5.697  0.00  0.00    -0.004 C 
ATOM      7  C   UNL     1       0.322   0.222   4.944  0.00  0.00    +0.115 C 
ATOM      8  C   UNL     1       2.736   0.355   5.606  0.00  0.00    -0.010 C 
ATOM      9  C   UNL     1       2.538   1.667   6.369  0.00  0.00    -0.082 C 
ATOM     10  N   UNL     1       2.219   1.376   7.772  0.00  0.00    +0.379 N 
ATOM     11  C   UNL     1       0.944   0.654   7.856  0.00  0.00    -0.082 C 
ATOM     12  C   UNL     1       1.075  -0.701   7.156  0.00  0.00    -0.010 C 
ATOM     13  H   UNL     1       2.952   0.809   8.171  0.00  0.00    -0.086 HD
ATOM     14  H   UNL     1       2.149   2.241   8.286  0.00  0.00    -0.086 HD
ENDROOT
BRANCH   1  21
ATOM     15  C   UNL     1      -2.146   0.460   0.627  0.00  0.00    +0.044 C 
ATOM     16  C   UNL     1      -1.021  -0.490   0.304  0.00  0.00    -0.038 A 
ATOM     17  C   UNL     1      -1.062  -1.241  -0.852  0.00  0.00    +0.007 A 
ATOM     18  C   UNL     1      -0.031  -2.113  -1.151  0.00  0.00    +0.038 A 
ATOM     19  C   UNL     1       1.049  -2.239  -0.291  0.00  0.00    +0.124 A 
ATOM     20  C   UNL     1       1.101  -1.493   0.870  0.00  0.00    +0.051 A 
ATOM     21  C   UNL     1       0.066  -0.607   1.172  0.00  0.00    +0.043 A 
ATOM     22  F   UNL     1       2.052  -3.094  -0.589  0.00  0.00    -0.205 F 
ENDBRANCH   1  21
BRANCH   5  23
ATOM     23  C   UNL     1       1.408  -2.968   5.939  0.00  0.00    +0.218 C 
ATOM     24  O   UNL     1       0.274  -3.325   6.176  0.00  0.00    -0.275 OA
ATOM     25  N   UNL     1       2.447  -3.590   6.530  0.00  0.00    -0.314 N 
ATOM     26  H   UNL     1       3.355  -3.305   6.341  0.00  0.00    +0.149 HD
BRANCH  25  27
ATOM     27  C   UNL     1       2.207  -4.698   7.458  0.00  0.00    +0.123 C 
BRANCH  27  28
ATOM     28  C   UNL     1       3.544  -5.223   7.983  0.00  0.00    +0.126 C 
BRANCH  28  29
ATOM     29  N   UNL     1       3.304  -6.331   8.911  0.00  0.00    -0.280 N 
ATOM     30  C   UNL     1       4.343  -6.954   9.502  0.00  0.00    +0.401 C 
ATOM     31  O   UNL     1       5.480  -6.596   9.264  0.00  0.00    -0.226 OA
ATOM     32  H   UNL     1       2.396  -6.617   9.100  0.00  0.00    +0.152 HD
BRANCH  30  33
ATOM     33  O   UNL     1       4.122  -7.972  10.354  0.00  0.00    -0.445 OA
BRANCH  33  34
ATOM     34  C   UNL     1       5.270  -8.585  10.944  0.00  0.00    +0.107 C 
ATOM     35  C   UNL     1       6.052  -7.542  11.744  0.00  0.00    +0.055 C 
ATOM     36  C   UNL     1       4.823  -9.713  11.876  0.00  0.00    +0.055 C 
ATOM     37  C   UNL     1       6.164  -9.158   9.842  0.00  0.00    +0.055 C 
ENDBRANCH  33  34
ENDBRANCH  30  33
ENDBRANCH  28  29
ENDBRANCH  27  28
ENDBRANCH  25  27
ENDBRANCH   5  23
TORSDOF 7
