REMARK  Name = ZINC14279122
REMARK  6 active torsions:
REMARK  status: ('A' for Active; 'I' for Inactive)
REMARK    1  A    between atoms: C_1  and  O_2
REMARK    2  A    between atoms: O_2  and  C_3
REMARK    3  A    between atoms: C_4  and  C_11
REMARK    4  A    between atoms: C_12  and  C_13
REMARK    5  A    between atoms: N_15  and  C_16
REMARK    6  A    between atoms: C_17  and  C_25
REMARK                            x       y       z     vdW  Elec       q    Type
REMARK                         _______ _______ _______ _____ _____    ______ ____
ROOT
ATOM      1  C   UNL     1       4.888   4.264  -0.019  0.00  0.00    +0.241 C 
ATOM      2  O   UNL     1       5.950   3.670  -0.032  0.00  0.00    -0.270 OA
ATOM      3  N   UNL     1       4.870   5.612  -0.011  0.00  0.00    -0.276 N 
ATOM      4  H   UNL     1       4.023   6.086  -0.001  0.00  0.00    +0.156 HD
ENDROOT
BRANCH   3   5
ATOM      5  C   UNL     1       6.059   6.321  -0.018  0.00  0.00    +0.085 A 
ATOM      6  C   UNL     1       6.244   7.697  -0.017  0.00  0.00    +0.068 A 
ATOM      7  C   UNL     1       7.611   8.190  -0.021  0.00  0.00    -0.023 A 
ATOM      8  C   UNL     1       8.567   7.237  -0.036  0.00  0.00    -0.004 A 
ATOM      9  S   UNL     1       7.679   5.705  -0.037  0.00  0.00    -0.077 S 
ATOM     10  C   UNL     1      10.050   7.444  -0.049  0.00  0.00    +0.043 C 
ATOM     11  C   UNL     1      10.330   8.908  -0.421  0.00  0.00    +0.005 C 
ATOM     12  C   UNL     1       9.434   9.813   0.430  0.00  0.00    +0.005 C 
ATOM     13  C   UNL     1       7.978   9.669  -0.014  0.00  0.00    +0.037 C 
BRANCH   6  14
ATOM     14  C   UNL     1       5.103   8.617  -0.009  0.00  0.00    +0.244 C 
ATOM     15  O   UNL     1       4.636   8.998   1.048  0.00  0.00    -0.270 OA
ATOM     16  N   UNL     1       4.571   9.041  -1.173  0.00  0.00    -0.325 N 
ATOM     17  H   UNL     1       4.943   8.737  -2.015  0.00  0.00    +0.145 HD
ATOM     18  H   UNL     1       3.816   9.650  -1.167  0.00  0.00    +0.145 HD
ENDBRANCH   6  14
ENDBRANCH   3   5
BRANCH   1  20
ATOM     19  C   UNL     1       3.650   2.167  -0.020  0.00  0.00    +0.016 C 
ATOM     20  C   UNL     1       3.632   3.517  -0.012  0.00  0.00    +0.068 C 
BRANCH  19  22
ATOM     21  C   UNL     1       2.401   0.011  -0.021  0.00  0.00    +0.141 A 
ATOM     22  C   UNL     1       2.387   1.415  -0.013  0.00  0.00    +0.019 A 
ATOM     23  C   UNL     1       1.164   2.094   0.002  0.00  0.00    +0.027 A 
ATOM     24  C   UNL     1      -0.017   1.382   0.010  0.00  0.00    +0.020 A 
ATOM     25  C   UNL     1       0.002  -0.004   0.002  0.00  0.00    +0.034 A 
ATOM     26  C   UNL     1       1.204  -0.688  -0.014  0.00  0.00    +0.061 A 
ATOM     27 BR   UNL     1       1.214  -2.579  -0.025  0.00  0.00    -0.046 Br
ATOM     28 BR   UNL     1      -1.669   2.300   0.022  0.00  0.00    -0.050 Br
BRANCH  21  30
ATOM     29  C   UNL     1       4.133  -0.972  -1.317  0.00  0.00    +0.277 C 
ATOM     30  O   UNL     1       3.581  -0.659  -0.036  0.00  0.00    -0.493 OA
ENDBRANCH  21  30
ENDBRANCH  19  22
ENDBRANCH   1  20
TORSDOF 5
