REMARK  Name = ZINC16577724
REMARK  10 active torsions:
REMARK  status: ('A' for Active; 'I' for Inactive)
REMARK    1  A    between atoms: C_1  and  C_2
REMARK    2  A    between atoms: C_2  and  C_24
REMARK    3  A    between atoms: C_4  and  N_11
REMARK    4  A    between atoms: C_7  and  C_9
REMARK    5  A    between atoms: C_7  and  C_10
REMARK    6  A    between atoms: N_14  and  C_15
REMARK    7  A    between atoms: C_19  and  N_21
REMARK    8  A    between atoms: C_24  and  N_25
REMARK    9  A    between atoms: N_28  and  C_29
REMARK   10  A    between atoms: C_33  and  N_35
REMARK                            x       y       z     vdW  Elec       q    Type
REMARK                         _______ _______ _______ _____ _____    ______ ____
ROOT
ATOM      1  C   UNL     1      -0.185   1.163  -0.002  0.00  0.00    +0.013 C 
ATOM      2  C   UNL     1      -0.117  -0.342  -0.279  0.00  0.00    -0.014 C 
ATOM      3  C   UNL     1       0.432  -0.590  -1.680  0.00  0.00    +0.030 C 
ATOM      4  C   UNL     1       1.928  -0.290  -1.736  0.00  0.00    +0.076 C 
ATOM      5  C   UNL     1       2.656  -1.226  -0.775  0.00  0.00    +0.028 C 
ATOM      6  C   UNL     1       2.188  -1.001   0.658  0.00  0.00    -0.033 C 
ATOM      7  C   UNL     1       0.677  -1.060   0.795  0.00  0.00    +0.014 C 
ATOM      8  C   UNL     1       2.738   0.327   1.187  0.00  0.00    +0.011 C 
ATOM      9  C   UNL     1       2.789  -2.127   1.529  0.00  0.00    +0.011 C 
ENDROOT
BRANCH   4  10
ATOM     10  N   UNL     1       2.414  -0.530  -3.102  0.00  0.00    -0.296 N 
ATOM     11  C   UNL     1       3.515   0.109  -3.547  0.00  0.00    +0.304 C 
ATOM     12  O   UNL     1       4.104   0.883  -2.818  0.00  0.00    -0.253 OA
ATOM     13  N   UNL     1       3.961  -0.111  -4.799  0.00  0.00    -0.269 N 
ATOM     14  H   UNL     1       1.944  -1.148  -3.683  0.00  0.00    +0.151 HD
ATOM     15  H   UNL     1       3.531  -0.778  -5.357  0.00  0.00    +0.156 HD
BRANCH  13  16
ATOM     16  C   UNL     1       5.045   0.623  -5.295  0.00  0.00    +0.037 A 
ATOM     17  C   UNL     1       6.088   0.979  -4.451  0.00  0.00    +0.023 A 
ATOM     18  C   UNL     1       7.156   1.703  -4.943  0.00  0.00    +0.004 A 
ATOM     19  C   UNL     1       7.188   2.073  -6.275  0.00  0.00    +0.033 A 
ATOM     20  C   UNL     1       6.150   1.720  -7.118  0.00  0.00    +0.128 A 
ATOM     21  C   UNL     1       5.082   0.991  -6.633  0.00  0.00    +0.056 A 
BRANCH  20  22
ATOM     22  N   UNL     1       6.187   2.118  -8.543  0.00  0.00    +0.056 N 
ATOM     23  O   UNL     1       7.124   2.752  -8.970  0.00  0.00    -0.126 OA
ATOM     24  O   UNL     1       5.280   1.810  -9.281  0.00  0.00    -0.126 OA
ENDBRANCH  20  22
ENDBRANCH  13  16
ENDBRANCH   4  10
BRANCH   2  25
ATOM     25  C   UNL     1      -1.564  -0.881  -0.242  0.00  0.00    +0.112 C 
BRANCH  25  26
ATOM     26  N   UNL     1      -2.364  -0.205  -1.266  0.00  0.00    -0.299 N 
ATOM     27  C   UNL     1      -3.667  -0.517  -1.419  0.00  0.00    +0.304 C 
ATOM     28  O   UNL     1      -4.178  -1.359  -0.707  0.00  0.00    -0.253 OA
ATOM     29  N   UNL     1      -4.402   0.105  -2.361  0.00  0.00    -0.269 N 
ATOM     30  H   UNL     1      -1.956   0.467  -1.835  0.00  0.00    +0.150 HD
ATOM     31  H   UNL     1      -3.979   0.722  -2.978  0.00  0.00    +0.156 HD
BRANCH  29  32
ATOM     32  C   UNL     1      -5.777  -0.139  -2.450  0.00  0.00    +0.037 A 
ATOM     33  C   UNL     1      -6.514  -0.395  -1.300  0.00  0.00    +0.023 A 
ATOM     34  C   UNL     1      -7.871  -0.635  -1.391  0.00  0.00    +0.004 A 
ATOM     35  C   UNL     1      -8.496  -0.621  -2.624  0.00  0.00    +0.033 A 
ATOM     36  C   UNL     1      -7.766  -0.367  -3.770  0.00  0.00    +0.128 A 
ATOM     37  C   UNL     1      -6.409  -0.120  -3.686  0.00  0.00    +0.056 A 
BRANCH  36  38
ATOM     38  N   UNL     1      -8.439  -0.354  -5.088  0.00  0.00    +0.056 N 
ATOM     39  O   UNL     1      -9.627  -0.565  -5.162  0.00  0.00    -0.126 OA
ATOM     40  O   UNL     1      -7.801  -0.132  -6.091  0.00  0.00    -0.126 OA
ENDBRANCH  36  38
ENDBRANCH  29  32
ENDBRANCH  25  26
ENDBRANCH   2  25
TORSDOF 7
