REMARK  Name = ZINC36587639
REMARK  17 active torsions:
REMARK  status: ('A' for Active; 'I' for Inactive)
REMARK    1  A    between atoms: C_1  and  C_2
REMARK    2  A    between atoms: C_2  and  C_3
REMARK    3  A    between atoms: C_2  and  C_4
REMARK    4  A    between atoms: C_2  and  N_5
REMARK    5  A    between atoms: C_6  and  C_8
REMARK    6  A    between atoms: C_8  and  C_10
REMARK    7  A    between atoms: C_8  and  N_19
REMARK    8  A    between atoms: C_11  and  O_18
REMARK    9  A    between atoms: C_13  and  O_17
REMARK   10  A    between atoms: C_15  and  O_16
REMARK   11  A    between atoms: N_19  and  C_25
REMARK   12  A    between atoms: C_20  and  C_22
REMARK   13  A    between atoms: C_22  and  C_23
REMARK   14  A    between atoms: C_23  and  S_24
REMARK   15  A    between atoms: C_25  and  C_26
REMARK   16  A    between atoms: C_25  and  C_27
REMARK   17  A    between atoms: C_25  and  C_28
REMARK                            x       y       z     vdW  Elec       q    Type
REMARK                         _______ _______ _______ _____ _____    ______ ____
ROOT
ATOM      1  C   UNL     1       2.511  -1.109  -0.748  0.00  0.00    +0.200 C 
ENDROOT
BRANCH   1   2
ATOM      2  C   UNL     1       1.137  -0.686  -1.200  0.00  0.00    +0.065 A 
ATOM      3  C   UNL     1       0.903   0.630  -1.569  0.00  0.00    +0.129 A 
ATOM      4  C   UNL     1      -0.361   1.019  -1.985  0.00  0.00    +0.091 A 
ATOM      5  C   UNL     1      -1.391   0.092  -2.034  0.00  0.00    +0.124 A 
ATOM      6  C   UNL     1      -1.157  -1.225  -1.666  0.00  0.00    +0.091 A 
ATOM      7  C   UNL     1       0.108  -1.615  -1.254  0.00  0.00    +0.129 A 
BRANCH   7   8
ATOM      8  O   UNL     1       0.339  -2.906  -0.898  0.00  0.00    -0.506 OA
ATOM      9  H   UNL     1       0.190  -3.088   0.040  0.00  0.00    +0.292 HD
ENDBRANCH   7   8
BRANCH   5  10
ATOM     10  O   UNL     1      -2.630   0.473  -2.441  0.00  0.00    -0.507 OA
ATOM     11  H   UNL     1      -2.774   0.389  -3.393  0.00  0.00    +0.292 HD
ENDBRANCH   5  10
BRANCH   3  12
ATOM     12  O   UNL     1       1.913   1.538  -1.521  0.00  0.00    -0.506 OA
ATOM     13  H   UNL     1       2.461   1.559  -2.317  0.00  0.00    +0.292 HD
ENDBRANCH   3  12
ENDBRANCH   1   2
BRANCH   1  15
ATOM     14  N   UNL     1       1.682  -0.852   1.569  0.00  0.00    -0.309 N 
ATOM     15  C   UNL     1       2.703  -0.728   0.698  0.00  0.00    +0.239 C 
ATOM     16  O   UNL     1       3.777  -0.310   1.077  0.00  0.00    -0.273 OA
ATOM     17  H   UNL     1       0.824  -1.186   1.265  0.00  0.00    +0.149 HD
BRANCH  14  19
ATOM     18  C   UNL     1       2.256   0.997   3.064  0.00  0.00    +0.031 C 
ATOM     19  C   UNL     1       1.869  -0.481   2.974  0.00  0.00    +0.026 C 
ATOM     20  C   UNL     1       2.981  -1.337   3.583  0.00  0.00    +0.031 C 
ATOM     21  C   UNL     1       0.566  -0.715   3.741  0.00  0.00    +0.031 C 
ENDBRANCH  14  19
ENDBRANCH   1  15
BRANCH   1  22
ATOM     22  N   UNL     1       3.523  -0.440  -1.568  0.00  0.00    -0.281 N 
ATOM     23  C   UNL     1       3.553  -0.643  -2.900  0.00  0.00    +0.218 C 
ATOM     24  O   UNL     1       2.560  -1.032  -3.477  0.00  0.00    -0.276 OA
BRANCH  22  25
ATOM     25  C   UNL     1       4.503   0.451  -0.941  0.00  0.00    +0.030 C 
ATOM     26  C   UNL     1       5.516  -0.380  -0.152  0.00  0.00    +0.031 C 
ATOM     27  C   UNL     1       5.231   1.251  -2.023  0.00  0.00    +0.031 C 
ATOM     28  C   UNL     1       3.784   1.413   0.007  0.00  0.00    +0.031 C 
ENDBRANCH  22  25
BRANCH  23  29
ATOM     29  C   UNL     1       4.822  -0.389  -3.673  0.00  0.00    +0.106 C 
BRANCH  29  30
ATOM     30  C   UNL     1       4.752  -1.109  -5.021  0.00  0.00    +0.075 C 
BRANCH  30  31
ATOM     31  S   UNL     1       6.279  -0.803  -5.951  0.00  0.00    -0.178 S 
ATOM     32  H   UNL     1       6.100  -1.478  -7.100  0.00  0.00    +0.102 HD
ENDBRANCH  30  31
ENDBRANCH  29  30
ENDBRANCH  23  29
ENDBRANCH   1  22
TORSDOF 11
