REMARK  Name = ZINC01760795
REMARK  0 active torsions:
REMARK  status: ('A' for Active; 'I' for Inactive)
REMARK                            x       y       z     vdW  Elec       q    Type
REMARK                         _______ _______ _______ _____ _____    ______ ____
ROOT
ATOM      1  C   UNL     1      -0.013   1.076   0.008  0.00  0.00    +0.261 A 
ATOM      2  C   UNL     1       1.050   1.868   0.002  0.00  0.00    +0.236 A 
ATOM      3  O   UNL     1       0.619   3.153   0.013  0.00  0.00    -0.379 OA
ATOM      4  C   UNL     1      -0.724   3.139   0.025  0.00  0.00    +0.522 A 
ATOM      5  O   UNL     1      -1.450   4.114   0.037  0.00  0.00    -0.202 OA
ATOM      6  O   UNL     1      -1.121   1.857   0.017  0.00  0.00    -0.398 OA
ATOM      7 CL   UNL     1       2.706   1.349  -0.017  0.00  0.00    -0.040 Cl
ENDROOT
TORSDOF 0
