REMARK  Name = ZINC16855270
REMARK  4 active torsions:
REMARK  status: ('A' for Active; 'I' for Inactive)
REMARK    1  A    between atoms: C_1  and  C_2
REMARK    2  A    between atoms: C_2  and  C_3
REMARK    3  A    between atoms: C_3  and  C_4
REMARK    4  A    between atoms: C_5  and  C_25
REMARK                            x       y       z     vdW  Elec       q    Type
REMARK                         _______ _______ _______ _____ _____    ______ ____
ROOT
ATOM      1  C   UNL     1       0.002  -0.004   0.002  0.00  0.00    +0.038 A 
ATOM      2  C   UNL     1       1.206  -0.646  -0.013  0.00  0.00    +0.050 A 
ATOM      3  N   UNL     1       2.337   0.055  -0.019  0.00  0.00    -0.221 NA
ATOM      4  C   UNL     1       2.327   1.372  -0.012  0.00  0.00    +0.202 A 
ATOM      5  N   UNL     1       1.158   2.067   0.002  0.00  0.00    -0.295 N 
ATOM      6  H   UNL     1       1.169   3.037   0.007  0.00  0.00    +0.172 HD
ATOM      7  C   UNL     1      -0.017   1.403   0.010  0.00  0.00    +0.256 A 
ATOM      8  O   UNL     1      -1.075   2.010   0.018  0.00  0.00    -0.267 OA
ATOM      9  N   UNL     1       3.519   2.056  -0.020  0.00  0.00    -0.255 N 
ATOM     10  C   UNL     1       4.708   1.366  -0.035  0.00  0.00    +0.202 A 
ATOM     11  N   UNL     1       5.881   2.053  -0.048  0.00  0.00    -0.295 N 
ATOM     12  H   UNL     1       5.879   3.023  -0.044  0.00  0.00    +0.172 HD
ATOM     13  C   UNL     1       7.047   1.376  -0.063  0.00  0.00    +0.256 A 
ATOM     14  O   UNL     1       8.110   1.975  -0.069  0.00  0.00    -0.267 OA
ATOM     15  C   UNL     1       7.021  -0.035  -0.077  0.00  0.00    +0.038 A 
ATOM     16  C   UNL     1       5.821  -0.669  -0.059  0.00  0.00    +0.053 A 
ATOM     17  N   UNL     1       4.692   0.052  -0.042  0.00  0.00    -0.220 NA
ATOM     18  C   UNL     1       5.694  -2.170  -0.049  0.00  0.00    +0.056 C 
ATOM     19  C   UNL     1       6.997  -2.822  -0.507  0.00  0.00    +0.006 C 
ATOM     20  C   UNL     1       8.150  -2.224   0.307  0.00  0.00    +0.005 C 
ATOM     21  C   UNL     1       8.334  -0.768  -0.118  0.00  0.00    +0.042 C 
ATOM     22  C   UNL     1       1.254  -2.153  -0.021  0.00  0.00    +0.066 C 
ATOM     23  H   UNL     1       3.522   3.026  -0.015  0.00  0.00    +0.158 HD
ENDROOT
BRANCH   1  24
ATOM     24  C   UNL     1      -1.285  -0.788   0.011  0.00  0.00    +0.042 C 
BRANCH  24  26
ATOM     25  C   UNL     1      -3.078  -1.749   1.460  0.00  0.00    +0.004 C 
ATOM     26  C   UNL     1      -1.772  -0.954   1.452  0.00  0.00    +0.001 C 
ENDBRANCH  24  26
ENDBRANCH   1  24
TORSDOF 2
