REMARK  Name = ZINC67020542
REMARK  5 active torsions:
REMARK  status: ('A' for Active; 'I' for Inactive)
REMARK    1  A    between atoms: C_1  and  C_2
REMARK    2  A    between atoms: C_2  and  C_3
REMARK    3  A    between atoms: C_2  and  N_4
REMARK    4  A    between atoms: N_4  and  C_5
REMARK    5  A    between atoms: C_13  and  C_15
REMARK                            x       y       z     vdW  Elec       q    Type
REMARK                         _______ _______ _______ _____ _____    ______ ____
ROOT
ATOM      1  N   UNL     1      -2.099   0.511  -0.470  0.00  0.00    -0.265 N 
ATOM      2  C   UNL     1      -2.277   0.290   0.848  0.00  0.00    +0.255 C 
ATOM      3  O   UNL     1      -2.946  -0.654   1.221  0.00  0.00    -0.269 OA
ENDROOT
BRANCH   2   4
ATOM      4  C   UNL     1      -1.659   1.194   1.837  0.00  0.00    +0.081 A 
ATOM      5  C   UNL     1      -0.303   1.522   1.741  0.00  0.00    +0.017 A 
ATOM      6  C   UNL     1       0.271   2.366   2.666  0.00  0.00    +0.003 A 
ATOM      7  C   UNL     1      -0.488   2.896   3.698  0.00  0.00    +0.027 A 
ATOM      8  C   UNL     1      -1.831   2.580   3.806  0.00  0.00    +0.076 A 
ATOM      9  C   UNL     1      -2.427   1.732   2.874  0.00  0.00    +0.154 A 
ATOM     10  O   UNL     1      -3.745   1.432   2.988  0.00  0.00    -0.480 OA
ATOM     11  C   UNL     1      -4.278   1.368   4.314  0.00  0.00    +0.325 C 
ATOM     12  C   UNL     1      -3.816   2.567   5.103  0.00  0.00    +0.255 C 
ATOM     13  O   UNL     1      -4.522   3.031   5.973  0.00  0.00    -0.272 OA
ATOM     14  N   UNL     1      -2.610   3.110   4.846  0.00  0.00    -0.280 N 
ATOM     15  H   UNL     1      -2.292   3.866   5.364  0.00  0.00    +0.155 HD
ENDBRANCH   2   4
BRANCH   1  16
ATOM     16  C   UNL     1      -3.128   0.220  -1.373  0.00  0.00    +0.038 A 
ATOM     17  C   UNL     1      -3.007   0.586  -2.707  0.00  0.00    +0.025 A 
ATOM     18  C   UNL     1      -4.023   0.298  -3.596  0.00  0.00    +0.023 A 
ATOM     19  C   UNL     1      -5.162  -0.355  -3.160  0.00  0.00    +0.059 A 
ATOM     20  C   UNL     1      -5.286  -0.721  -1.830  0.00  0.00    +0.061 A 
ATOM     21  C   UNL     1      -4.269  -0.440  -0.937  0.00  0.00    +0.045 A 
ATOM     22 CL   UNL     1      -6.717  -1.539  -1.285  0.00  0.00    -0.082 Cl
ATOM     23 CL   UNL     1      -6.438  -0.714  -4.280  0.00  0.00    -0.082 Cl
ENDBRANCH   1  16
BRANCH   1  25
ATOM     24  C   UNL     1      -0.504   2.345  -0.199  0.00  0.00    +0.028 C 
ATOM     25  C   UNL     1      -0.830   1.057  -0.957  0.00  0.00    +0.076 C 
ATOM     26  C   UNL     1       0.285   0.035  -0.728  0.00  0.00    +0.028 C 
ENDBRANCH   1  25
TORSDOF 3
