REMARK  Name = ZINC21846347
REMARK  6 active torsions:
REMARK  status: ('A' for Active; 'I' for Inactive)
REMARK    1  A    between atoms: C_3  and  C_6
REMARK    2  A    between atoms: C_9  and  S_12
REMARK    3  A    between atoms: N_10  and  N_11
REMARK    4  A    between atoms: S_12  and  C_13
REMARK    5  A    between atoms: C_13  and  C_14
REMARK    6  A    between atoms: C_20  and  C_22
REMARK                            x       y       z     vdW  Elec       q    Type
REMARK                         _______ _______ _______ _____ _____    ______ ____
ROOT
ATOM      1  S   UNL     1       1.378   1.661  -2.861  0.00  0.00    -0.075 S 
ENDROOT
BRANCH   1   5
ATOM      2  C   UNL     1      -2.089   1.770  -1.058  0.00  0.00    +0.217 A 
ATOM      3  N   UNL     1      -2.374   2.216  -2.262  0.00  0.00    -0.123 NA
ATOM      4  N   UNL     1      -1.312   2.233  -2.986  0.00  0.00    -0.120 NA
ATOM      5  C   UNL     1      -0.283   1.805  -2.290  0.00  0.00    +0.209 A 
ATOM      6  N   UNL     1      -0.741   1.490  -1.041  0.00  0.00    -0.221 N 
BRANCH   2   9
ATOM      7  C   UNL     1      -4.825   1.724   1.369  0.00  0.00    +0.042 A 
ATOM      8  C   UNL     1      -4.283   2.139   0.137  0.00  0.00    +0.053 A 
ATOM      9  C   UNL     1      -3.032   1.603   0.059  0.00  0.00    +0.173 A 
ATOM     10  O   UNL     1      -2.812   0.890   1.180  0.00  0.00    -0.460 OA
ATOM     11  C   UNL     1      -3.891   0.966   1.976  0.00  0.00    +0.196 A 
ENDBRANCH   2   9
BRANCH   6  12
ATOM     12  N   UNL     1      -0.012   1.005   0.008  0.00  0.00    -0.294 N 
ATOM     13  H   UNL     1       1.067   0.823  -0.110  0.00  0.00    +0.163 HD
ATOM     14  H   UNL     1      -0.503   0.796   0.969  0.00  0.00    +0.163 HD
ENDBRANCH   6  12
ENDBRANCH   1   5
BRANCH   1  15
ATOM     15  C   UNL     1       1.178   2.252  -4.560  0.00  0.00    +0.173 C 
BRANCH  15  16
ATOM     16  C   UNL     1       2.510   2.217  -5.264  0.00  0.00    +0.226 C 
ATOM     17  O   UNL     1       3.497   1.829  -4.675  0.00  0.00    -0.275 OA
ATOM     18  N   UNL     1       2.604   2.615  -6.548  0.00  0.00    -0.293 N 
ATOM     19  C   UNL     1       1.489   3.100  -7.381  0.00  0.00    +0.108 C 
ATOM     20  C   UNL     1       1.935   2.835  -8.838  0.00  0.00    +0.021 C 
ATOM     21  C   UNL     1       3.456   3.134  -8.761  0.00  0.00    +0.029 C 
ATOM     22  C   UNL     1       3.835   2.632  -7.352  0.00  0.00    +0.113 C 
BRANCH  22  23
ATOM     23  C   UNL     1       4.842   3.564  -6.729  0.00  0.00    +0.010 A 
ATOM     24  C   UNL     1       6.185   3.422  -6.621  0.00  0.00    +0.013 A 
ATOM     25  C   UNL     1       6.918   4.418  -6.003  0.00  0.00    +0.008 A 
ATOM     26  C   UNL     1       6.271   5.508  -5.522  0.00  0.00    +0.045 A 
ATOM     27  S   UNL     1       4.574   5.147  -5.947  0.00  0.00    -0.100 S 
ENDBRANCH  22  23
ENDBRANCH  15  16
ENDBRANCH   1  15
TORSDOF 6
