REMARK  Name = ZINC32958658
REMARK  8 active torsions:
REMARK  status: ('A' for Active; 'I' for Inactive)
REMARK    1  A    between atoms: C_1  and  C_2
REMARK    2  A    between atoms: C_7  and  S_8
REMARK    3  A    between atoms: S_8  and  N_11
REMARK    4  A    between atoms: C_14  and  C_17
REMARK    5  A    between atoms: N_19  and  C_20
REMARK    6  A    between atoms: C_20  and  C_21
REMARK    7  A    between atoms: C_21  and  C_22
REMARK    8  A    between atoms: C_22  and  N_23
REMARK                            x       y       z     vdW  Elec       q    Type
REMARK                         _______ _______ _______ _____ _____    ______ ____
ROOT
ATOM      1  N   UNL     1      -3.541   3.672  -1.495  0.00  0.00    -0.177 NA
ATOM      2  C   UNL     1      -3.200   4.445  -2.697  0.00  0.00    +0.110 C 
ATOM      3  C   UNL     1      -4.487   4.947  -3.348  0.00  0.00    +0.030 C 
ATOM      4  C   UNL     1      -5.421   3.762  -3.606  0.00  0.00    +0.077 C 
ATOM      5  C   UNL     1      -5.779   3.093  -2.277  0.00  0.00    +0.030 C 
ATOM      6  C   UNL     1      -4.502   2.567  -1.615  0.00  0.00    +0.110 C 
ENDROOT
BRANCH   4   7
ATOM      7  C   UNL     1      -6.679   4.252  -4.276  0.00  0.00    +0.216 C 
ATOM      8  O   UNL     1      -7.755   4.082  -3.744  0.00  0.00    -0.276 OA
ATOM      9  N   UNL     1      -6.608   4.878  -5.468  0.00  0.00    -0.315 N 
ATOM     10  H   UNL     1      -5.632   5.031  -5.951  0.00  0.00    +0.149 HD
BRANCH   9  11
ATOM     11  C   UNL     1      -7.831   5.353  -6.119  0.00  0.00    +0.102 C 
BRANCH  11  12
ATOM     12  C   UNL     1      -7.474   6.022  -7.448  0.00  0.00    +0.000 C 
BRANCH  12  13
ATOM     13  C   UNL     1      -8.751   6.519  -8.129  0.00  0.00    -0.077 C 
BRANCH  13  14
ATOM     14  N   UNL     1      -8.408   7.161  -9.405  0.00  0.00    +0.380 N 
ATOM     15  C   UNL     1      -7.529   8.332  -9.190  0.00  0.00    -0.079 C 
ATOM     16  C   UNL     1      -7.371   9.178 -10.424  0.00  0.00    -0.019 C 
ATOM     17  C   UNL     1      -8.421  10.309 -10.379  0.00  0.00    -0.002 C 
ATOM     18  C   UNL     1      -9.747   9.845 -10.770  0.00  0.00    -0.002 C 
ATOM     19  C   UNL     1     -10.279   8.742  -9.829  0.00  0.00    -0.019 C 
ATOM     20  C   UNL     1      -9.623   7.440 -10.202  0.00  0.00    -0.079 C 
ATOM     21  H   UNL     1      -7.816   6.457 -10.009  0.00  0.00    -0.082 HD
ENDBRANCH  13  14
ENDBRANCH  12  13
ENDBRANCH  11  12
ENDBRANCH   9  11
ENDBRANCH   4   7
BRANCH   1  22
ATOM     22  S   UNL     1      -2.861   4.043  -0.031  0.00  0.00    +0.061 S 
ATOM     23  O   UNL     1      -3.822   3.709   0.960  0.00  0.00    -0.153 OA
ATOM     24  O   UNL     1      -2.319   5.351  -0.156  0.00  0.00    -0.153 OA
BRANCH  22  31
ATOM     25  C   UNL     1      -0.400   4.015  -1.780  0.00  0.00    +0.046 C 
ATOM     26  C   UNL     1      -0.412   3.014  -0.653  0.00  0.00    -0.022 A 
ATOM     27  C   UNL     1       0.660   2.157  -0.480  0.00  0.00    +0.032 A 
ATOM     28  C   UNL     1       0.649   1.243   0.559  0.00  0.00    +0.076 A 
ATOM     29  C   UNL     1      -0.443   1.183   1.424  0.00  0.00    +0.144 A 
ATOM     30  C   UNL     1      -1.514   2.040   1.242  0.00  0.00    +0.076 A 
ATOM     31  C   UNL     1      -1.497   2.952   0.201  0.00  0.00    +0.112 A 
ATOM     32  O   UNL     1      -0.443   0.280   2.441  0.00  0.00    -0.481 OA
ATOM     33  C   UNL     1       0.221  -0.963   2.196  0.00  0.00    +0.325 C 
ATOM     34  C   UNL     1       1.563  -0.703   1.561  0.00  0.00    +0.255 C 
ATOM     35  O   UNL     1       2.492  -1.455   1.771  0.00  0.00    -0.272 OA
ATOM     36  N   UNL     1       1.728   0.370   0.757  0.00  0.00    -0.280 N 
ATOM     37  H   UNL     1       2.690   0.564   0.260  0.00  0.00    +0.155 HD
ENDBRANCH  22  31
ENDBRANCH   1  22
TORSDOF 7
