REMARK  Name = ZINC04944436
REMARK  6 active torsions:
REMARK  status: ('A' for Active; 'I' for Inactive)
REMARK    1  A    between atoms: C_1  and  C_2
REMARK    2  A    between atoms: C_2  and  C_3
REMARK    3  A    between atoms: C_3  and  S_4
REMARK    4  A    between atoms: S_4  and  C_5
REMARK    5  A    between atoms: C_17  and  C_19
REMARK    6  A    between atoms: C_22  and  O_25
REMARK                            x       y       z     vdW  Elec       q    Type
REMARK                         _______ _______ _______ _____ _____    ______ ____
ROOT
ATOM      1  C   UNL     1       1.641  -2.747   2.702  0.00  0.00    +0.171 A 
ATOM      2  N   UNL     1       1.846  -4.060   3.000  0.00  0.00    -0.302 N 
ATOM      3  H   UNL     1       1.512  -4.750   2.406  0.00  0.00    +0.171 HD
ATOM      4  C   UNL     1       2.515  -4.402   4.123  0.00  0.00    +0.258 A 
ATOM      5  O   UNL     1       2.705  -5.575   4.402  0.00  0.00    -0.267 OA
ATOM      6  C   UNL     1       2.985  -3.385   4.958  0.00  0.00    +0.065 A 
ATOM      7  C   UNL     1       2.751  -2.065   4.611  0.00  0.00    +0.137 A 
ATOM      8  N   UNL     1       2.087  -1.786   3.485  0.00  0.00    -0.208 NA
ATOM      9  N   UNL     1       3.210  -1.044   5.426  0.00  0.00    -0.270 N 
ATOM     10  C   UNL     1       3.548  -1.287   6.705  0.00  0.00    +0.219 C 
ATOM     11  O   UNL     1       3.962  -0.381   7.397  0.00  0.00    -0.275 OA
ATOM     12  C   UNL     1       3.417  -2.668   7.290  0.00  0.00    +0.109 C 
ATOM     13  C   UNL     1       3.734  -3.715   6.221  0.00  0.00    +0.066 C 
ATOM     14  H   UNL     1       3.288  -0.145   5.071  0.00  0.00    +0.156 HD
ENDROOT
BRANCH  13  15
ATOM     15  C   UNL     1       5.215  -3.713   5.940  0.00  0.00    -0.039 A 
ATOM     16  C   UNL     1       5.830  -2.563   5.482  0.00  0.00    +0.008 A 
ATOM     17  C   UNL     1       7.187  -2.559   5.224  0.00  0.00    +0.045 A 
ATOM     18  C   UNL     1       7.933  -3.711   5.425  0.00  0.00    +0.117 A 
ATOM     19  C   UNL     1       7.314  -4.864   5.885  0.00  0.00    +0.045 A 
ATOM     20  C   UNL     1       5.958  -4.861   6.147  0.00  0.00    +0.008 A 
BRANCH  18  21
ATOM     21  O   UNL     1       9.268  -3.710   5.171  0.00  0.00    -0.507 OA
ATOM     22  H   UNL     1       9.813  -3.462   5.931  0.00  0.00    +0.292 HD
ENDBRANCH  18  21
ENDBRANCH  13  15
BRANCH   1  23
ATOM     23  S   UNL     1       0.767  -2.325   1.232  0.00  0.00    -0.088 S 
BRANCH  23  24
ATOM     24  C   UNL     1       0.742  -0.511   1.242  0.00  0.00    +0.077 C 
BRANCH  24  26
ATOM     25  C   UNL     1      -0.019   1.526   0.010  0.00  0.00    +0.004 C 
ATOM     26  C   UNL     1       0.002  -0.004   0.002  0.00  0.00    +0.008 C 
ENDBRANCH  24  26
ENDBRANCH  23  24
ENDBRANCH   1  23
TORSDOF 5
