REMARK  Name = ZINC22049192
REMARK  11 active torsions:
REMARK  status: ('A' for Active; 'I' for Inactive)
REMARK    1  A    between atoms: C_1  and  C_2
REMARK    2  A    between atoms: C_4  and  N_17
REMARK    3  A    between atoms: C_6  and  O_16
REMARK    4  A    between atoms: C_8  and  O_14
REMARK    5  A    between atoms: C_10  and  O_13
REMARK    6  A    between atoms: O_14  and  C_15
REMARK    7  A    between atoms: C_18  and  C_20
REMARK    8  A    between atoms: C_20  and  C_21
REMARK    9  A    between atoms: C_21  and  C_22
REMARK   10  A    between atoms: C_21  and  C_23
REMARK   11  A    between atoms: C_21  and  O_24
REMARK                            x       y       z     vdW  Elec       q    Type
REMARK                         _______ _______ _______ _____ _____    ______ ____
ROOT
ATOM      1  C   UNL     1      -0.149   5.314   2.327  0.00  0.00    +0.040 C 
ATOM      2  C   UNL     1       0.803   4.433   1.516  0.00  0.00    +0.141 C 
ATOM      3  C   UNL     1       0.288   4.311   0.080  0.00  0.00    +0.133 C 
ATOM      4  C   UNL     1       1.213   3.379  -0.711  0.00  0.00    +0.171 C 
ATOM      5  C   UNL     1       1.280   2.024   0.001  0.00  0.00    +0.204 C 
ATOM      6  C   UNL     1       1.757   2.233   1.440  0.00  0.00    +0.279 C 
ATOM      7  O   UNL     1       0.871   3.134   2.108  0.00  0.00    -0.344 OA
ENDROOT
BRANCH   3   8
ATOM      8  N   UNL     1       0.273   5.635  -0.548  0.00  0.00    -0.307 N 
ATOM      9  C   UNL     1      -0.786   6.451  -0.375  0.00  0.00    +0.216 C 
ATOM     10  O   UNL     1      -1.726   6.089   0.300  0.00  0.00    -0.276 OA
ATOM     11  H   UNL     1       1.126   5.963  -1.161  0.00  0.00    +0.149 HD
BRANCH   9  12
ATOM     12  C   UNL     1      -0.801   7.812  -1.021  0.00  0.00    +0.130 C 
BRANCH  12  13
ATOM     13  C   UNL     1      -2.106   8.529  -0.669  0.00  0.00    +0.069 C 
ATOM     14  C   UNL     1      -2.209   8.684   0.850  0.00  0.00    +0.041 C 
ATOM     15  C   UNL     1      -2.122   9.911  -1.325  0.00  0.00    +0.041 C 
BRANCH  13  16
ATOM     16  O   UNL     1      -3.214   7.763  -1.146  0.00  0.00    -0.389 OA
ATOM     17  H   UNL     1      -4.241   8.122  -0.984  0.00  0.00    +0.210 HD
ENDBRANCH  13  16
ENDBRANCH  12  13
ENDBRANCH   9  12
ENDBRANCH   3   8
BRANCH   6  18
ATOM     18  O   UNL     1       1.769   0.979   2.126  0.00  0.00    -0.365 OA
ATOM     19  H   UNL     1       2.085   0.931   3.178  0.00  0.00    +0.213 HD
ENDBRANCH   6  18
BRANCH   5  20
ATOM     20  O   UNL     1      -0.017   1.425   0.010  0.00  0.00    -0.372 OA
ATOM     21  C   UNL     1       0.002  -0.004   0.002  0.00  0.00    +0.194 C 
ENDBRANCH   5  20
BRANCH   4  22
ATOM     22  O   UNL     1       2.522   3.949  -0.777  0.00  0.00    -0.387 OA
ATOM     23  H   UNL     1       3.326   3.418  -1.308  0.00  0.00    +0.210 HD
ENDBRANCH   4  22
TORSDOF 7
