REMARK  Name = ZINC63557079
REMARK  9 active torsions:
REMARK  status: ('A' for Active; 'I' for Inactive)
REMARK    1  A    between atoms: C_1  and  C_2
REMARK    2  A    between atoms: C_2  and  O_3
REMARK    3  A    between atoms: O_3  and  C_4
REMARK    4  A    between atoms: C_4  and  C_5
REMARK    5  A    between atoms: C_9  and  N_12
REMARK    6  A    between atoms: C_13  and  C_15
REMARK    7  A    between atoms: N_20  and  C_22
REMARK    8  A    between atoms: C_22  and  C_23
REMARK    9  A    between atoms: C_23  and  C_24
REMARK                            x       y       z     vdW  Elec       q    Type
REMARK                         _______ _______ _______ _____ _____    ______ ____
ROOT
ATOM      1  C   UNL     1       4.320  -2.589   7.648  0.00  0.00    +0.101 C 
ATOM      2  C   UNL     1       3.250  -2.739   8.753  0.00  0.00    +0.110 C 
ATOM      3  C   UNL     1       4.051  -2.857  10.031  0.00  0.00    +0.216 C 
ATOM      4  O   UNL     1       3.616  -3.264  11.088  0.00  0.00    -0.276 OA
ATOM      5  N   UNL     1       5.313  -2.443   9.826  0.00  0.00    -0.300 N 
ATOM      6  C   UNL     1       5.511  -2.004   8.439  0.00  0.00    +0.121 C 
ENDROOT
BRANCH   1   8
ATOM      7  N   UNL     1       2.789  -1.933   5.819  0.00  0.00    -0.284 N 
ATOM      8  C   UNL     1       3.861  -1.631   6.579  0.00  0.00    +0.220 C 
ATOM      9  O   UNL     1       4.455  -0.589   6.402  0.00  0.00    -0.275 OA
ATOM     10  H   UNL     1       2.313  -2.767   5.960  0.00  0.00    +0.152 HD
BRANCH   7  14
ATOM     11  C   UNL     1       1.526  -2.293   2.520  0.00  0.00    +0.214 C 
ATOM     12  N   UNL     1       2.854  -1.640   2.580  0.00  0.00    -0.173 NA
ATOM     13  N   UNL     1       3.218  -1.065   3.587  0.00  0.00    -0.157 NA
ATOM     14  C   UNL     1       2.342  -1.002   4.780  0.00  0.00    +0.275 C 
ATOM     15  S   UNL     1       0.746  -1.552   4.023  0.00  0.00    -0.083 S 
BRANCH  11  16
ATOM     16  C   UNL     1       0.770  -1.902   1.249  0.00  0.00    +0.199 C 
BRANCH  16  17
ATOM     17  O   UNL     1       0.693  -0.477   1.160  0.00  0.00    -0.377 OA
BRANCH  17  19
ATOM     18  C   UNL     1      -0.019   1.526   0.010  0.00  0.00    +0.034 C 
ATOM     19  C   UNL     1       0.002  -0.004   0.002  0.00  0.00    +0.156 C 
ENDBRANCH  17  19
ENDBRANCH  16  17
ENDBRANCH  11  16
ENDBRANCH   7  14
ENDBRANCH   1   8
BRANCH   5  20
ATOM     20  C   UNL     1       6.357  -2.433  10.853  0.00  0.00    +0.112 C 
BRANCH  20  21
ATOM     21  C   UNL     1       7.100  -3.771  10.839  0.00  0.00    +0.052 C 
BRANCH  21  22
ATOM     22  C   UNL     1       8.174  -3.761  11.896  0.00  0.00    -0.040 C 
ATOM     23  C   UNL     1       8.080  -4.244  13.155  0.00  0.00    +0.000 A 
ATOM     24  C   UNL     1       6.991  -4.897  13.891  0.00  0.00    +0.030 A 
ATOM     25  C   UNL     1       7.200  -5.278  15.172  0.00  0.00    +0.042 A 
ATOM     26  C   UNL     1       8.429  -5.063  15.814  0.00  0.00    +0.022 A 
ATOM     27  C   UNL     1       9.476  -4.469  15.203  0.00  0.00    +0.027 A 
ATOM     28  C   UNL     1       9.367  -4.029  13.855  0.00  0.00    +0.043 A 
ATOM     29  N   UNL     1      10.223  -3.437  13.059  0.00  0.00    -0.380 N 
ATOM     30  C   UNL     1       9.578  -3.214  11.760  0.00  0.00    +0.144 C 
ATOM     31 CL   UNL     1       5.914  -6.051  16.046  0.00  0.00    -0.084 Cl
ATOM     32  H   UNL     1      11.133  -3.191  13.288  0.00  0.00    +0.160 HD
ENDBRANCH  21  22
ENDBRANCH  20  21
ENDBRANCH   5  20
TORSDOF 8
