REMARK  Name = ZINC67382688
REMARK  12 active torsions:
REMARK  status: ('A' for Active; 'I' for Inactive)
REMARK    1  A    between atoms: C_1  and  C_2
REMARK    2  A    between atoms: C_2  and  C_3
REMARK    3  A    between atoms: C_2  and  C_4
REMARK    4  A    between atoms: C_4  and  C_5
REMARK    5  A    between atoms: C_5  and  C_6
REMARK    6  A    between atoms: N_8  and  N_9
REMARK    7  A    between atoms: N_12  and  C_13
REMARK    8  A    between atoms: C_13  and  C_14
REMARK    9  A    between atoms: C_14  and  C_16
REMARK   10  A    between atoms: C_14  and  N_23
REMARK   11  A    between atoms: N_23  and  C_24
REMARK   12  A    between atoms: N_23  and  C_25
REMARK                            x       y       z     vdW  Elec       q    Type
REMARK                         _______ _______ _______ _____ _____    ______ ____
ROOT
ATOM      1  N   UNL     1      -3.342  -4.295   0.390  0.00  0.00    -0.218 N 
ATOM      2  C   UNL     1      -3.800  -5.519   0.065  0.00  0.00    +0.316 C 
ATOM      3  O   UNL     1      -4.992  -5.700  -0.093  0.00  0.00    -0.251 OA
ATOM      4  N   UNL     1      -2.938  -6.544  -0.085  0.00  0.00    -0.299 N 
ATOM      5  H   UNL     1      -3.962  -3.557   0.498  0.00  0.00    +0.174 HD
ATOM      6  H   UNL     1      -1.987  -6.400   0.041  0.00  0.00    +0.150 HD
ENDROOT
BRANCH   1   9
ATOM      7  C   UNL     1      -1.509  -2.862   0.898  0.00  0.00    +0.229 C 
ATOM      8  O   UNL     1      -2.285  -1.940   1.033  0.00  0.00    -0.274 OA
ATOM      9  N   UNL     1      -1.968  -4.087   0.572  0.00  0.00    -0.233 N 
ATOM     10  H   UNL     1      -1.347  -4.824   0.464  0.00  0.00    +0.173 HD
BRANCH   7  11
ATOM     11  C   UNL     1      -0.032  -2.638   1.093  0.00  0.00    +0.097 C 
BRANCH  11  12
ATOM     12  C   UNL     1       0.219  -1.172   1.454  0.00  0.00    +0.012 C 
BRANCH  12  14
ATOM     13  C   UNL     1       1.982   0.543   1.889  0.00  0.00    +0.007 C 
ATOM     14  C   UNL     1       1.719  -0.945   1.652  0.00  0.00    -0.017 C 
ATOM     15  C   UNL     1       2.200  -1.747   2.863  0.00  0.00    +0.007 C 
ENDBRANCH  12  14
ENDBRANCH  11  12
ENDBRANCH   7  11
ENDBRANCH   1   9
BRANCH   4  16
ATOM     16  C   UNL     1      -3.437  -7.875  -0.439  0.00  0.00    +0.095 C 
BRANCH  16  17
ATOM     17  C   UNL     1      -2.254  -8.818  -0.672  0.00  0.00    -0.021 C 
BRANCH  17  18
ATOM     18  C   UNL     1      -1.474  -8.356  -1.876  0.00  0.00    -0.057 A 
ATOM     19  C   UNL     1      -1.925  -8.654  -3.148  0.00  0.00    +0.002 A 
ATOM     20  C   UNL     1      -1.210  -8.230  -4.253  0.00  0.00    +0.003 A 
ATOM     21  C   UNL     1      -0.043  -7.509  -4.087  0.00  0.00    +0.038 A 
ATOM     22  C   UNL     1       0.410  -7.210  -2.813  0.00  0.00    +0.124 A 
ATOM     23  C   UNL     1      -0.310  -7.629  -1.707  0.00  0.00    +0.040 A 
ATOM     24  F   UNL     1       1.551  -6.505  -2.649  0.00  0.00    -0.205 F 
ENDBRANCH  17  18
BRANCH  17  25
ATOM     25  N   UNL     1      -2.752 -10.180  -0.905  0.00  0.00    +0.382 N 
ATOM     26  C   UNL     1      -1.620 -11.075  -1.179  0.00  0.00    -0.096 C 
ATOM     27  C   UNL     1      -3.470 -10.650   0.287  0.00  0.00    -0.096 C 
ATOM     28  H   UNL     1      -3.378 -10.179  -1.696  0.00  0.00    -0.082 HD
ENDBRANCH  17  25
ENDBRANCH  16  17
ENDBRANCH   4  16
TORSDOF 8
