REMARK  Name = ZINC65638705
REMARK  8 active torsions:
REMARK  status: ('A' for Active; 'I' for Inactive)
REMARK    1  A    between atoms: C_1  and  C_2
REMARK    2  A    between atoms: C_4  and  C_26
REMARK    3  A    between atoms: C_12  and  C_14
REMARK    4  A    between atoms: N_16  and  C_17
REMARK    5  A    between atoms: C_17  and  C_18
REMARK    6  A    between atoms: N_21  and  C_23
REMARK    7  A    between atoms: C_23  and  C_24
REMARK    8  A    between atoms: C_23  and  C_25
REMARK                            x       y       z     vdW  Elec       q    Type
REMARK                         _______ _______ _______ _____ _____    ______ ____
ROOT
ATOM      1  C   UNL     1      -0.503   0.947   0.142  0.00  0.00    +0.028 C 
ATOM      2  C   UNL     1       0.601   0.011  -0.355  0.00  0.00    +0.080 C 
ATOM      3  C   UNL     1      -0.010  -1.326  -0.794  0.00  0.00    +0.040 C 
ATOM      4  C   UNL     1       1.100  -2.217  -1.351  0.00  0.00    +0.108 C 
ATOM      5  C   UNL     1       2.248  -2.299  -0.379  0.00  0.00    -0.014 A 
ATOM      6  C   UNL     1       3.134  -3.359  -0.476  0.00  0.00    +0.006 A 
ATOM      7  C   UNL     1       4.198  -3.460   0.399  0.00  0.00    +0.000 A 
ATOM      8  C   UNL     1       4.386  -2.503   1.379  0.00  0.00    +0.002 A 
ATOM      9  C   UNL     1       3.506  -1.444   1.484  0.00  0.00    +0.024 A 
ATOM     10  C   UNL     1       2.433  -1.341   0.605  0.00  0.00    +0.041 A 
ATOM     11  N   UNL     1       1.548  -0.264   0.734  0.00  0.00    -0.261 N 
ATOM     12  C   UNL     1       1.565   0.508   1.839  0.00  0.00    +0.306 C 
ATOM     13  O   UNL     1       0.876   1.506   1.892  0.00  0.00    -0.265 OA
ENDROOT
BRANCH   4  14
ATOM     14  C   UNL     1       0.554  -3.600  -1.594  0.00  0.00    +0.218 C 
ATOM     15  O   UNL     1      -0.371  -4.013  -0.928  0.00  0.00    -0.275 OA
ATOM     16  N   UNL     1       1.094  -4.379  -2.553  0.00  0.00    -0.329 N 
ATOM     17  H   UNL     1       1.883  -4.081  -3.032  0.00  0.00    +0.145 HD
ATOM     18  H   UNL     1       0.693  -5.236  -2.764  0.00  0.00    +0.145 HD
ENDBRANCH   4  14
BRANCH  12  19
ATOM     19  C   UNL     1       2.430   0.135   2.997  0.00  0.00    +0.300 C 
ATOM     20  O   UNL     1       2.405  -0.997   3.434  0.00  0.00    -0.265 OA
ATOM     21  N   UNL     1       3.239   1.056   3.558  0.00  0.00    -0.307 N 
ATOM     22  H   UNL     1       3.259   1.961   3.209  0.00  0.00    +0.149 HD
BRANCH  21  23
ATOM     23  C   UNL     1       4.088   0.691   4.695  0.00  0.00    +0.106 C 
BRANCH  23  24
ATOM     24  C   UNL     1       4.901   1.909   5.137  0.00  0.00    -0.012 C 
ATOM     25  C   UNL     1       3.992   2.951   5.829  0.00  0.00    -0.015 C 
ATOM     26  C   UNL     1       4.823   3.491   7.007  0.00  0.00    -0.078 C 
ATOM     27  N   UNL     1       6.136   2.812   6.959  0.00  0.00    +0.381 N 
ATOM     28  C   UNL     1       5.900   1.524   6.256  0.00  0.00    -0.074 C 
ATOM     29  H   UNL     1       6.799   3.372   6.445  0.00  0.00    -0.081 HD
BRANCH  27  30
ATOM     30  C   UNL     1       6.628   2.563   8.321  0.00  0.00    -0.075 C 
ATOM     31  C   UNL     1       7.969   1.829   8.252  0.00  0.00    -0.014 C 
ATOM     32  C   UNL     1       6.813   3.897   9.048  0.00  0.00    -0.014 C 
ENDBRANCH  27  30
ENDBRANCH  23  24
ENDBRANCH  21  23
ENDBRANCH  12  19
TORSDOF 5
