REMARK  Name = ZINC08099441
REMARK  8 active torsions:
REMARK  status: ('A' for Active; 'I' for Inactive)
REMARK    1  A    between atoms: C_1  and  C_2
REMARK    2  A    between atoms: C_3  and  C_26
REMARK    3  A    between atoms: C_4  and  C_25
REMARK    4  A    between atoms: C_7  and  C_8
REMARK    5  A    between atoms: C_8  and  C_10
REMARK    6  A    between atoms: C_10  and  O_11
REMARK    7  A    between atoms: O_11  and  C_12
REMARK    8  A    between atoms: C_26  and  C_28
REMARK                            x       y       z     vdW  Elec       q    Type
REMARK                         _______ _______ _______ _____ _____    ______ ____
ROOT
ATOM      1  C   UNL     1      -2.439   0.166   0.731  0.00  0.00    +0.310 C 
ENDROOT
BRANCH   1   2
ATOM      2  C   UNL     1      -3.584  -0.803   0.578  0.00  0.00    +0.216 C 
ATOM      3  O   UNL     1      -3.389  -1.996   0.692  0.00  0.00    -0.287 OA
BRANCH   2  10
ATOM      4  C   UNL     1      -6.095  -2.596   0.209  0.00  0.00    +0.047 C 
ATOM      5  C   UNL     1      -6.015  -1.093   0.133  0.00  0.00    -0.012 A 
ATOM      6  C   UNL     1      -7.084  -0.203  -0.121  0.00  0.00    +0.041 A 
ATOM      7  C   UNL     1      -6.559   1.081  -0.106  0.00  0.00    +0.024 A 
ATOM      8  N   UNL     1      -5.245   1.003   0.147  0.00  0.00    -0.355 N 
ATOM      9  H   UNL     1      -4.641   1.759   0.212  0.00  0.00    +0.166 HD
ATOM     10  C   UNL     1      -4.886  -0.321   0.301  0.00  0.00    +0.090 A 
ATOM     11  C   UNL     1      -7.336   2.351  -0.336  0.00  0.00    +0.064 C 
BRANCH   6  12
ATOM     12  C   UNL     1      -8.483  -0.570  -0.361  0.00  0.00    +0.162 C 
ATOM     13  O   UNL     1      -8.884  -0.721  -1.496  0.00  0.00    -0.292 OA
ATOM     14  C   UNL     1      -9.423  -0.758   0.801  0.00  0.00    +0.091 C 
ENDBRANCH   6  12
ENDBRANCH   2  10
ENDBRANCH   1   2
BRANCH   1  15
ATOM     15  O   UNL     1      -1.237  -0.557   1.004  0.00  0.00    -0.484 OA
BRANCH  15  16
ATOM     16  C   UNL     1      -0.102   0.173   1.170  0.00  0.00    +0.122 A 
ATOM     17  C   UNL     1      -0.147   1.559   1.072  0.00  0.00    +0.049 A 
ATOM     18  C   UNL     1       0.997   2.310   1.238  0.00  0.00    +0.050 A 
ATOM     19  C   UNL     1       2.209   1.686   1.507  0.00  0.00    +0.136 A 
ATOM     20  C   UNL     1       2.254   0.289   1.607  0.00  0.00    +0.031 A 
ATOM     21  C   UNL     1       1.097  -0.464   1.438  0.00  0.00    +0.058 A 
ATOM     22  C   UNL     1       3.662  -0.047   1.894  0.00  0.00    +0.028 A 
ATOM     23  C   UNL     1       4.348  -1.239   2.100  0.00  0.00    +0.012 A 
ATOM     24  C   UNL     1       5.704  -1.212   2.354  0.00  0.00    +0.001 A 
ATOM     25  C   UNL     1       6.379  -0.003   2.402  0.00  0.00    +0.004 A 
ATOM     26  C   UNL     1       5.708   1.185   2.199  0.00  0.00    +0.047 A 
ATOM     27  C   UNL     1       4.342   1.178   1.942  0.00  0.00    +0.136 A 
ATOM     28  O   UNL     1       3.455   2.171   1.710  0.00  0.00    -0.455 OA
ENDBRANCH  15  16
ENDBRANCH   1  15
TORSDOF 5
