REMARK  Name = ZINC48047545
REMARK  8 active torsions:
REMARK  status: ('A' for Active; 'I' for Inactive)
REMARK    1  A    between atoms: C_1  and  C_2
REMARK    2  A    between atoms: C_4  and  O_32
REMARK    3  A    between atoms: C_13  and  O_21
REMARK    4  A    between atoms: C_15  and  C_16
REMARK    5  A    between atoms: C_15  and  O_20
REMARK    6  A    between atoms: C_16  and  C_18
REMARK    7  A    between atoms: C_18  and  O_19
REMARK    8  A    between atoms: C_30  and  C_31
REMARK                            x       y       z     vdW  Elec       q    Type
REMARK                         _______ _______ _______ _____ _____    ______ ____
ROOT
ATOM      1  C   UNL     1       0.587   1.651   0.030  0.00  0.00    +0.015 C 
ATOM      2  C   UNL     1       0.319   0.146   0.084  0.00  0.00    +0.012 C 
ATOM      3  C   UNL     1      -1.112  -0.106   0.520  0.00  0.00    +0.042 C 
ATOM      4  C   UNL     1      -1.319   0.636   1.849  0.00  0.00    +0.120 C 
ATOM      5  C   UNL     1      -0.320   0.184   2.911  0.00  0.00    +0.035 C 
ATOM      6  C   UNL     1       1.130   0.326   2.420  0.00  0.00    -0.000 C 
ATOM      7  C   UNL     1       1.243  -0.516   1.141  0.00  0.00    +0.004 C 
ATOM      8  C   UNL     1       2.604  -0.465   0.438  0.00  0.00    +0.039 C 
ATOM      9  C   UNL     1       2.256  -0.852  -1.025  0.00  0.00    +0.154 C 
ATOM     10  C   UNL     1       0.759  -0.504  -1.224  0.00  0.00    +0.157 C 
ATOM     11  C   UNL     1       2.087  -0.204   3.490  0.00  0.00    +0.008 C 
ATOM     12  C   UNL     1       1.979   0.660   4.750  0.00  0.00    +0.032 C 
ATOM     13  C   UNL     1       0.525   0.683   5.183  0.00  0.00    -0.056 C 
ATOM     14  C   UNL     1       0.226   0.387   6.440  0.00  0.00    +0.051 C 
ATOM     15  C   UNL     1      -1.174   0.377   6.893  0.00  0.00    +0.179 C 
ATOM     16  O   UNL     1      -1.450   0.147   8.055  0.00  0.00    -0.288 OA
ATOM     17  C   UNL     1      -2.233   0.653   5.907  0.00  0.00    +0.047 C 
ATOM     18  C   UNL     1      -1.910   0.955   4.660  0.00  0.00    -0.012 C 
ATOM     19  C   UNL     1      -0.488   1.047   4.164  0.00  0.00    +0.013 C 
ATOM     20  C   UNL     1      -0.231   2.502   3.765  0.00  0.00    +0.020 C 
ENDROOT
BRANCH  10  21
ATOM     21  C   UNL     1       0.596   0.462  -2.369  0.00  0.00    +0.193 C 
ATOM     22  O   UNL     1       1.473   1.253  -2.621  0.00  0.00    -0.292 OA
BRANCH  21  23
ATOM     23  C   UNL     1      -0.662   0.442  -3.198  0.00  0.00    +0.233 C 
BRANCH  23  24
ATOM     24  O   UNL     1      -0.579   1.444  -4.214  0.00  0.00    -0.387 OA
ATOM     25  H   UNL     1      -1.357   1.488  -4.787  0.00  0.00    +0.210 HD
ENDBRANCH  23  24
ENDBRANCH  21  23
ENDBRANCH  10  21
BRANCH  10  26
ATOM     26  O   UNL     1       0.003  -1.692  -1.466  0.00  0.00    -0.378 OA
ATOM     27  H   UNL     1       0.239  -2.149  -2.284  0.00  0.00    +0.211 HD
ENDBRANCH  10  26
BRANCH   9  28
ATOM     28  O   UNL     1       3.060  -0.102  -1.936  0.00  0.00    -0.388 OA
ATOM     29  H   UNL     1       4.010  -0.259  -1.843  0.00  0.00    +0.210 HD
ENDBRANCH   9  28
BRANCH   4  30
ATOM     30  O   UNL     1      -2.644   0.385   2.322  0.00  0.00    -0.391 OA
ATOM     31  H   UNL     1      -3.339   0.676   1.716  0.00  0.00    +0.210 HD
ENDBRANCH   4  30
TORSDOF 6
