REMARK  Name = ZINC14477062
REMARK  6 active torsions:
REMARK  status: ('A' for Active; 'I' for Inactive)
REMARK    1  A    between atoms: C_1  and  C_2
REMARK    2  A    between atoms: C_2  and  C_3
REMARK    3  A    between atoms: C_3  and  N_4
REMARK    4  A    between atoms: N_4  and  S_5
REMARK    5  A    between atoms: S_5  and  C_8
REMARK    6  A    between atoms: C_21  and  C_24
REMARK                            x       y       z     vdW  Elec       q    Type
REMARK                         _______ _______ _______ _____ _____    ______ ____
ROOT
ATOM      1  C   UNL     1      -0.112  -0.019   0.058  0.00  0.00    +0.106 A 
ATOM      2  C   UNL     1      -1.221  -0.735  -0.356  0.00  0.00    +0.030 A 
ATOM      3  C   UNL     1      -1.181  -2.115  -0.361  0.00  0.00    +0.025 A 
ATOM      4  C   UNL     1      -0.032  -2.779   0.050  0.00  0.00    +0.031 A 
ATOM      5  C   UNL     1       1.083  -2.065   0.463  0.00  0.00    -0.018 A 
ATOM      6  C   UNL     1       1.033  -0.678   0.458  0.00  0.00    +0.034 A 
ATOM      7  C   UNL     1       2.343  -2.736   0.908  0.00  0.00    +0.049 C 
ATOM      8  C   UNL     1       2.504  -2.666   2.408  0.00  0.00    -0.023 C 
ATOM      9  C   UNL     1       3.048  -3.770   2.859  0.00  0.00    -0.030 C 
ATOM     10  C   UNL     1       3.330  -4.728   1.717  0.00  0.00    +0.033 C 
ATOM     11  C   UNL     1       2.366  -4.245   0.594  0.00  0.00    +0.029 C 
ATOM     12  C   UNL     1       0.992  -4.858   0.875  0.00  0.00    +0.106 C 
ATOM     13  N   UNL     1      -0.010  -4.178   0.048  0.00  0.00    -0.336 N 
ATOM     14  H   UNL     1      -0.642  -4.684  -0.486  0.00  0.00    +0.147 HD
ENDROOT
BRANCH  12  15
ATOM     15  C   UNL     1       1.016  -6.327   0.538  0.00  0.00    -0.007 A 
ATOM     16  C   UNL     1       2.029  -6.838  -0.252  0.00  0.00    +0.007 A 
ATOM     17  C   UNL     1       2.052  -8.185  -0.562  0.00  0.00    +0.002 A 
ATOM     18  C   UNL     1       1.062  -9.022  -0.083  0.00  0.00    +0.021 A 
ATOM     19  C   UNL     1       0.047  -8.512   0.706  0.00  0.00    +0.060 A 
ATOM     20  C   UNL     1       0.028  -7.164   1.023  0.00  0.00    +0.064 A 
ATOM     21 CL   UNL     1      -1.240  -6.524   2.021  0.00  0.00    -0.082 Cl
ATOM     22 CL   UNL     1      -1.197  -9.563   1.308  0.00  0.00    -0.082 Cl
ENDBRANCH  12  15
BRANCH   1  23
ATOM     23  S   UNL     1      -0.159   1.742   0.068  0.00  0.00    +0.058 S 
ATOM     24  O   UNL     1       1.188   2.185  -0.021  0.00  0.00    -0.153 OA
ATOM     25  O   UNL     1      -1.151   2.128  -0.873  0.00  0.00    -0.153 OA
BRANCH  23  26
ATOM     26  N   UNL     1      -0.712   2.209   1.558  0.00  0.00    -0.190 NA
ATOM     27  H   UNL     1      -1.563   2.669   1.637  0.00  0.00    +0.148 HD
BRANCH  26  28
ATOM     28  C   UNL     1       0.083   1.928   2.756  0.00  0.00    +0.105 C 
BRANCH  28  30
ATOM     29  C   UNL     1       0.390   2.472   5.175  0.00  0.00    +0.005 C 
ATOM     30  C   UNL     1      -0.441   2.766   3.924  0.00  0.00    +0.013 C 
ENDBRANCH  28  30
ENDBRANCH  26  28
ENDBRANCH  23  26
ENDBRANCH   1  23
TORSDOF 5
