REMARK  Name = ZINC27259460
REMARK  9 active torsions:
REMARK  status: ('A' for Active; 'I' for Inactive)
REMARK    1  A    between atoms: C_1  and  C_2
REMARK    2  A    between atoms: C_7  and  N_12
REMARK    3  A    between atoms: C_9  and  C_11
REMARK    4  A    between atoms: N_12  and  C_13
REMARK    5  A    between atoms: C_13  and  N_15
REMARK    6  A    between atoms: N_15  and  N_16
REMARK    7  A    between atoms: C_17  and  C_19
REMARK    8  A    between atoms: N_22  and  S_25
REMARK    9  A    between atoms: S_25  and  C_28
REMARK                            x       y       z     vdW  Elec       q    Type
REMARK                         _______ _______ _______ _____ _____    ______ ____
ROOT
ATOM      1  N   UNL     1       1.187   2.061   0.002  0.00  0.00    -0.246 N 
ATOM      2  H   UNL     1       2.147   1.524  -0.010  0.00  0.00    +0.172 HD
ENDROOT
BRANCH   1   3
ATOM      3  N   UNL     1      -0.016   1.344   0.009  0.00  0.00    -0.235 N 
ATOM      4  C   UNL     1       0.002  -0.004   0.002  0.00  0.00    +0.232 C 
ATOM      5  O   UNL     1       1.060  -0.596  -0.011  0.00  0.00    -0.274 OA
ATOM      6  H   UNL     1      -0.976   1.881   0.021  0.00  0.00    +0.173 HD
BRANCH   4   7
ATOM      7  C   UNL     1      -1.293  -0.775   0.010  0.00  0.00    +0.079 C 
ATOM      8  C   UNL     1      -2.088  -0.422   1.269  0.00  0.00    +0.030 C 
ATOM      9  C   UNL     1      -3.419  -1.181   1.257  0.00  0.00    +0.110 C 
ATOM     10  N   UNL     1      -3.143  -2.616   1.100  0.00  0.00    -0.181 NA
ATOM     11  C   UNL     1      -2.310  -3.056  -0.028  0.00  0.00    +0.110 C 
ATOM     12  C   UNL     1      -0.992  -2.276  -0.001  0.00  0.00    +0.030 C 
BRANCH  10  13
ATOM     13  S   UNL     1      -3.760  -3.716   2.173  0.00  0.00    +0.029 S 
ATOM     14  O   UNL     1      -4.929  -3.099   2.693  0.00  0.00    -0.158 OA
ATOM     15  O   UNL     1      -3.847  -4.930   1.438  0.00  0.00    -0.158 OA
ATOM     16  C   UNL     1      -2.499  -3.860   3.469  0.00  0.00    +0.215 C 
ENDBRANCH  10  13
ENDBRANCH   4   7
ENDBRANCH   1   3
BRANCH   1  17
ATOM     17  C   UNL     1       1.169   3.408   0.009  0.00  0.00    +0.147 C 
ATOM     18  S   UNL     1       2.640   4.284  -0.000  0.00  0.00    -0.017 S 
BRANCH  17  19
ATOM     19  N   UNL     1      -0.007   4.066   0.024  0.00  0.00    -0.322 N 
ATOM     20  H   UNL     1      -0.952   3.503   0.030  0.00  0.00    +0.148 HD
BRANCH  19  26
ATOM     21  C   UNL     1      -0.201   8.087  -1.390  0.00  0.00    +0.008 C 
ATOM     22  C   UNL     1      -1.367   7.556  -0.554  0.00  0.00    -0.009 C 
ATOM     23  C   UNL     1      -1.235   8.060   0.885  0.00  0.00    +0.003 C 
ATOM     24  C   UNL     1       0.085   7.565   1.479  0.00  0.00    +0.002 C 
ATOM     25  C   UNL     1       0.106   6.035   1.471  0.00  0.00    +0.022 C 
ATOM     26  C   UNL     1      -0.027   5.531   0.032  0.00  0.00    +0.075 C 
ATOM     27  C   UNL     1      -1.347   6.026  -0.562  0.00  0.00    +0.009 C 
ATOM     28  C   UNL     1      -1.479   5.522  -2.001  0.00  0.00    +0.009 C 
ENDBRANCH  19  26
ENDBRANCH  17  19
ENDBRANCH   1  17
TORSDOF 6
