REMARK  Name = ZINC45697285
REMARK  6 active torsions:
REMARK  status: ('A' for Active; 'I' for Inactive)
REMARK    1  A    between atoms: C_3  and  O_27
REMARK    2  A    between atoms: C_6  and  C_7
REMARK    3  A    between atoms: N_15  and  C_16
REMARK    4  A    between atoms: C_19  and  O_22
REMARK    5  A    between atoms: O_22  and  C_23
REMARK    6  A    between atoms: C_23  and  C_24
REMARK                            x       y       z     vdW  Elec       q    Type
REMARK                         _______ _______ _______ _____ _____    ______ ____
ROOT
ATOM      1  C   UNL     1      -1.072  -0.688  -0.737  0.00  0.00    -0.041 C 
ATOM      2  C   UNL     1      -2.238  -0.493  -1.305  0.00  0.00    -0.004 C 
ATOM      3  C   UNL     1      -3.446  -1.345  -1.032  0.00  0.00    +0.137 C 
ATOM      4  N   UNL     1      -3.035  -2.534  -0.272  0.00  0.00    -0.281 N 
ATOM      5  C   UNL     1      -2.082  -2.334   0.833  0.00  0.00    +0.114 C 
ATOM      6  C   UNL     1      -0.779  -1.791   0.237  0.00  0.00    +0.054 C 
ATOM      7  C   UNL     1      -3.512  -3.758  -0.574  0.00  0.00    +0.307 C 
ATOM      8  O   UNL     1      -3.084  -4.737   0.005  0.00  0.00    -0.252 OA
ATOM      9  N   UNL     1      -4.464  -3.896  -1.518  0.00  0.00    -0.269 N 
ATOM     10  H   UNL     1      -4.733  -3.132  -2.051  0.00  0.00    +0.156 HD
ENDROOT
BRANCH   1  16
ATOM     11  C   UNL     1      -0.055   1.585  -0.729  0.00  0.00    +0.012 A 
ATOM     12  C   UNL     1       0.973   2.444  -1.053  0.00  0.00    +0.046 A 
ATOM     13  C   UNL     1       2.089   1.970  -1.730  0.00  0.00    +0.117 A 
ATOM     14  C   UNL     1       2.175   0.630  -2.083  0.00  0.00    +0.046 A 
ATOM     15  C   UNL     1       1.151  -0.235  -1.763  0.00  0.00    +0.012 A 
ATOM     16  C   UNL     1       0.027   0.237  -1.082  0.00  0.00    -0.022 A 
BRANCH  13  17
ATOM     17  O   UNL     1       3.100   2.821  -2.048  0.00  0.00    -0.507 OA
ATOM     18  H   UNL     1       3.785   2.889  -1.369  0.00  0.00    +0.292 HD
ENDBRANCH  13  17
ENDBRANCH   1  16
BRANCH   9  19
ATOM     19  C   UNL     1      -5.065  -5.145  -1.729  0.00  0.00    +0.035 A 
ATOM     20  C   UNL     1      -5.265  -6.009  -0.661  0.00  0.00    +0.027 A 
ATOM     21  C   UNL     1      -5.857  -7.239  -0.870  0.00  0.00    +0.047 A 
ATOM     22  C   UNL     1      -6.254  -7.610  -2.146  0.00  0.00    +0.121 A 
ATOM     23  C   UNL     1      -6.055  -6.747  -3.214  0.00  0.00    +0.047 A 
ATOM     24  C   UNL     1      -5.467  -5.515  -3.006  0.00  0.00    +0.027 A 
BRANCH  22  25
ATOM     25  O   UNL     1      -6.837  -8.821  -2.351  0.00  0.00    -0.483 OA
BRANCH  25  26
ATOM     26  C   UNL     1      -7.221  -9.139  -3.691  0.00  0.00    +0.324 C 
BRANCH  26  27
ATOM     27  C   UNL     1      -7.846 -10.509  -3.724  0.00  0.00    +0.248 C 
ATOM     28  O   UNL     1      -7.952 -11.152  -2.700  0.00  0.00    -0.272 OA
ATOM     29  N   UNL     1      -8.286 -11.022  -4.890  0.00  0.00    -0.327 N 
ATOM     30  H   UNL     1      -8.200 -10.508  -5.708  0.00  0.00    +0.145 HD
ATOM     31  H   UNL     1      -8.688 -11.904  -4.911  0.00  0.00    +0.145 HD
ENDBRANCH  26  27
ENDBRANCH  25  26
ENDBRANCH  22  25
ENDBRANCH   9  19
TORSDOF 6
