REMARK  Name = ZINC12036033
REMARK  6 active torsions:
REMARK  status: ('A' for Active; 'I' for Inactive)
REMARK    1  A    between atoms: C_9  and  C_11
REMARK    2  A    between atoms: C_12  and  C_13
REMARK    3  A    between atoms: C_13  and  O_15
REMARK    4  A    between atoms: O_15  and  C_16
REMARK    5  A    between atoms: C_16  and  C_17
REMARK    6  A    between atoms: C_21  and  C_30
REMARK                            x       y       z     vdW  Elec       q    Type
REMARK                         _______ _______ _______ _____ _____    ______ ____
ROOT
ATOM      1  C   UNL     1      -2.989  12.001   0.098  0.00  0.00    +0.258 C 
ATOM      2  O   UNL     1      -3.910  11.215   0.024  0.00  0.00    -0.272 OA
ATOM      3  N   UNL     1      -3.238  13.321   0.210  0.00  0.00    -0.261 N 
ATOM      4  C   UNL     1      -2.142  14.306   0.209  0.00  0.00    +0.168 C 
ATOM      5  C   UNL     1      -2.458  15.351   1.288  0.00  0.00    +0.276 C 
ATOM      6  O   UNL     1      -3.722  15.950   0.994  0.00  0.00    -0.476 OA
ATOM      7  C   UNL     1      -4.767  15.123   0.728  0.00  0.00    +0.143 A 
ATOM      8  C   UNL     1      -4.552  13.806   0.326  0.00  0.00    +0.078 A 
ATOM      9  C   UNL     1      -5.626  12.976   0.059  0.00  0.00    +0.027 A 
ATOM     10  C   UNL     1      -6.917  13.457   0.184  0.00  0.00    +0.002 A 
ATOM     11  C   UNL     1      -7.134  14.763   0.579  0.00  0.00    +0.004 A 
ATOM     12  C   UNL     1      -6.065  15.596   0.851  0.00  0.00    +0.047 A 
ENDROOT
BRANCH   5  13
ATOM     13  C   UNL     1      -1.386  16.411   1.294  0.00  0.00    +0.253 C 
ATOM     14  O   UNL     1      -1.661  17.553   0.991  0.00  0.00    -0.272 OA
ATOM     15  N   UNL     1      -0.122  16.090   1.634  0.00  0.00    -0.326 N 
ATOM     16  H   UNL     1       0.098  15.176   1.876  0.00  0.00    +0.145 HD
ATOM     17  H   UNL     1       0.568  16.772   1.638  0.00  0.00    +0.145 HD
ENDBRANCH   5  13
BRANCH   1  18
ATOM     18  C   UNL     1      -1.567  11.502   0.065  0.00  0.00    +0.328 C 
BRANCH  18  19
ATOM     19  O   UNL     1      -1.564  10.050   0.059  0.00  0.00    -0.452 OA
BRANCH  19  20
ATOM     20  C   UNL     1      -0.361   9.441   0.030  0.00  0.00    +0.332 C 
ATOM     21  O   UNL     1       0.657  10.106   0.011  0.00  0.00    -0.246 OA
BRANCH  20  23
ATOM     22  C   UNL     1       0.920   7.369  -0.006  0.00  0.00    +0.035 C 
ATOM     23  C   UNL     1      -0.281   7.977   0.022  0.00  0.00    +0.093 C 
BRANCH  22  32
ATOM     24  C   UNL     1      -0.002   1.079  -0.008  0.00  0.00    +0.001 A 
ATOM     25  C   UNL     1      -1.224   1.748   0.016  0.00  0.00    +0.002 A 
ATOM     26  C   UNL     1      -1.280   3.107   0.025  0.00  0.00    +0.028 A 
ATOM     27  C   UNL     1      -0.088   3.856   0.002  0.00  0.00    +0.072 A 
ATOM     28  C   UNL     1       1.155   3.171  -0.028  0.00  0.00    +0.000 A 
ATOM     29  C   UNL     1       1.173   1.768  -0.033  0.00  0.00    +0.010 A 
ATOM     30  C   UNL     1       2.350   3.917  -0.052  0.00  0.00    +0.012 A 
ATOM     31  C   UNL     1       2.263   5.278  -0.043  0.00  0.00    +0.028 A 
ATOM     32  C   UNL     1       1.001   5.897  -0.014  0.00  0.00    +0.065 A 
ATOM     33  N   UNL     1      -0.115   5.189   0.008  0.00  0.00    -0.247 NA
ENDBRANCH  22  32
ENDBRANCH  20  23
ENDBRANCH  19  20
ENDBRANCH  18  19
ENDBRANCH   1  18
TORSDOF 6
