REMARK  Name = ZINC58194950
REMARK  5 active torsions:
REMARK  status: ('A' for Active; 'I' for Inactive)
REMARK    1  A    between atoms: C_1  and  C_2
REMARK    2  A    between atoms: C_2  and  C_27
REMARK    3  A    between atoms: C_5  and  N_13
REMARK    4  A    between atoms: C_14  and  C_16
REMARK    5  A    between atoms: C_22  and  C_24
REMARK                            x       y       z     vdW  Elec       q    Type
REMARK                         _______ _______ _______ _____ _____    ______ ____
ROOT
ATOM      1  N   UNL     1      -1.874  -0.682   3.728  0.00  0.00    -0.308 N 
ATOM      2  C   UNL     1      -1.869  -1.560   4.751  0.00  0.00    +0.217 C 
ATOM      3  O   UNL     1      -1.492  -2.699   4.572  0.00  0.00    -0.275 OA
ATOM      4  H   UNL     1      -2.175   0.228   3.872  0.00  0.00    +0.149 HD
ENDROOT
BRANCH   1   9
ATOM      5  C   UNL     1      -0.019   1.526   0.010  0.00  0.00    +0.016 C 
ATOM      6  C   UNL     1       0.002  -0.004   0.002  0.00  0.00    -0.009 C 
ATOM      7  C   UNL     1      -1.433  -0.527  -0.015  0.00  0.00    +0.013 C 
ATOM      8  C   UNL     1      -2.077  -0.216   1.341  0.00  0.00    +0.028 C 
ATOM      9  C   UNL     1      -1.425  -1.104   2.399  0.00  0.00    +0.103 C 
ATOM     10  C   UNL     1       0.076  -0.999   2.326  0.00  0.00    -0.024 A 
ATOM     11  C   UNL     1       0.732  -0.498   1.224  0.00  0.00    -0.037 A 
ATOM     12  C   UNL     1       2.119  -0.434   1.219  0.00  0.00    +0.004 A 
ATOM     13  C   UNL     1       2.845  -0.866   2.310  0.00  0.00    +0.000 A 
ATOM     14  C   UNL     1       2.187  -1.366   3.418  0.00  0.00    +0.000 A 
ATOM     15  C   UNL     1       0.808  -1.432   3.424  0.00  0.00    +0.006 A 
ATOM     16  C   UNL     1       0.731  -0.492  -1.252  0.00  0.00    +0.016 C 
ENDBRANCH   1   9
BRANCH   2  17
ATOM     17  C   UNL     1      -2.331  -1.126   6.118  0.00  0.00    +0.078 C 
ATOM     18  C   UNL     1      -1.452   0.026   6.612  0.00  0.00    +0.032 C 
ATOM     19  C   UNL     1      -1.946   0.487   7.987  0.00  0.00    +0.108 C 
ATOM     20  N   UNL     1      -1.985  -0.672   8.889  0.00  0.00    -0.301 N 
ATOM     21  C   UNL     1      -2.728  -1.868   8.470  0.00  0.00    +0.108 C 
ATOM     22  C   UNL     1      -2.225  -2.303   7.090  0.00  0.00    +0.032 C 
ATOM     23  C   UNL     1      -1.351  -0.639  10.077  0.00  0.00    +0.219 C 
ATOM     24  O   UNL     1      -0.741   0.354  10.412  0.00  0.00    -0.275 OA
BRANCH  23  25
ATOM     25  C   UNL     1      -1.401  -1.836  10.992  0.00  0.00    +0.075 C 
ATOM     26  C   UNL     1      -2.190  -1.697  12.295  0.00  0.00    +0.013 C 
ATOM     27  C   UNL     1      -0.661  -1.736  12.327  0.00  0.00    +0.013 C 
ENDBRANCH  23  25
ENDBRANCH   2  17
TORSDOF 3
