REMARK  Name = ZINC09455476
REMARK  9 active torsions:
REMARK  status: ('A' for Active; 'I' for Inactive)
REMARK    1  A    between atoms: C_1  and  C_2
REMARK    2  A    between atoms: C_2  and  N_3
REMARK    3  A    between atoms: C_4  and  C_25
REMARK    4  A    between atoms: C_7  and  S_8
REMARK    5  A    between atoms: S_8  and  C_9
REMARK    6  A    between atoms: C_9  and  C_10
REMARK    7  A    between atoms: N_12  and  N_13
REMARK    8  A    between atoms: C_25  and  C_26
REMARK    9  A    between atoms: C_26  and  C_27
REMARK                            x       y       z     vdW  Elec       q    Type
REMARK                         _______ _______ _______ _____ _____    ______ ____
ROOT
ATOM      1  C   UNL     1      -4.094   1.739   0.033  0.00  0.00    +0.240 C 
ATOM      2  O   UNL     1      -4.173   2.949   0.039  0.00  0.00    -0.273 OA
ATOM      3  N   UNL     1      -5.214   0.990   0.035  0.00  0.00    -0.223 N 
ATOM      4  H   UNL     1      -5.151   0.022   0.029  0.00  0.00    +0.174 HD
ENDROOT
BRANCH   3   5
ATOM      5  N   UNL     1      -6.471   1.609   0.044  0.00  0.00    -0.137 N 
ATOM      6  C   UNL     1      -7.284   1.691  -1.029  0.00  0.00    +0.263 C 
ATOM      7  O   UNL     1      -7.076   1.259  -2.142  0.00  0.00    -0.271 OA
ATOM      8  C   UNL     1      -8.511   2.434  -0.550  0.00  0.00    +0.114 C 
ATOM      9  C   UNL     1      -9.750   1.556  -0.685  0.00  0.00    +0.035 C 
ATOM     10  C   UNL     1     -10.975   2.315  -0.170  0.00  0.00    +0.003 C 
ATOM     11  C   UNL     1     -11.152   3.603  -0.977  0.00  0.00    +0.000 C 
ATOM     12  C   UNL     1      -9.912   4.484  -0.812  0.00  0.00    +0.003 C 
ATOM     13  C   UNL     1      -8.682   3.733  -1.329  0.00  0.00    +0.035 C 
ATOM     14  N   UNL     1      -8.229   2.714   0.863  0.00  0.00    -0.284 N 
ATOM     15  C   UNL     1      -7.016   2.188   1.121  0.00  0.00    +0.326 C 
ATOM     16  O   UNL     1      -6.475   2.237   2.209  0.00  0.00    -0.251 OA
ATOM     17  H   UNL     1      -8.804   3.181   1.489  0.00  0.00    +0.151 HD
ENDBRANCH   3   5
BRANCH   1  18
ATOM     18  C   UNL     1      -2.742   1.073   0.022  0.00  0.00    +0.174 C 
BRANCH  18  19
ATOM     19  S   UNL     1      -1.446   2.337   0.022  0.00  0.00    -0.077 S 
BRANCH  19  24
ATOM     20  N   UNL     1       1.284   1.726  -0.001  0.00  0.00    -0.306 N 
ATOM     21  C   UNL     1       2.039   0.586  -0.014  0.00  0.00    +0.135 A 
ATOM     22  N   UNL     1       1.217  -0.424  -0.012  0.00  0.00    -0.134 NA
ATOM     23  N   UNL     1       0.002  -0.004   0.002  0.00  0.00    -0.122 NA
ATOM     24  C   UNL     1      -0.016   1.309   0.009  0.00  0.00    +0.192 A 
BRANCH  20  26
ATOM     25  C   UNL     1       1.952   3.582   1.445  0.00  0.00    +0.027 C 
ATOM     26  C   UNL     1       1.769   3.109   0.002  0.00  0.00    +0.122 C 
ENDBRANCH  20  26
BRANCH  21  27
ATOM     27  C   UNL     1       3.545   0.512  -0.029  0.00  0.00    +0.085 C 
BRANCH  27  28
ATOM     28  C   UNL     1       4.040   0.495  -1.476  0.00  0.00    +0.103 C 
BRANCH  28  29
ATOM     29  C   UNL     1       5.545   0.421  -1.491  0.00  0.00    +0.211 C 
ATOM     30  O   UNL     1       6.161   0.386  -0.447  0.00  0.00    -0.276 OA
ATOM     31  N   UNL     1       6.207   0.395  -2.665  0.00  0.00    -0.329 N 
ATOM     32  H   UNL     1       5.715   0.424  -3.500  0.00  0.00    +0.145 HD
ATOM     33  H   UNL     1       7.176   0.348  -2.674  0.00  0.00    +0.145 HD
ENDBRANCH  28  29
ENDBRANCH  27  28
ENDBRANCH  21  27
ENDBRANCH  19  24
ENDBRANCH  18  19
ENDBRANCH   1  18
TORSDOF 8
