REMARK  Name = ZINC12480163
REMARK  11 active torsions:
REMARK  status: ('A' for Active; 'I' for Inactive)
REMARK    1  A    between atoms: C_1  and  C_2
REMARK    2  A    between atoms: C_6  and  C_9
REMARK    3  A    between atoms: C_7  and  N_8
REMARK    4  A    between atoms: C_9  and  O_11
REMARK    5  A    between atoms: O_11  and  C_12
REMARK    6  A    between atoms: C_12  and  C_13
REMARK    7  A    between atoms: N_15  and  C_16
REMARK    8  A    between atoms: C_17  and  C_28
REMARK    9  A    between atoms: C_18  and  C_27
REMARK   10  A    between atoms: C_19  and  C_26
REMARK   11  A    between atoms: N_20  and  C_21
REMARK                            x       y       z     vdW  Elec       q    Type
REMARK                         _______ _______ _______ _____ _____    ______ ____
ROOT
ATOM      1  C   UNL     1      -0.663   8.163   0.716  0.00  0.00    +0.256 C 
ATOM      2  O   UNL     1      -0.987   9.048   1.479  0.00  0.00    -0.272 OA
ATOM      3  N   UNL     1      -1.564   7.655  -0.148  0.00  0.00    -0.268 N 
ATOM      4  H   UNL     1      -1.317   6.920  -0.731  0.00  0.00    +0.156 HD
ENDROOT
BRANCH   3   5
ATOM      5  C   UNL     1      -2.845   8.184  -0.205  0.00  0.00    +0.124 A 
ATOM      6  C   UNL     1      -3.169   9.520  -0.398  0.00  0.00    +0.095 A 
ATOM      7  C   UNL     1      -4.636   9.586  -0.383  0.00  0.00    -0.011 A 
ATOM      8  C   UNL     1      -5.076   8.332  -0.190  0.00  0.00    +0.022 A 
ATOM      9  N   UNL     1      -4.004   7.486  -0.088  0.00  0.00    -0.329 N 
ATOM     10  C   UNL     1      -6.523   7.919  -0.106  0.00  0.00    +0.064 C 
ATOM     11  C   UNL     1      -5.483  10.821  -0.551  0.00  0.00    +0.047 C 
BRANCH   9  12
ATOM     12  C   UNL     1      -4.094   6.039   0.120  0.00  0.00    +0.089 C 
ATOM     13  C   UNL     1      -3.388   5.649   1.435  0.00  0.00    +0.025 C 
ATOM     14  C   UNL     1      -2.715   4.291   1.116  0.00  0.00    +0.002 C 
ATOM     15  C   UNL     1      -2.232   4.482  -0.344  0.00  0.00    +0.002 C 
ATOM     16  C   UNL     1      -3.360   5.297  -1.011  0.00  0.00    +0.025 C 
ENDBRANCH   9  12
BRANCH   6  17
ATOM     17  C   UNL     1      -2.259  10.611  -0.573  0.00  0.00    +0.103 C 
ATOM     18  N   UNL     1      -1.537  11.477  -0.713  0.00  0.00    -0.191 NA
ENDBRANCH   6  17
ENDBRANCH   3   5
BRANCH   1  19
ATOM     19  C   UNL     1       0.746   7.630   0.734  0.00  0.00    +0.328 C 
BRANCH  19  20
ATOM     20  O   UNL     1       1.483   8.247   1.823  0.00  0.00    -0.452 OA
BRANCH  20  21
ATOM     21  C   UNL     1       2.769   7.876   1.979  0.00  0.00    +0.341 C 
ATOM     22  O   UNL     1       3.262   7.060   1.226  0.00  0.00    -0.245 OA
BRANCH  21  28
ATOM     23  C   UNL     1       7.172   8.422   4.290  0.00  0.00    +0.045 C 
ATOM     24  C   UNL     1       5.700   8.729   4.183  0.00  0.00    -0.029 A 
ATOM     25  C   UNL     1       5.101   9.563   5.104  0.00  0.00    +0.005 A 
ATOM     26  C   UNL     1       3.748   9.851   5.014  0.00  0.00    +0.001 A 
ATOM     27  C   UNL     1       2.986   9.308   4.003  0.00  0.00    +0.017 A 
ATOM     28  C   UNL     1       3.578   8.461   3.062  0.00  0.00    +0.080 A 
ATOM     29  C   UNL     1       4.949   8.171   3.156  0.00  0.00    +0.042 A 
BRANCH  29  30
ATOM     30  N   UNL     1       5.550   7.332   2.228  0.00  0.00    -0.357 N 
ATOM     31  H   UNL     1       6.512   7.207   2.238  0.00  0.00    +0.142 HD
ATOM     32  H   UNL     1       5.008   6.870   1.569  0.00  0.00    +0.142 HD
ENDBRANCH  29  30
ENDBRANCH  21  28
ENDBRANCH  20  21
ENDBRANCH  19  20
ENDBRANCH   1  19
TORSDOF 8
