REMARK  Name = ZINC35358467
REMARK  6 active torsions:
REMARK  status: ('A' for Active; 'I' for Inactive)
REMARK    1  A    between atoms: C_5  and  C_7
REMARK    2  A    between atoms: C_7  and  N_8
REMARK    3  A    between atoms: N_8  and  S_9
REMARK    4  A    between atoms: S_9  and  C_12
REMARK    5  A    between atoms: C_17  and  N_18
REMARK    6  A    between atoms: N_18  and  N_19
REMARK                            x       y       z     vdW  Elec       q    Type
REMARK                         _______ _______ _______ _____ _____    ______ ____
ROOT
ATOM      1  S   UNL     1       1.076  -4.277   1.778  0.00  0.00    +0.062 S 
ATOM      2  O   UNL     1       1.288  -4.529   3.160  0.00  0.00    -0.153 OA
ATOM      3  O   UNL     1      -0.195  -4.432   1.161  0.00  0.00    -0.153 OA
ENDROOT
BRANCH   1   4
ATOM      4  C   UNL     1       2.192  -5.318   0.899  0.00  0.00    +0.146 A 
ATOM      5  C   UNL     1       1.741  -6.110  -0.142  0.00  0.00    +0.033 A 
ATOM      6  C   UNL     1       2.656  -6.915  -0.807  0.00  0.00    +0.022 A 
ATOM      7  C   UNL     1       3.979  -6.903  -0.413  0.00  0.00    +0.113 A 
ATOM      8  N   UNL     1       4.381  -6.138   0.583  0.00  0.00    -0.237 NA
ATOM      9  C   UNL     1       3.541  -5.351   1.238  0.00  0.00    +0.159 A 
BRANCH   9  10
ATOM     10  N   UNL     1       4.009  -4.557   2.278  0.00  0.00    -0.266 N 
ATOM     11  H   UNL     1       3.417  -3.917   2.704  0.00  0.00    +0.167 HD
BRANCH  10  12
ATOM     12  N   UNL     1       5.303  -4.678   2.701  0.00  0.00    -0.255 NA
ATOM     13  H   UNL     1       5.947  -4.538   1.937  0.00  0.00    +0.140 HD
ATOM     14  H   UNL     1       5.496  -4.040   3.458  0.00  0.00    +0.140 HD
ENDBRANCH  10  12
ENDBRANCH   9  10
ENDBRANCH   1   4
BRANCH   1  15
ATOM     15  N   UNL     1       1.546  -2.713   1.504  0.00  0.00    -0.185 NA
ATOM     16  H   UNL     1       1.867  -2.167   2.239  0.00  0.00    +0.148 HD
BRANCH  15  17
ATOM     17  C   UNL     1       1.478  -2.153   0.152  0.00  0.00    +0.143 C 
BRANCH  17  22
ATOM     18  C   UNL     1       0.559   1.508   0.207  0.00  0.00    +0.000 A 
ATOM     19  C   UNL     1       1.798   2.103   0.353  0.00  0.00    +0.003 A 
ATOM     20  C   UNL     1       2.935   1.322   0.434  0.00  0.00    +0.038 A 
ATOM     21  C   UNL     1       2.833  -0.057   0.369  0.00  0.00    +0.128 A 
ATOM     22  C   UNL     1       1.591  -0.652   0.223  0.00  0.00    +0.003 A 
ATOM     23  C   UNL     1       0.455   0.131   0.142  0.00  0.00    +0.008 A 
ATOM     24  F   UNL     1       3.943  -0.822   0.448  0.00  0.00    -0.205 F 
ENDBRANCH  17  22
ENDBRANCH  15  17
ENDBRANCH   1  15
TORSDOF 6
