REMARK  Name = ZINC35307976
REMARK  4 active torsions:
REMARK  status: ('A' for Active; 'I' for Inactive)
REMARK    1  A    between atoms: C_5  and  N_7
REMARK    2  A    between atoms: N_10  and  C_13
REMARK    3  A    between atoms: C_13  and  C_14
REMARK    4  A    between atoms: N_16  and  N_17
REMARK                            x       y       z     vdW  Elec       q    Type
REMARK                         _______ _______ _______ _____ _____    ______ ____
ROOT
ATOM      1  C   UNL     1       2.930  -6.709  -1.181  0.00  0.00    +0.244 C 
ATOM      2  O   UNL     1       1.979  -6.495  -1.903  0.00  0.00    -0.273 OA
ATOM      3  N   UNL     1       3.700  -7.796  -1.387  0.00  0.00    -0.223 N 
ATOM      4  H   UNL     1       4.461  -7.968  -0.810  0.00  0.00    +0.174 HD
ENDROOT
BRANCH   3   5
ATOM      5  N   UNL     1       3.402  -8.678  -2.433  0.00  0.00    -0.137 N 
ATOM      6  C   UNL     1       2.831  -9.889  -2.265  0.00  0.00    +0.263 C 
ATOM      7  O   UNL     1       2.492 -10.402  -1.220  0.00  0.00    -0.271 OA
ATOM      8  C   UNL     1       2.704 -10.472  -3.654  0.00  0.00    +0.114 C 
ATOM      9  C   UNL     1       1.239 -10.721  -3.994  0.00  0.00    +0.035 C 
ATOM     10  C   UNL     1       1.130 -11.282  -5.414  0.00  0.00    +0.003 C 
ATOM     11  C   UNL     1       1.922 -12.587  -5.507  0.00  0.00    +0.000 C 
ATOM     12  C   UNL     1       3.393 -12.317  -5.187  0.00  0.00    +0.003 C 
ATOM     13  C   UNL     1       3.511 -11.760  -3.766  0.00  0.00    +0.035 C 
ATOM     14  N   UNL     1       3.266  -9.435  -4.529  0.00  0.00    -0.284 N 
ATOM     15  C   UNL     1       3.643  -8.422  -3.725  0.00  0.00    +0.326 C 
ATOM     16  O   UNL     1       4.148  -7.392  -4.127  0.00  0.00    -0.251 OA
ATOM     17  H   UNL     1       3.346  -9.470  -5.495  0.00  0.00    +0.151 HD
ENDBRANCH   3   5
BRANCH   1  18
ATOM     18  C   UNL     1       3.251  -5.760  -0.055  0.00  0.00    +0.182 C 
BRANCH  18  22
ATOM     19  N   UNL     1       1.237  -2.078  -0.022  0.00  0.00    -0.326 N 
ATOM     20  C   UNL     1       1.256  -2.840   1.235  0.00  0.00    +0.120 C 
ATOM     21  C   UNL     1       2.404  -3.853   1.173  0.00  0.00    +0.104 C 
ATOM     22  N   UNL     1       2.272  -4.665  -0.043  0.00  0.00    -0.291 NA
ATOM     23  C   UNL     1       2.391  -3.839  -1.252  0.00  0.00    +0.104 C 
ATOM     24  C   UNL     1       1.236  -2.825  -1.289  0.00  0.00    +0.120 C 
BRANCH  19  29
ATOM     25  C   UNL     1      -0.017   1.377   0.010  0.00  0.00    +0.002 A 
ATOM     26  C   UNL     1       1.170   2.087   0.002  0.00  0.00    +0.002 A 
ATOM     27  C   UNL     1       2.380   1.417  -0.013  0.00  0.00    +0.022 A 
ATOM     28  C   UNL     1       2.406   0.035  -0.022  0.00  0.00    +0.062 A 
ATOM     29  C   UNL     1       1.215  -0.681  -0.014  0.00  0.00    +0.048 A 
ATOM     30  C   UNL     1       0.002  -0.004   0.002  0.00  0.00    +0.024 A 
ATOM     31 CL   UNL     1       3.925  -0.805  -0.042  0.00  0.00    -0.082 Cl
ENDBRANCH  19  29
ENDBRANCH  18  22
ENDBRANCH   1  18
TORSDOF 4
