REMARK  Name = ZINC48396910
REMARK  5 active torsions:
REMARK  status: ('A' for Active; 'I' for Inactive)
REMARK    1  A    between atoms: C_1  and  C_2
REMARK    2  A    between atoms: C_8  and  N_10
REMARK    3  A    between atoms: N_13  and  C_14
REMARK    4  A    between atoms: N_13  and  C_15
REMARK    5  A    between atoms: C_15  and  C_16
REMARK                            x       y       z     vdW  Elec       q    Type
REMARK                         _______ _______ _______ _____ _____    ______ ____
ROOT
ATOM      1  N   UNL     1       2.116  -0.004   1.231  0.00  0.00    -0.296 N 
ATOM      2  C   UNL     1       2.795   0.128   2.388  0.00  0.00    +0.302 C 
ATOM      3  O   UNL     1       2.266  -0.174   3.441  0.00  0.00    -0.253 OA
ATOM      4  N   UNL     1       4.059   0.594   2.379  0.00  0.00    -0.284 N 
ATOM      5  C   UNL     1       4.696   0.958   1.111  0.00  0.00    +0.134 C 
ATOM      6  H   UNL     1       2.538   0.237   0.392  0.00  0.00    +0.151 HD
ENDROOT
BRANCH   1  13
ATOM      7  C   UNL     1      -0.019   1.526   0.010  0.00  0.00    +0.009 C 
ATOM      8  C   UNL     1       0.002  -0.004   0.002  0.00  0.00    +0.006 C 
ATOM      9  C   UNL     1       0.718  -0.497  -1.257  0.00  0.00    +0.005 C 
ATOM     10  C   UNL     1       0.739  -2.027  -1.265  0.00  0.00    +0.000 C 
ATOM     11  C   UNL     1       1.479  -2.534  -0.026  0.00  0.00    +0.002 C 
ATOM     12  C   UNL     1       0.763  -2.041   1.233  0.00  0.00    +0.022 C 
ATOM     13  C   UNL     1       0.742  -0.511   1.242  0.00  0.00    +0.077 C 
ENDBRANCH   1  13
BRANCH   4  14
ATOM     14  C   UNL     1       4.797   0.737   3.636  0.00  0.00    +0.151 C 
BRANCH  14  15
ATOM     15  C   UNL     1       5.538  -0.541   3.932  0.00  0.00    +0.008 A 
ATOM     16  C   UNL     1       6.795  -0.901   3.574  0.00  0.00    +0.014 A 
ATOM     17  C   UNL     1       7.274  -2.139   3.961  0.00  0.00    +0.023 A 
ATOM     18  C   UNL     1       6.472  -2.956   4.688  0.00  0.00    +0.055 A 
ATOM     19  S   UNL     1       4.992  -1.970   4.852  0.00  0.00    -0.085 S 
ATOM     20 BR   UNL     1       6.830  -4.687   5.359  0.00  0.00    -0.043 Br
ENDBRANCH  14  15
ENDBRANCH   4  14
TORSDOF 3
