REMARK  Name = ZINC20500613
REMARK  9 active torsions:
REMARK  status: ('A' for Active; 'I' for Inactive)
REMARK    1  A    between atoms: C_1  and  O_2
REMARK    2  A    between atoms: O_2  and  C_3
REMARK    3  A    between atoms: C_8  and  C_9
REMARK    4  A    between atoms: C_9  and  N_10
REMARK    5  A    between atoms: C_16  and  C_18
REMARK    6  A    between atoms: C_18  and  C_19
REMARK    7  A    between atoms: N_21  and  C_22
REMARK    8  A    between atoms: C_22  and  C_23
REMARK    9  A    between atoms: C_23  and  O_29
REMARK                            x       y       z     vdW  Elec       q    Type
REMARK                         _______ _______ _______ _____ _____    ______ ____
ROOT
ATOM      1  N   UNL     1       2.593   4.397   1.262  0.00  0.00    +0.391 N 
ATOM      2  C   UNL     1       2.962   3.330   2.205  0.00  0.00    -0.058 C 
ATOM      3  C   UNL     1       3.675   3.958   3.404  0.00  0.00    +0.085 C 
ATOM      4  N   UNL     1       2.888   5.071   3.927  0.00  0.00    -0.318 N 
ATOM      5  C   UNL     1       1.925   5.675   3.223  0.00  0.00    +0.200 C 
ATOM      6  O   UNL     1       1.341   6.613   3.723  0.00  0.00    -0.278 OA
ATOM      7  C   UNL     1       1.536   5.240   1.838  0.00  0.00    +0.028 C 
ATOM      8  H   UNL     1       3.076   5.448   4.943  0.00  0.00    +0.149 HD
ATOM      9  H   UNL     1       3.477   5.025   1.079  0.00  0.00    -0.080 HD
ENDROOT
BRANCH   1  10
ATOM     10  C   UNL     1       2.173   3.837  -0.029  0.00  0.00    -0.038 C 
BRANCH  10  16
ATOM     11  C   UNL     1      -0.305   3.516   0.172  0.00  0.00    +0.121 A 
ATOM     12  C   UNL     1      -1.416   2.705   0.358  0.00  0.00    +0.046 A 
ATOM     13  C   UNL     1      -1.254   1.345   0.537  0.00  0.00    +0.004 A 
ATOM     14  C   UNL     1       0.014   0.793   0.543  0.00  0.00    +0.000 A 
ATOM     15  C   UNL     1       1.122   1.599   0.358  0.00  0.00    +0.005 A 
ATOM     16  C   UNL     1       0.965   2.959   0.173  0.00  0.00    -0.022 A 
BRANCH  11  18
ATOM     17  C   UNL     1      -1.800   5.357   0.002  0.00  0.00    +0.277 C 
ATOM     18  O   UNL     1      -0.462   4.853  -0.010  0.00  0.00    -0.495 OA
ENDBRANCH  11  18
ENDBRANCH  10  16
ENDBRANCH   1  10
BRANCH   7  19
ATOM     19  C   UNL     1       1.333   6.474   0.957  0.00  0.00    +0.089 C 
BRANCH  19  20
ATOM     20  C   UNL     1       2.602   7.286   0.930  0.00  0.00    +0.212 C 
ATOM     21  O   UNL     1       3.547   6.959   1.617  0.00  0.00    -0.276 OA
ATOM     22  N   UNL     1       2.688   8.377   0.143  0.00  0.00    -0.313 N 
ATOM     23  H   UNL     1       1.831   8.674  -0.480  0.00  0.00    +0.149 HD
BRANCH  22  24
ATOM     24  C   UNL     1       3.921   9.167   0.117  0.00  0.00    +0.138 C 
BRANCH  24  25
ATOM     25  C   UNL     1       3.755  10.341  -0.851  0.00  0.00    +0.081 C 
ATOM     26  C   UNL     1       3.339   9.813  -2.225  0.00  0.00    +0.036 C 
ATOM     27  C   UNL     1       3.173  10.987  -3.193  0.00  0.00    +0.003 C 
ATOM     28  C   UNL     1       4.500  11.739  -3.315  0.00  0.00    +0.000 C 
ATOM     29  C   UNL     1       4.915  12.266  -1.940  0.00  0.00    +0.003 C 
ATOM     30  C   UNL     1       5.082  11.093  -0.973  0.00  0.00    +0.036 C 
BRANCH  25  31
ATOM     31  O   UNL     1       2.749  11.227  -0.356  0.00  0.00    -0.387 OA
ATOM     32  H   UNL     1       2.489  12.134  -0.921  0.00  0.00    +0.210 HD
ENDBRANCH  25  31
ENDBRANCH  24  25
ENDBRANCH  22  24
ENDBRANCH  19  20
ENDBRANCH   7  19
TORSDOF 8
