REMARK  Name = ZINC16896766
REMARK  8 active torsions:
REMARK  status: ('A' for Active; 'I' for Inactive)
REMARK    1  A    between atoms: C_1  and  C_2
REMARK    2  A    between atoms: C_2  and  C_3
REMARK    3  A    between atoms: C_3  and  C_5
REMARK    4  A    between atoms: C_3  and  N_15
REMARK    5  A    between atoms: N_7  and  C_8
REMARK    6  A    between atoms: C_11  and  O_14
REMARK    7  A    between atoms: C_22  and  C_28
REMARK    8  A    between atoms: C_23  and  C_25
REMARK                            x       y       z     vdW  Elec       q    Type
REMARK                         _______ _______ _______ _____ _____    ______ ____
ROOT
ATOM      1  N   UNL     1      -0.052  -0.113  -2.442  0.00  0.00    -0.287 N 
ATOM      2  C   UNL     1      -1.324  -0.564  -2.575  0.00  0.00    +0.204 A 
ATOM      3  N   UNL     1      -2.063  -0.249  -3.604  0.00  0.00    -0.230 NA
ATOM      4  C   UNL     1      -1.603   0.521  -4.582  0.00  0.00    +0.116 A 
ATOM      5  C   UNL     1      -0.291   1.048  -4.561  0.00  0.00    +0.076 A 
ATOM      6  C   UNL     1       0.514   0.675  -3.376  0.00  0.00    +0.263 A 
ATOM      7  O   UNL     1       1.659   1.070  -3.249  0.00  0.00    -0.267 OA
ATOM      8  C   UNL     1       0.062   1.843  -5.654  0.00  0.00    -0.017 A 
ATOM      9  C   UNL     1      -0.841   2.065  -6.652  0.00  0.00    +0.079 A 
ATOM     10  S   UNL     1      -2.271   1.150  -6.102  0.00  0.00    -0.064 S 
ATOM     11  C   UNL     1       1.438   2.454  -5.730  0.00  0.00    +0.046 C 
ENDROOT
BRANCH   9  12
ATOM     12  C   UNL     1      -0.677   2.859  -7.874  0.00  0.00    +0.248 C 
ATOM     13  O   UNL     1       0.378   3.425  -8.096  0.00  0.00    -0.270 OA
ATOM     14  N   UNL     1      -1.694   2.962  -8.752  0.00  0.00    -0.325 N 
ATOM     15  H   UNL     1      -2.535   2.511  -8.575  0.00  0.00    +0.145 HD
ATOM     16  H   UNL     1      -1.586   3.487  -9.560  0.00  0.00    +0.145 HD
ENDBRANCH   9  12
BRANCH   1  17
ATOM     17  C   UNL     1       0.724  -0.497  -1.260  0.00  0.00    +0.177 C 
BRANCH  17  18
ATOM     18  C   UNL     1       0.846  -1.998  -1.205  0.00  0.00    +0.240 C 
ATOM     19  O   UNL     1       0.334  -2.680  -2.067  0.00  0.00    -0.273 OA
ATOM     20  N   UNL     1       1.523  -2.582  -0.197  0.00  0.00    -0.284 N 
ATOM     21  H   UNL     1       1.988  -2.036   0.456  0.00  0.00    +0.155 HD
BRANCH  20  22
ATOM     22  C   UNL     1       1.555  -3.979  -0.091  0.00  0.00    +0.034 A 
ATOM     23  C   UNL     1       1.565  -4.581   1.160  0.00  0.00    +0.027 A 
ATOM     24  C   UNL     1       1.591  -5.958   1.264  0.00  0.00    +0.047 A 
ATOM     25  C   UNL     1       1.618  -6.739   0.118  0.00  0.00    +0.117 A 
ATOM     26  C   UNL     1       1.613  -6.138  -1.132  0.00  0.00    +0.047 A 
ATOM     27  C   UNL     1       1.581  -4.762  -1.237  0.00  0.00    +0.027 A 
BRANCH  25  28
ATOM     28  O   UNL     1       1.649  -8.095   0.221  0.00  0.00    -0.507 OA
ATOM     29  H   UNL     1       2.541  -8.466   0.257  0.00  0.00    +0.292 HD
ENDBRANCH  25  28
ENDBRANCH  20  22
ENDBRANCH  17  18
BRANCH  17  31
ATOM     30  C   UNL     1       0.003   1.534   0.004  0.00  0.00    +0.006 C 
ATOM     31  C   UNL     1       0.016   0.004   0.000  0.00  0.00    +0.031 C 
ENDBRANCH  17  31
ENDBRANCH   1  17
TORSDOF 6
