REMARK  Name = ZINC63374125
REMARK  2 active torsions:
REMARK  status: ('A' for Active; 'I' for Inactive)
REMARK    1  A    between atoms: C_8  and  C_16
REMARK    2  A    between atoms: N_20  and  C_23
REMARK                            x       y       z     vdW  Elec       q    Type
REMARK                         _______ _______ _______ _____ _____    ______ ____
ROOT
ATOM      1  C   UNL     1       5.298  -3.697   1.239  0.00  0.00    +0.101 A 
ATOM      2  C   UNL     1       6.042  -2.663   1.723  0.00  0.00    +0.263 A 
ATOM      3  N   UNL     1       7.238  -2.354   1.125  0.00  0.00    -0.274 N 
ATOM      4  C   UNL     1       7.675  -3.063   0.069  0.00  0.00    +0.337 A 
ATOM      5  N   UNL     1       6.955  -4.088  -0.423  0.00  0.00    -0.229 N 
ATOM      6  C   UNL     1       5.778  -4.428   0.138  0.00  0.00    +0.270 A 
ATOM      7  O   UNL     1       5.131  -5.360  -0.308  0.00  0.00    -0.267 OA
ATOM      8  O   UNL     1       8.737  -2.775  -0.448  0.00  0.00    -0.246 OA
ATOM      9  O   UNL     1       5.606  -1.948   2.783  0.00  0.00    -0.267 OA
ATOM     10  H   UNL     1       7.771  -1.618   1.466  0.00  0.00    +0.173 HD
ENDROOT
BRANCH   1  17
ATOM     11  C   UNL     1      -1.418  -2.152   1.691  0.00  0.00    +0.001 A 
ATOM     12  C   UNL     1      -0.785  -1.007   1.188  0.00  0.00    +0.002 A 
ATOM     13  C   UNL     1       0.514  -0.995   0.822  0.00  0.00    +0.026 A 
ATOM     14  C   UNL     1       1.306  -2.170   0.935  0.00  0.00    +0.043 A 
ATOM     15  N   UNL     1       2.573  -2.397   0.673  0.00  0.00    -0.376 N 
ATOM     16  C   UNL     1       2.842  -3.815   0.886  0.00  0.00    +0.128 C 
ATOM     17  C   UNL     1       3.981  -4.057   1.879  0.00  0.00    +0.121 C 
ATOM     18  N   UNL     1       3.981  -5.481   2.248  0.00  0.00    -0.307 NA
ATOM     19  C   UNL     1       2.797  -5.879   3.015  0.00  0.00    +0.086 C 
ATOM     20  C   UNL     1       1.534  -5.748   2.143  0.00  0.00    +0.048 C 
ATOM     21  C   UNL     1       1.574  -4.374   1.513  0.00  0.00    -0.035 C 
ATOM     22  C   UNL     1       0.663  -3.394   1.474  0.00  0.00    -0.001 A 
ATOM     23  C   UNL     1      -0.757  -3.321   1.844  0.00  0.00    +0.010 A 
ATOM     24  H   UNL     1       4.097  -6.065   1.433  0.00  0.00    +0.123 HD
ATOM     25  H   UNL     1       3.221  -1.734   0.385  0.00  0.00    +0.160 HD
ENDBRANCH   1  17
BRANCH   5  26
ATOM     26  C   UNL     1       7.434  -4.809  -1.525  0.00  0.00    +0.054 A 
ATOM     27  C   UNL     1       7.105  -4.411  -2.814  0.00  0.00    +0.028 A 
ATOM     28  C   UNL     1       7.579  -5.123  -3.898  0.00  0.00    +0.022 A 
ATOM     29  C   UNL     1       8.381  -6.234  -3.700  0.00  0.00    +0.041 A 
ATOM     30  C   UNL     1       8.710  -6.633  -2.417  0.00  0.00    +0.022 A 
ATOM     31  C   UNL     1       8.244  -5.920  -1.330  0.00  0.00    +0.028 A 
ATOM     32 CL   UNL     1       8.974  -7.128  -5.065  0.00  0.00    -0.084 Cl
ENDBRANCH   5  26
TORSDOF 2
