REMARK  Name = ZINC12512584
REMARK  10 active torsions:
REMARK  status: ('A' for Active; 'I' for Inactive)
REMARK    1  A    between atoms: C_1  and  C_2
REMARK    2  A    between atoms: C_5  and  C_35
REMARK    3  A    between atoms: C_6  and  N_8
REMARK    4  A    between atoms: C_9  and  C_34
REMARK    5  A    between atoms: C_10  and  C_25
REMARK    6  A    between atoms: C_11  and  C_16
REMARK    7  A    between atoms: C_18  and  C_23
REMARK    8  A    between atoms: N_19  and  C_22
REMARK    9  A    between atoms: C_20  and  C_21
REMARK   10  A    between atoms: C_30  and  C_33
REMARK                            x       y       z     vdW  Elec       q    Type
REMARK                         _______ _______ _______ _____ _____    ______ ____
ROOT
ATOM      1  N   UNL     1       1.600  -6.411  -0.110  0.00  0.00    -0.255 N 
ATOM      2  C   UNL     1       0.981  -5.201  -0.254  0.00  0.00    +0.025 C 
ATOM      3  C   UNL     1       1.696  -4.064  -0.391  0.00  0.00    +0.056 C 
ATOM      4  C   UNL     1       3.207  -4.176  -0.385  0.00  0.00    +0.141 C 
ATOM      5  N   UNL     1       3.775  -5.524  -0.217  0.00  0.00    -0.315 N 
ATOM      6  C   UNL     1       2.930  -6.566  -0.092  0.00  0.00    +0.142 C 
ATOM      7  S   UNL     1       3.577  -8.140   0.095  0.00  0.00    -0.018 S 
ATOM      8  C   UNL     1      -0.525  -5.135  -0.261  0.00  0.00    +0.062 C 
ATOM      9  H   UNL     1       4.736  -5.660  -0.201  0.00  0.00    +0.149 HD
ENDROOT
BRANCH   3  10
ATOM     10  C   UNL     1       1.055  -2.810  -0.540  0.00  0.00    +0.249 C 
ATOM     11  O   UNL     1      -0.154  -2.756  -0.671  0.00  0.00    -0.270 OA
ATOM     12  N   UNL     1       1.784  -1.677  -0.538  0.00  0.00    -0.264 N 
ATOM     13  C   UNL     1       1.166  -0.449  -0.771  0.00  0.00    +0.168 A 
ATOM     14  C   UNL     1      -0.213  -0.224  -1.026  0.00  0.00    +0.091 A 
ATOM     15  C   UNL     1      -0.302   1.116  -1.183  0.00  0.00    +0.136 A 
ATOM     16  O   UNL     1       0.938   1.603  -1.027  0.00  0.00    -0.358 OA
ATOM     17  N   UNL     1       1.738   0.726  -0.800  0.00  0.00    -0.063 NA
ATOM     18  C   UNL     1      -1.549   1.907  -1.482  0.00  0.00    +0.089 C 
ATOM     19  H   UNL     1       2.740  -1.715  -0.374  0.00  0.00    +0.157 HD
ENDBRANCH   3  10
BRANCH   1  25
ATOM     20  C   UNL     1      -0.825 -10.155  -2.180  0.00  0.00    +0.044 C 
ATOM     21  C   UNL     1      -0.391  -9.385  -0.960  0.00  0.00    -0.049 A 
ATOM     22  C   UNL     1      -0.784  -9.805   0.298  0.00  0.00    +0.004 A 
ATOM     23  C   UNL     1      -0.388  -9.101   1.420  0.00  0.00    +0.005 A 
ATOM     24  C   UNL     1       0.403  -7.976   1.288  0.00  0.00    -0.029 A 
ATOM     25  C   UNL     1       0.799  -7.552   0.027  0.00  0.00    +0.043 A 
ATOM     26  C   UNL     1       0.396  -8.258  -1.098  0.00  0.00    +0.027 A 
ATOM     27  C   UNL     1       0.833  -7.209   2.512  0.00  0.00    +0.045 C 
ENDBRANCH   1  25
BRANCH   4  28
ATOM     28  C   UNL     1       3.720  -3.608  -1.683  0.00  0.00    -0.001 A 
ATOM     29  C   UNL     1       2.961  -3.368  -2.834  0.00  0.00    +0.044 A 
ATOM     30  C   UNL     1       3.817  -2.847  -3.781  0.00  0.00    +0.120 A 
ATOM     31  N   UNL     1       5.070  -2.780  -3.217  0.00  0.00    -0.339 N 
ATOM     32  C   UNL     1       4.997  -3.245  -1.944  0.00  0.00    +0.022 A 
ATOM     33  C   UNL     1       6.151  -3.342  -0.980  0.00  0.00    +0.064 C 
ATOM     34  C   UNL     1       6.280  -2.289  -3.881  0.00  0.00    +0.149 C 
BRANCH  30  35
ATOM     35  C   UNL     1       3.465  -2.451  -5.112  0.00  0.00    +0.117 C 
ATOM     36  N   UNL     1       3.187  -2.137  -6.168  0.00  0.00    -0.189 NA
ENDBRANCH  30  35
ENDBRANCH   4  28
TORSDOF 4
