REMARK  Name = ZINC26561759
REMARK  6 active torsions:
REMARK  status: ('A' for Active; 'I' for Inactive)
REMARK    1  A    between atoms: C_3  and  C_12
REMARK    2  A    between atoms: C_6  and  C_7
REMARK    3  A    between atoms: C_7  and  N_8
REMARK    4  A    between atoms: C_12  and  O_14
REMARK    5  A    between atoms: O_14  and  C_15
REMARK    6  A    between atoms: C_15  and  C_16
REMARK                            x       y       z     vdW  Elec       q    Type
REMARK                         _______ _______ _______ _____ _____    ______ ____
ROOT
ATOM      1  C   UNL     1      -0.321   7.729   0.046  0.00  0.00    +0.339 C 
ATOM      2  O   UNL     1      -0.223   8.334  -1.004  0.00  0.00    -0.245 OA
ENDROOT
BRANCH   1   5
ATOM      3  C   UNL     1      -0.923   4.217   1.230  0.00  0.00    +0.006 A 
ATOM      4  C   UNL     1      -0.684   5.576   1.243  0.00  0.00    +0.015 A 
ATOM      5  C   UNL     1      -0.571   6.273   0.039  0.00  0.00    +0.059 A 
ATOM      6  C   UNL     1      -0.695   5.589  -1.172  0.00  0.00    +0.015 A 
ATOM      7  C   UNL     1      -0.928   4.229  -1.171  0.00  0.00    +0.006 A 
ATOM      8  C   UNL     1      -1.040   3.544   0.026  0.00  0.00    -0.030 A 
BRANCH   8   9
ATOM      9  C   UNL     1      -1.295   2.059   0.019  0.00  0.00    +0.141 C 
BRANCH   9  10
ATOM     10  N   UNL     1      -0.016   1.344   0.009  0.00  0.00    -0.295 N 
ATOM     11  C   UNL     1       0.002  -0.004   0.002  0.00  0.00    +0.297 C 
ATOM     12  O   UNL     1      -1.042  -0.626   0.009  0.00  0.00    -0.253 OA
ATOM     13  N   UNL     1       1.178  -0.662  -0.013  0.00  0.00    -0.313 N 
ATOM     14  H   UNL     1       0.929   1.907   0.008  0.00  0.00    +0.151 HD
ATOM     15  H   UNL     1       1.193  -1.762  -0.019  0.00  0.00    +0.146 HD
ATOM     16  H   UNL     1       2.123  -0.099  -0.019  0.00  0.00    +0.146 HD
ENDBRANCH   9  10
ENDBRANCH   8   9
ENDBRANCH   1   5
BRANCH   1  17
ATOM     17  O   UNL     1      -0.202   8.387   1.215  0.00  0.00    -0.456 OA
BRANCH  17  18
ATOM     18  C   UNL     1       0.043   9.816   1.146  0.00  0.00    +0.268 C 
BRANCH  18  19
ATOM     19  C   UNL     1       0.147  10.377   2.541  0.00  0.00    -0.005 A 
ATOM     20  C   UNL     1      -0.987  10.841   3.183  0.00  0.00    +0.056 A 
ATOM     21  C   UNL     1      -0.889  11.351   4.467  0.00  0.00    +0.164 A 
ATOM     22  C   UNL     1       0.344  11.405   5.101  0.00  0.00    +0.180 A 
ATOM     23  C   UNL     1       1.478  10.944   4.454  0.00  0.00    +0.087 A 
ATOM     24  C   UNL     1       1.375  10.430   3.172  0.00  0.00    +0.031 A 
ATOM     25 CL   UNL     1       3.022  11.010   5.246  0.00  0.00    -0.080 Cl
ATOM     26  O   UNL     1       0.431  11.916   6.364  0.00  0.00    -0.487 OA
ATOM     27  C   UNL     1      -0.182  11.140   7.396  0.00  0.00    +0.232 C 
ATOM     28  C   UNL     1      -1.668  11.449   7.492  0.00  0.00    +0.082 C 
ATOM     29  C   UNL     1      -2.428  11.039   6.241  0.00  0.00    +0.232 C 
ATOM     30  O   UNL     1      -2.001  11.807   5.114  0.00  0.00    -0.488 OA
ENDBRANCH  18  19
ENDBRANCH  17  18
ENDBRANCH   1  17
TORSDOF 6
