REMARK  Name = ZINC00492394
REMARK  5 active torsions:
REMARK  status: ('A' for Active; 'I' for Inactive)
REMARK    1  A    between atoms: C_3  and  C_8
REMARK    2  A    between atoms: C_5  and  N_7
REMARK    3  A    between atoms: C_13  and  N_22
REMARK    4  A    between atoms: C_17  and  N_21
REMARK    5  A    between atoms: C_18  and  C_19
REMARK                            x       y       z     vdW  Elec       q    Type
REMARK                         _______ _______ _______ _____ _____    ______ ____
ROOT
ATOM      1  C   UNL     1       1.257   2.148   0.002  0.00  0.00    +0.098 C 
ATOM      2  C   UNL     1       2.420   1.278   0.397  0.00  0.00    +0.008 A 
ATOM      3  C   UNL     1       3.608   1.866   0.791  0.00  0.00    +0.010 A 
ATOM      4  C   UNL     1       4.685   1.080   1.155  0.00  0.00    +0.033 A 
ATOM      5  C   UNL     1       4.576  -0.299   1.128  0.00  0.00    +0.130 A 
ATOM      6  C   UNL     1       3.392  -0.891   0.737  0.00  0.00    +0.079 A 
ATOM      7  C   UNL     1       2.308  -0.103   0.369  0.00  0.00    +0.136 A 
ATOM      8  O   UNL     1       1.151  -0.700  -0.012  0.00  0.00    -0.441 OA
ATOM      9  C   UNL     1       0.002  -0.004   0.002  0.00  0.00    +0.199 C 
ATOM     10  C   UNL     1      -0.016   1.350   0.009  0.00  0.00    +0.098 C 
ENDROOT
BRANCH   1  13
ATOM     11  C   UNL     1       1.846   2.337  -3.724  0.00  0.00    +0.002 A 
ATOM     12  C   UNL     1       1.630   1.836  -2.453  0.00  0.00    +0.005 A 
ATOM     13  C   UNL     1       1.493   2.698  -1.381  0.00  0.00    -0.033 A 
ATOM     14  C   UNL     1       1.566   4.064  -1.578  0.00  0.00    +0.027 A 
ATOM     15  C   UNL     1       1.789   4.569  -2.852  0.00  0.00    +0.025 A 
ATOM     16  C   UNL     1       1.926   3.700  -3.927  0.00  0.00    +0.023 A 
BRANCH  15  17
ATOM     17  N   UNL     1       1.869   5.949  -3.053  0.00  0.00    -0.358 N 
ATOM     18  H   UNL     1       2.021   6.301  -3.944  0.00  0.00    +0.142 HD
ATOM     19  H   UNL     1       1.773   6.555  -2.302  0.00  0.00    +0.142 HD
ENDBRANCH  15  17
ENDBRANCH   1  13
BRANCH   9  20
ATOM     20  N   UNL     1      -1.189  -0.686   0.009  0.00  0.00    -0.328 N 
ATOM     21  H   UNL     1      -2.027  -0.198   0.019  0.00  0.00    +0.145 HD
ATOM     22  H   UNL     1      -1.192  -1.656   0.004  0.00  0.00    +0.145 HD
ENDBRANCH   9  20
BRANCH   5  23
ATOM     23  N   UNL     1       5.730  -1.140   1.520  0.00  0.00    +0.057 N 
ATOM     24  O   UNL     1       5.634  -2.354   1.496  0.00  0.00    -0.126 OA
ATOM     25  O   UNL     1       6.774  -0.617   1.865  0.00  0.00    -0.126 OA
ENDBRANCH   5  23
BRANCH  10  26
ATOM     26  C   UNL     1      -1.274   2.035   0.019  0.00  0.00    +0.101 C 
ATOM     27  N   UNL     1      -2.272   2.578   0.027  0.00  0.00    -0.191 NA
ENDBRANCH  10  26
TORSDOF 5
