REMARK  Name = ZINC02312291
REMARK  10 active torsions:
REMARK  status: ('A' for Active; 'I' for Inactive)
REMARK    1  A    between atoms: C_1  and  C_2
REMARK    2  A    between atoms: C_2  and  O_3
REMARK    3  A    between atoms: O_3  and  C_4
REMARK    4  A    between atoms: C_9  and  C_10
REMARK    5  A    between atoms: C_12  and  C_34
REMARK    6  A    between atoms: C_13  and  S_22
REMARK    7  A    between atoms: S_22  and  C_23
REMARK    8  A    between atoms: C_23  and  C_24
REMARK    9  A    between atoms: N_26  and  C_27
REMARK   10  A    between atoms: C_30  and  C_33
REMARK                            x       y       z     vdW  Elec       q    Type
REMARK                         _______ _______ _______ _____ _____    ______ ____
ROOT
ATOM      1  C   UNL     1      -3.988  -1.477   0.031  0.00  0.00    +0.101 C 
ATOM      2  C   UNL     1      -4.744  -1.734   1.322  0.00  0.00    +0.073 C 
ATOM      3  C   UNL     1      -6.062  -2.142   1.214  0.00  0.00    +0.112 C 
ATOM      4  N   UNL     1      -6.663  -2.309   0.035  0.00  0.00    -0.244 NA
ATOM      5  C   UNL     1      -6.109  -2.117  -1.137  0.00  0.00    +0.050 C 
ATOM      6  C   UNL     1      -4.773  -1.702  -1.247  0.00  0.00    +0.029 C 
ATOM      7  C   UNL     1      -4.187  -1.504  -2.438  0.00  0.00    +0.162 C 
ATOM      8  C   UNL     1      -4.938  -1.717  -3.726  0.00  0.00    +0.080 C 
ATOM      9  C   UNL     1      -6.006  -2.794  -3.515  0.00  0.00    +0.014 C 
ATOM     10  C   UNL     1      -6.928  -2.350  -2.385  0.00  0.00    +0.056 C 
ATOM     11  O   UNL     1      -2.900  -1.105  -2.483  0.00  0.00    -0.292 OA
ENDROOT
BRANCH   1  17
ATOM     12  C   UNL     1      -1.505  -1.828  -0.002  0.00  0.00    +0.125 A 
ATOM     13  C   UNL     1      -0.394  -2.660  -0.020  0.00  0.00    +0.046 A 
ATOM     14  C   UNL     1      -0.560  -4.031  -0.035  0.00  0.00    +0.004 A 
ATOM     15  C   UNL     1      -1.831  -4.575  -0.032  0.00  0.00    +0.001 A 
ATOM     16  C   UNL     1      -2.939  -3.749  -0.015  0.00  0.00    +0.008 A 
ATOM     17  C   UNL     1      -2.779  -2.377   0.006  0.00  0.00    +0.007 A 
BRANCH  12  18
ATOM     18  O   UNL     1      -1.345  -0.479   0.013  0.00  0.00    -0.492 OA
BRANCH  18  20
ATOM     19  C   UNL     1      -0.025   1.546   0.022  0.00  0.00    +0.048 C 
ATOM     20  C   UNL     1      -0.004   0.016   0.003  0.00  0.00    +0.225 C 
ENDBRANCH  18  20
ENDBRANCH  12  18
ENDBRANCH   1  17
BRANCH   2  21
ATOM     21  C   UNL     1      -4.119  -1.561   2.599  0.00  0.00    +0.098 C 
ATOM     22  N   UNL     1      -3.623  -1.424   3.612  0.00  0.00    -0.191 NA
ENDBRANCH   2  21
BRANCH   3  23
ATOM     23  S   UNL     1      -6.979  -2.453   2.687  0.00  0.00    -0.096 S 
BRANCH  23  24
ATOM     24  C   UNL     1      -8.616  -2.953   2.087  0.00  0.00    +0.172 C 
BRANCH  24  25
ATOM     25  C   UNL     1      -9.512  -3.252   3.261  0.00  0.00    +0.227 C 
ATOM     26  O   UNL     1      -9.087  -3.139   4.392  0.00  0.00    -0.275 OA
ATOM     27  N   UNL     1     -10.785  -3.644   3.055  0.00  0.00    -0.285 N 
ATOM     28  H   UNL     1     -11.145  -3.670   2.155  0.00  0.00    +0.155 HD
BRANCH  27  29
ATOM     29  C   UNL     1     -11.587  -4.015   4.141  0.00  0.00    +0.033 A 
ATOM     30  C   UNL     1     -12.516  -5.038   4.002  0.00  0.00    +0.023 A 
ATOM     31  C   UNL     1     -13.306  -5.401   5.074  0.00  0.00    +0.005 A 
ATOM     32  C   UNL     1     -13.172  -4.748   6.286  0.00  0.00    -0.050 A 
ATOM     33  C   UNL     1     -12.248  -3.729   6.428  0.00  0.00    +0.005 A 
ATOM     34  C   UNL     1     -11.451  -3.365   5.360  0.00  0.00    +0.023 A 
ATOM     35  C   UNL     1     -14.036  -5.147   7.455  0.00  0.00    +0.044 C 
ENDBRANCH  27  29
ENDBRANCH  24  25
ENDBRANCH  23  24
ENDBRANCH   3  23
TORSDOF 8
