REMARK  Name = ZINC08644933
REMARK  8 active torsions:
REMARK  status: ('A' for Active; 'I' for Inactive)
REMARK    1  A    between atoms: C_1  and  C_2
REMARK    2  A    between atoms: C_2  and  C_25
REMARK    3  A    between atoms: N_5  and  C_9
REMARK    4  A    between atoms: C_9  and  C_10
REMARK    5  A    between atoms: N_12  and  C_13
REMARK    6  A    between atoms: C_14  and  C_21
REMARK    7  A    between atoms: C_21  and  O_23
REMARK    8  A    between atoms: O_23  and  C_24
REMARK                            x       y       z     vdW  Elec       q    Type
REMARK                         _______ _______ _______ _____ _____    ______ ____
ROOT
ATOM      1  C   UNL     1       3.157  -2.720   1.284  0.00  0.00    +0.047 C 
ATOM      2  C   UNL     1       3.669  -2.162  -0.045  0.00  0.00    +0.136 C 
ATOM      3  C   UNL     1       2.859  -2.712  -1.202  0.00  0.00    +0.251 C 
ATOM      4  O   UNL     1       1.671  -2.569  -1.397  0.00  0.00    -0.272 OA
ATOM      5  N   UNL     1       3.734  -3.392  -1.969  0.00  0.00    -0.215 N 
ATOM      6  C   UNL     1       4.971  -3.348  -1.463  0.00  0.00    +0.310 C 
ATOM      7  O   UNL     1       5.931  -3.888  -1.978  0.00  0.00    -0.252 OA
ATOM      8  N   UNL     1       5.035  -2.641  -0.321  0.00  0.00    -0.281 N 
ATOM      9  H   UNL     1       5.826  -2.478   0.217  0.00  0.00    +0.152 HD
ENDROOT
BRANCH   2  10
ATOM     10  C   UNL     1       3.627  -0.655  -0.037  0.00  0.00    -0.008 A 
ATOM     11  C   UNL     1       4.771   0.062  -0.210  0.00  0.00    +0.007 A 
ATOM     12  C   UNL     1       4.752   1.455  -0.205  0.00  0.00    +0.001 A 
ATOM     13  C   UNL     1       3.589   2.139  -0.027  0.00  0.00    +0.008 A 
ATOM     14  C   UNL     1       2.388   1.433   0.155  0.00  0.00    -0.018 A 
ATOM     15  C   UNL     1       2.407   0.016   0.150  0.00  0.00    -0.012 A 
ATOM     16  C   UNL     1       1.206  -0.690   0.332  0.00  0.00    +0.009 A 
ATOM     17  C   UNL     1       0.043  -0.006   0.509  0.00  0.00    +0.001 A 
ATOM     18  C   UNL     1       0.024   1.388   0.514  0.00  0.00    +0.001 A 
ATOM     19  C   UNL     1       1.167   2.105   0.341  0.00  0.00    +0.008 A 
ENDBRANCH   2  10
BRANCH   5  20
ATOM     20  C   UNL     1       3.374  -4.092  -3.204  0.00  0.00    +0.214 C 
BRANCH  20  21
ATOM     21  C   UNL     1       3.513  -3.152  -4.374  0.00  0.00    +0.236 C 
ATOM     22  O   UNL     1       3.877  -2.010  -4.194  0.00  0.00    -0.274 OA
ATOM     23  N   UNL     1       3.233  -3.582  -5.620  0.00  0.00    -0.278 N 
ATOM     24  H   UNL     1       2.942  -4.496  -5.765  0.00  0.00    +0.155 HD
BRANCH  23  25
ATOM     25  C   UNL     1       3.362  -2.717  -6.696  0.00  0.00    +0.086 A 
ATOM     26  C   UNL     1       3.123  -2.970  -8.037  0.00  0.00    +0.091 A 
ATOM     27  C   UNL     1       3.337  -1.873  -8.981  0.00  0.00    -0.021 A 
ATOM     28  C   UNL     1       3.748  -0.718  -8.430  0.00  0.00    -0.004 A 
ATOM     29  S   UNL     1       3.852  -1.058  -6.690  0.00  0.00    -0.077 S 
ATOM     30  C   UNL     1       3.941   0.362  -9.461  0.00  0.00    +0.043 C 
ATOM     31  C   UNL     1       3.181  -0.148 -10.705  0.00  0.00    +0.010 C 
ATOM     32  C   UNL     1       3.218  -1.674 -10.493  0.00  0.00    +0.037 C 
BRANCH  26  33
ATOM     33  C   UNL     1       2.674  -4.287  -8.493  0.00  0.00    +0.342 C 
ATOM     34  O   UNL     1       1.485  -4.535  -8.561  0.00  0.00    -0.245 OA
BRANCH  33  35
ATOM     35  O   UNL     1       3.579  -5.227  -8.838  0.00  0.00    -0.464 OA
ATOM     36  C   UNL     1       3.062  -6.509  -9.280  0.00  0.00    +0.280 C 
ENDBRANCH  33  35
ENDBRANCH  26  33
ENDBRANCH  23  25
ENDBRANCH  20  21
ENDBRANCH   5  20
TORSDOF 6
