REMARK  Name = ZINC39684699
REMARK  10 active torsions:
REMARK  status: ('A' for Active; 'I' for Inactive)
REMARK    1  A    between atoms: C_1  and  C_2
REMARK    2  A    between atoms: C_3  and  C_8
REMARK    3  A    between atoms: C_4  and  C_7
REMARK    4  A    between atoms: C_12  and  C_21
REMARK    5  A    between atoms: N_23  and  C_24
REMARK    6  A    between atoms: C_24  and  C_26
REMARK    7  A    between atoms: C_24  and  C_27
REMARK    8  A    between atoms: C_27  and  C_28
REMARK    9  A    between atoms: C_27  and  C_29
REMARK   10  A    between atoms: C_27  and  C_30
REMARK                            x       y       z     vdW  Elec       q    Type
REMARK                         _______ _______ _______ _____ _____    ______ ____
ROOT
ATOM      1  C   UNL     1       0.024  -0.418  -2.722  0.00  0.00    +0.252 C 
ATOM      2  O   UNL     1       1.057  -0.172  -3.315  0.00  0.00    -0.270 OA
ATOM      3  N   UNL     1      -1.164  -0.215  -3.325  0.00  0.00    -0.296 N 
ATOM      4  C   UNL     1      -2.517  -0.447  -2.768  0.00  0.00    +0.121 C 
ATOM      5  C   UNL     1      -3.361   0.741  -3.283  0.00  0.00    +0.100 C 
ATOM      6  C   UNL     1      -2.631   1.220  -4.550  0.00  0.00    -0.004 C 
ATOM      7  C   UNL     1      -1.412   0.297  -4.694  0.00  0.00    +0.115 C 
ATOM      8  C   UNL     1      -2.175   2.666  -4.382  0.00  0.00    -0.010 C 
ATOM      9  C   UNL     1      -1.503   3.137  -5.675  0.00  0.00    -0.082 C 
ATOM     10  N   UNL     1      -2.452   3.029  -6.789  0.00  0.00    +0.379 N 
ATOM     11  C   UNL     1      -2.815   1.623  -7.003  0.00  0.00    -0.082 C 
ATOM     12  C   UNL     1      -3.542   1.087  -5.766  0.00  0.00    -0.010 C 
ATOM     13  H   UNL     1      -3.283   3.560  -6.574  0.00  0.00    -0.086 HD
ATOM     14  H   UNL     1      -2.028   3.397  -7.627  0.00  0.00    -0.086 HD
ENDROOT
BRANCH   1  17
ATOM     15  C   UNL     1       0.035   1.356  -0.014  0.00  0.00    +0.070 C 
ATOM     16  C   UNL     1       0.076  -0.147  -0.112  0.00  0.00    +0.093 A 
ATOM     17  C   UNL     1       0.071  -0.938  -1.344  0.00  0.00    +0.101 A 
ATOM     18  C   UNL     1       0.118  -2.251  -0.970  0.00  0.00    +0.147 A 
ATOM     19  O   UNL     1       0.150  -2.300   0.364  0.00  0.00    -0.359 OA
ATOM     20  N   UNL     1       0.128  -0.985   0.881  0.00  0.00    -0.083 NA
ATOM     21  C   UNL     1       0.131  -3.436  -1.900  0.00  0.00    +0.090 C 
ENDBRANCH   1  17
BRANCH   5  22
ATOM     22  C   UNL     1      -4.757   0.286  -3.620  0.00  0.00    +0.218 C 
ATOM     23  O   UNL     1      -4.947  -0.843  -4.021  0.00  0.00    -0.275 OA
ATOM     24  N   UNL     1      -5.796   1.133  -3.474  0.00  0.00    -0.312 N 
ATOM     25  H   UNL     1      -5.644   2.035  -3.153  0.00  0.00    +0.149 HD
BRANCH  24  26
ATOM     26  C   UNL     1      -7.153   0.690  -3.801  0.00  0.00    +0.075 C 
ATOM     27  C   UNL     1      -7.760  -0.028  -2.594  0.00  0.00    +0.028 C 
BRANCH  26  28
ATOM     28  C   UNL     1      -8.014   1.904  -4.158  0.00  0.00    -0.020 C 
ATOM     29  C   UNL     1      -7.407   2.623  -5.364  0.00  0.00    +0.012 C 
ATOM     30  C   UNL     1      -9.431   1.442  -4.499  0.00  0.00    +0.012 C 
ATOM     31  C   UNL     1      -8.062   2.862  -2.966  0.00  0.00    +0.012 C 
ENDBRANCH  26  28
ENDBRANCH  24  26
ENDBRANCH   5  22
TORSDOF 4
