REMARK  Name = ZINC24246033
REMARK  3 active torsions:
REMARK  status: ('A' for Active; 'I' for Inactive)
REMARK    1  A    between atoms: C_9  and  C_11
REMARK    2  A    between atoms: C_11  and  N_12
REMARK    3  A    between atoms: C_18  and  C_20
REMARK                            x       y       z     vdW  Elec       q    Type
REMARK                         _______ _______ _______ _____ _____    ______ ____
ROOT
ATOM      1  N   UNL     1       0.446  -5.764  -0.909  0.00  0.00    -0.294 NA
ATOM      2  C   UNL     1      -0.477  -5.592  -2.039  0.00  0.00    +0.104 C 
ATOM      3  C   UNL     1       0.321  -5.228  -3.295  0.00  0.00    +0.123 C 
ATOM      4  N   UNL     1       1.366  -6.243  -3.495  0.00  0.00    -0.294 N 
ATOM      5  C   UNL     1       2.245  -6.570  -2.362  0.00  0.00    +0.123 C 
ATOM      6  C   UNL     1       1.371  -6.881  -1.142  0.00  0.00    +0.104 C 
ATOM      7  C   UNL     1       1.515  -6.858  -4.686  0.00  0.00    +0.263 C 
ATOM      8  O   UNL     1       2.389  -7.692  -4.835  0.00  0.00    -0.268 OA
ENDROOT
BRANCH   7   9
ATOM      9  C   UNL     1       0.624  -6.522  -5.801  0.00  0.00    +0.103 A 
ATOM     10  C   UNL     1       0.264  -7.358  -6.837  0.00  0.00    +0.052 A 
ATOM     11  C   UNL     1      -0.596  -6.634  -7.670  0.00  0.00    +0.059 A 
ATOM     12  C   UNL     1      -0.742  -5.396  -7.140  0.00  0.00    +0.103 A 
ATOM     13  N   UNL     1      -0.010  -5.317  -6.001  0.00  0.00    -0.356 N 
ATOM     14  H   UNL     1       0.057  -4.540  -5.424  0.00  0.00    +0.166 HD
ATOM     15 CL   UNL     1      -1.342  -7.219  -9.124  0.00  0.00    -0.082 Cl
ENDBRANCH   7   9
BRANCH   1  16
ATOM     16  C   UNL     1      -0.290  -5.944   0.349  0.00  0.00    +0.138 C 
BRANCH  16  25
ATOM     17  C   UNL     1      -2.907  -1.115   1.603  0.00  0.00    +0.104 A 
ATOM     18  C   UNL     1      -2.110  -0.077   1.856  0.00  0.00    +0.067 A 
ATOM     19  S   UNL     1      -0.490  -0.802   1.652  0.00  0.00    -0.059 S 
ATOM     20  C   UNL     1      -1.023  -2.450   1.242  0.00  0.00    +0.158 A 
ATOM     21  N   UNL     1      -2.388  -2.347   1.286  0.00  0.00    -0.264 N 
ATOM     22  C   UNL     1      -3.094  -3.484   1.007  0.00  0.00    +0.259 A 
ATOM     23  O   UNL     1      -4.314  -3.466   1.026  0.00  0.00    -0.267 OA
ATOM     24  C   UNL     1      -2.418  -4.665   0.699  0.00  0.00    +0.093 A 
ATOM     25  C   UNL     1      -1.039  -4.679   0.679  0.00  0.00    +0.037 A 
ATOM     26  N   UNL     1      -0.382  -3.555   0.955  0.00  0.00    -0.338 N 
ATOM     27  H   UNL     1       0.588  -3.555   0.943  0.00  0.00    +0.168 HD
ENDBRANCH  16  25
ENDBRANCH   1  16
TORSDOF 3
