REMARK  Name = ZINC11996072
REMARK  8 active torsions:
REMARK  status: ('A' for Active; 'I' for Inactive)
REMARK    1  A    between atoms: C_1  and  C_2
REMARK    2  A    between atoms: C_10  and  C_11
REMARK    3  A    between atoms: N_13  and  C_14
REMARK    4  A    between atoms: C_14  and  C_15
REMARK    5  A    between atoms: C_14  and  C_16
REMARK    6  A    between atoms: C_14  and  C_17
REMARK    7  A    between atoms: N_18  and  C_19
REMARK    8  A    between atoms: C_19  and  C_20
REMARK                            x       y       z     vdW  Elec       q    Type
REMARK                         _______ _______ _______ _____ _____    ______ ____
ROOT
ATOM      1  C   UNL     1       1.812   7.973  -2.202  0.00  0.00    +0.046 C 
ATOM      2  C   UNL     1       1.961   9.459  -2.005  0.00  0.00    -0.019 A 
ATOM      3  C   UNL     1       1.348  10.088  -0.913  0.00  0.00    +0.051 A 
ATOM      4  C   UNL     1       0.547   9.520   0.123  0.00  0.00    +0.131 A 
ATOM      5  N   UNL     1       0.067  10.307   1.071  0.00  0.00    -0.220 NA
ATOM      6  C   UNL     1       0.299  11.607   1.094  0.00  0.00    +0.224 A 
ATOM      7  N   UNL     1       1.028  12.193   0.163  0.00  0.00    -0.228 NA
ATOM      8  C   UNL     1       1.546  11.487  -0.821  0.00  0.00    +0.114 A 
ATOM      9  S   UNL     1       2.553  11.851  -2.236  0.00  0.00    -0.064 S 
ATOM     10  C   UNL     1       2.692  10.194  -2.887  0.00  0.00    +0.079 A 
ATOM     11  N   UNL     1       0.280   8.166   0.137  0.00  0.00    -0.325 N 
ATOM     12  H   UNL     1       0.560   7.609  -0.606  0.00  0.00    +0.148 HD
ENDROOT
BRANCH  10  13
ATOM     13  C   UNL     1       3.408   9.739  -4.085  0.00  0.00    +0.251 C 
ATOM     14  O   UNL     1       3.293   8.588  -4.462  0.00  0.00    -0.270 OA
ATOM     15  N   UNL     1       4.193  10.597  -4.767  0.00  0.00    -0.306 N 
ATOM     16  H   UNL     1       4.285  11.514  -4.467  0.00  0.00    +0.150 HD
BRANCH  15  17
ATOM     17  C   UNL     1       4.908  10.142  -5.963  0.00  0.00    +0.026 C 
ATOM     18  C   UNL     1       3.900   9.654  -7.005  0.00  0.00    +0.031 C 
ATOM     19  C   UNL     1       5.720  11.302  -6.543  0.00  0.00    +0.031 C 
ATOM     20  C   UNL     1       5.850   8.996  -5.589  0.00  0.00    +0.031 C 
ENDBRANCH  15  17
ENDBRANCH  10  13
BRANCH  11  21
ATOM     21  C   UNL     1      -0.426   7.570   1.274  0.00  0.00    +0.151 C 
BRANCH  21  22
ATOM     22  C   UNL     1      -0.592   6.067   1.041  0.00  0.00    +0.228 C 
ATOM     23  C   UNL     1      -1.439   5.459   2.167  0.00  0.00    +0.275 C 
ATOM     24  O   UNL     1      -1.563   4.053   1.926  0.00  0.00    -0.485 OA
ATOM     25  C   UNL     1      -0.423   3.387   1.596  0.00  0.00    +0.162 A 
ATOM     26  C   UNL     1      -0.389   2.004   1.698  0.00  0.00    +0.049 A 
ATOM     27  C   UNL     1       0.762   1.314   1.369  0.00  0.00    +0.004 A 
ATOM     28  C   UNL     1       1.879   1.998   0.928  0.00  0.00    +0.004 A 
ATOM     29  C   UNL     1       1.851   3.376   0.820  0.00  0.00    +0.049 A 
ATOM     30  C   UNL     1       0.701   4.075   1.155  0.00  0.00    +0.163 A 
ATOM     31  O   UNL     1       0.691   5.432   1.052  0.00  0.00    -0.480 OA
ENDBRANCH  21  22
ENDBRANCH  11  21
TORSDOF 4
