REMARK  Name = ZINC62800348
REMARK  8 active torsions:
REMARK  status: ('A' for Active; 'I' for Inactive)
REMARK    1  A    between atoms: C_1  and  C_2
REMARK    2  A    between atoms: C_2  and  C_4
REMARK    3  A    between atoms: C_2  and  O_10
REMARK    4  A    between atoms: N_6  and  C_7
REMARK    5  A    between atoms: C_7  and  C_8
REMARK    6  A    between atoms: C_7  and  C_9
REMARK    7  A    between atoms: O_10  and  C_11
REMARK    8  A    between atoms: N_20  and  O_21
REMARK                            x       y       z     vdW  Elec       q    Type
REMARK                         _______ _______ _______ _____ _____    ______ ____
ROOT
ATOM      1  C   UNL     1      -0.106  -0.775  -2.244  0.00  0.00    +0.125 A 
ATOM      2  C   UNL     1      -1.473  -0.539  -2.198  0.00  0.00    +0.046 A 
ATOM      3  C   UNL     1      -2.268  -0.853  -3.285  0.00  0.00    +0.004 A 
ATOM      4  C   UNL     1      -1.707  -1.401  -4.419  0.00  0.00    +0.010 A 
ATOM      5  C   UNL     1      -0.328  -1.643  -4.477  0.00  0.00    +0.006 A 
ATOM      6  C   UNL     1       0.470  -1.321  -3.383  0.00  0.00    +0.004 A 
ATOM      7  C   UNL     1       1.909  -1.664  -3.684  0.00  0.00    +0.046 C 
ATOM      8  C   UNL     1       1.928  -2.238  -5.107  0.00  0.00    +0.064 C 
ATOM      9  C   UNL     1       0.490  -2.214  -5.566  0.00  0.00    +0.088 C 
ATOM     10  N   UNL     1       0.053  -2.612  -6.717  0.00  0.00    -0.092 NA
ENDROOT
BRANCH  10  11
ATOM     11  O   UNL     1       0.954  -3.142  -7.672  0.00  0.00    -0.409 OA
ATOM     12  H   UNL     1       0.535  -3.411  -8.501  0.00  0.00    +0.328 HD
ENDBRANCH  10  11
BRANCH   1  13
ATOM     13  O   UNL     1       0.671  -0.465  -1.174  0.00  0.00    -0.480 OA
BRANCH  13  15
ATOM     14  C   UNL     1      -0.255   1.492  -0.100  0.00  0.00    +0.062 C 
ATOM     15  C   UNL     1       0.001  -0.013   0.005  0.00  0.00    +0.255 C 
BRANCH  15  16
ATOM     16  C   UNL     1       0.862  -0.293   1.210  0.00  0.00    +0.254 C 
ATOM     17  O   UNL     1       1.978  -0.744   1.067  0.00  0.00    -0.272 OA
ATOM     18  N   UNL     1       0.390  -0.043   2.448  0.00  0.00    -0.310 N 
ATOM     19  H   UNL     1      -0.503   0.318   2.562  0.00  0.00    +0.149 HD
BRANCH  18  20
ATOM     20  C   UNL     1       1.226  -0.315   3.619  0.00  0.00    +0.067 C 
ATOM     21  C   UNL     1       0.783   0.576   4.781  0.00  0.00    +0.027 C 
ATOM     22  C   UNL     1       1.080  -1.785   4.020  0.00  0.00    +0.027 C 
ENDBRANCH  18  20
ENDBRANCH  15  16
ENDBRANCH  13  15
ENDBRANCH   1  13
TORSDOF 5
