REMARK  Name = ZINC60106588
REMARK  9 active torsions:
REMARK  status: ('A' for Active; 'I' for Inactive)
REMARK    1  A    between atoms: C_1  and  C_2
REMARK    2  A    between atoms: C_2  and  C_3
REMARK    3  A    between atoms: C_3  and  C_4
REMARK    4  A    between atoms: C_4  and  C_5
REMARK    5  A    between atoms: C_5  and  C_7
REMARK    6  A    between atoms: C_5  and  N_26
REMARK    7  A    between atoms: N_9  and  C_10
REMARK    8  A    between atoms: C_13  and  C_16
REMARK    9  A    between atoms: C_21  and  C_25
REMARK                            x       y       z     vdW  Elec       q    Type
REMARK                         _______ _______ _______ _____ _____    ______ ____
ROOT
ATOM      1  C   UNL     1      -2.229  -4.080  -0.193  0.00  0.00    +0.238 C 
ATOM      2  O   UNL     1      -1.816  -4.764   0.719  0.00  0.00    -0.273 OA
ATOM      3  N   UNL     1      -2.666  -4.662  -1.328  0.00  0.00    -0.284 N 
ATOM      4  H   UNL     1      -3.058  -4.121  -2.031  0.00  0.00    +0.155 HD
ENDROOT
BRANCH   3   5
ATOM      5  C   UNL     1      -2.553  -6.045  -1.492  0.00  0.00    +0.033 A 
ATOM      6  C   UNL     1      -2.714  -6.888  -0.398  0.00  0.00    +0.024 A 
ATOM      7  C   UNL     1      -2.603  -8.252  -0.556  0.00  0.00    +0.012 A 
ATOM      8  C   UNL     1      -2.329  -8.788  -1.817  0.00  0.00    +0.007 A 
ATOM      9  C   UNL     1      -2.168  -7.938  -2.913  0.00  0.00    +0.012 A 
ATOM     10  C   UNL     1      -2.286  -6.575  -2.749  0.00  0.00    +0.024 A 
BRANCH   8  11
ATOM     11  C   UNL     1      -2.209 -10.250  -1.990  0.00  0.00    +0.109 A 
ATOM     12  N   UNL     1      -2.332 -11.201  -1.089  0.00  0.00    -0.239 NA
ATOM     13  C   UNL     1      -2.196 -12.507  -1.391  0.00  0.00    +0.079 A 
ATOM     14  C   UNL     1      -2.302 -13.620  -0.524  0.00  0.00    +0.029 A 
ATOM     15  C   UNL     1      -2.135 -14.886  -0.991  0.00  0.00    +0.005 A 
ATOM     16  C   UNL     1      -1.855 -15.139  -2.327  0.00  0.00    -0.049 A 
ATOM     17  C   UNL     1      -1.744 -14.079  -3.208  0.00  0.00    +0.020 A 
ATOM     18  C   UNL     1      -1.911 -12.797  -2.746  0.00  0.00    +0.040 A 
ATOM     19  S   UNL     1      -1.867 -11.179  -3.478  0.00  0.00    -0.067 S 
ATOM     20  C   UNL     1      -1.675 -16.554  -2.812  0.00  0.00    +0.044 C 
ENDBRANCH   8  11
ENDBRANCH   3   5
BRANCH   1  21
ATOM     21  C   UNL     1      -2.255  -2.580  -0.058  0.00  0.00    +0.161 C 
BRANCH  21  22
ATOM     22  N   UNL     1      -2.201  -2.216   1.360  0.00  0.00    -0.288 N 
ATOM     23  C   UNL     1      -1.149  -2.593   2.113  0.00  0.00    +0.298 C 
ATOM     24  O   UNL     1      -0.244  -3.235   1.615  0.00  0.00    -0.253 OA
ATOM     25  N   UNL     1      -1.099  -2.259   3.418  0.00  0.00    -0.313 N 
ATOM     26  H   UNL     1      -2.923  -1.704   1.757  0.00  0.00    +0.151 HD
ATOM     27  H   UNL     1      -1.821  -1.747   3.815  0.00  0.00    +0.146 HD
ATOM     28  H   UNL     1      -0.342  -2.530   3.960  0.00  0.00    +0.146 HD
ENDBRANCH  21  22
BRANCH  21  29
ATOM     29  C   UNL     1      -1.048  -1.982  -0.784  0.00  0.00    +0.032 C 
BRANCH  29  30
ATOM     30  C   UNL     1      -1.140  -0.455  -0.754  0.00  0.00    +0.002 C 
BRANCH  30  32
ATOM     31  C   UNL     1      -0.025   1.671  -1.449  0.00  0.00    +0.004 C 
ATOM     32  C   UNL     1       0.067   0.143  -1.479  0.00  0.00    -0.003 C 
ENDBRANCH  30  32
ENDBRANCH  29  30
ENDBRANCH  21  29
ENDBRANCH   1  21
TORSDOF 7
