REMARK  Name = ZINC62101578
REMARK  8 active torsions:
REMARK  status: ('A' for Active; 'I' for Inactive)
REMARK    1  A    between atoms: C_1  and  C_2
REMARK    2  A    between atoms: C_4  and  C_16
REMARK    3  A    between atoms: C_7  and  N_8
REMARK    4  A    between atoms: C_16  and  N_17
REMARK    5  A    between atoms: N_17  and  C_18
REMARK    6  A    between atoms: C_18  and  C_19
REMARK    7  A    between atoms: C_18  and  C_20
REMARK    8  A    between atoms: C_18  and  C_21
REMARK                            x       y       z     vdW  Elec       q    Type
REMARK                         _______ _______ _______ _____ _____    ______ ____
ROOT
ATOM      1  C   UNL     1      -0.040   1.502   0.013  0.00  0.00    +0.045 C 
ATOM      2  C   UNL     1      -0.009  -0.004   0.003  0.00  0.00    -0.029 A 
ATOM      3  C   UNL     1      -0.109  -0.691  -1.191  0.00  0.00    +0.007 A 
ATOM      4  C   UNL     1      -0.080  -2.073  -1.201  0.00  0.00    -0.064 A 
ATOM      5  C   UNL     1       0.050  -2.773  -0.015  0.00  0.00    +0.003 A 
ATOM      6  C   UNL     1       0.151  -2.093   1.182  0.00  0.00    +0.023 A 
ATOM      7  C   UNL     1       0.128  -0.704   1.195  0.00  0.00    +0.033 A 
ENDROOT
BRANCH   7   8
ATOM      8  N   UNL     1       0.235  -0.013   2.404  0.00  0.00    -0.328 N 
ATOM      9  C   UNL     1       1.554   0.449   2.834  0.00  0.00    +0.114 C 
ATOM     10  C   UNL     1       1.945  -0.259   4.137  0.00  0.00    +0.114 C 
ATOM     11  C   UNL     1       1.248   0.431   5.288  0.00  0.00    +0.215 C 
ATOM     12  O   UNL     1       1.892   1.105   6.065  0.00  0.00    -0.276 OA
ATOM     13  N   UNL     1      -0.071   0.303   5.457  0.00  0.00    -0.314 N 
ATOM     14  C   UNL     1      -0.868  -0.515   4.531  0.00  0.00    +0.123 C 
ATOM     15  C   UNL     1      -0.975   0.224   3.187  0.00  0.00    +0.124 C 
ATOM     16  H   UNL     1      -0.507   0.753   6.197  0.00  0.00    +0.149 HD
ENDBRANCH   7   8
BRANCH   4  17
ATOM     17  C   UNL     1      -0.191  -2.818  -2.506  0.00  0.00    -0.046 C 
BRANCH  17  18
ATOM     18  N   UNL     1       1.151  -3.031  -3.064  0.00  0.00    +0.385 N 
ATOM     19  H   UNL     1       1.594  -2.138  -3.223  0.00  0.00    -0.085 HD
ATOM     20  H   UNL     1       1.704  -3.570  -2.415  0.00  0.00    -0.085 HD
BRANCH  18  21
ATOM     21  C   UNL     1       1.043  -3.757  -4.336  0.00  0.00    -0.077 C 
ATOM     22  C   UNL     1       0.205  -2.939  -5.321  0.00  0.00    -0.011 C 
ATOM     23  C   UNL     1       2.441  -3.979  -4.917  0.00  0.00    -0.011 C 
ATOM     24  C   UNL     1       0.370  -5.110  -4.095  0.00  0.00    -0.011 C 
ENDBRANCH  18  21
ENDBRANCH  17  18
ENDBRANCH   4  17
TORSDOF 4
