REMARK  Name = ZINC39915941
REMARK  17 active torsions:
REMARK  status: ('A' for Active; 'I' for Inactive)
REMARK    1  A    between atoms: C_1  and  C_2
REMARK    2  A    between atoms: C_2  and  C_3
REMARK    3  A    between atoms: C_2  and  C_4
REMARK    4  A    between atoms: C_4  and  C_5
REMARK    5  A    between atoms: C_5  and  O_6
REMARK    6  A    between atoms: O_6  and  C_7
REMARK    7  A    between atoms: C_10  and  C_15
REMARK    8  A    between atoms: C_12  and  O_13
REMARK    9  A    between atoms: O_13  and  C_14
REMARK   10  A    between atoms: C_15  and  N_16
REMARK   11  A    between atoms: C_24  and  S_25
REMARK   12  A    between atoms: S_25  and  C_26
REMARK   13  A    between atoms: C_28  and  O_41
REMARK   14  A    between atoms: C_30  and  O_40
REMARK   15  A    between atoms: C_32  and  O_39
REMARK   16  A    between atoms: C_34  and  C_37
REMARK   17  A    between atoms: C_37  and  O_38
REMARK                            x       y       z     vdW  Elec       q    Type
REMARK                         _______ _______ _______ _____ _____    ______ ____
ROOT
ATOM      1  N   UNL     1       9.400  -0.310  -2.046  0.00  0.00    -0.314 N 
ATOM      2  C   UNL     1       9.855  -0.437  -0.744  0.00  0.00    +0.070 A 
ATOM      3  C   UNL     1       9.757   0.355   0.390  0.00  0.00    +0.028 A 
ATOM      4  C   UNL     1      10.336  -0.061   1.571  0.00  0.00    +0.002 A 
ATOM      5  C   UNL     1      11.017  -1.268   1.633  0.00  0.00    +0.002 A 
ATOM      6  C   UNL     1      11.124  -2.067   0.516  0.00  0.00    +0.030 A 
ATOM      7  C   UNL     1      10.543  -1.660  -0.687  0.00  0.00    +0.090 A 
ATOM      8  N   UNL     1      10.479  -2.214  -1.926  0.00  0.00    -0.222 NA
ATOM      9  C   UNL     1       9.803  -1.425  -2.726  0.00  0.00    +0.173 A 
ENDROOT
BRANCH   1  10
ATOM     10  C   UNL     1       8.626   0.807  -2.591  0.00  0.00    +0.159 C 
BRANCH  10  14
ATOM     11  C   UNL     1       4.451   0.032  -2.084  0.00  0.00    +0.162 A 
ATOM     12  C   UNL     1       5.159   0.699  -1.098  0.00  0.00    +0.050 A 
ATOM     13  C   UNL     1       6.509   0.948  -1.264  0.00  0.00    +0.009 A 
ATOM     14  C   UNL     1       7.155   0.533  -2.414  0.00  0.00    -0.024 A 
ATOM     15  C   UNL     1       6.454  -0.133  -3.402  0.00  0.00    +0.054 A 
ATOM     16  C   UNL     1       5.102  -0.391  -3.239  0.00  0.00    +0.162 A 
BRANCH  16  17
ATOM     17  O   UNL     1       4.412  -1.051  -4.207  0.00  0.00    -0.491 OA
ATOM     18  C   UNL     1       5.146  -1.455  -5.365  0.00  0.00    +0.277 C 
ENDBRANCH  16  17
BRANCH  11  19
ATOM     19  O   UNL     1       3.123  -0.215  -1.921  0.00  0.00    -0.488 OA
BRANCH  19  20
ATOM     20  C   UNL     1       2.521   0.248  -0.711  0.00  0.00    +0.229 C 
BRANCH  20  21
ATOM     21  C   UNL     1       1.036  -0.118  -0.708  0.00  0.00    +0.044 C 
BRANCH  21  23
ATOM     22  C   UNL     1       0.431   1.907   0.626  0.00  0.00    +0.007 C 
ATOM     23  C   UNL     1       0.391   0.378   0.589  0.00  0.00    -0.014 C 
ATOM     24  C   UNL     1      -1.062  -0.096   0.649  0.00  0.00    +0.007 C 
ENDBRANCH  21  23
ENDBRANCH  20  21
ENDBRANCH  19  20
ENDBRANCH  11  19
ENDBRANCH  10  14
ENDBRANCH   1  10
BRANCH   9  25
ATOM     25  S   UNL     1       9.467  -1.752  -4.425  0.00  0.00    -0.054 S 
BRANCH  25  26
ATOM     26  C   UNL     1      10.253  -3.359  -4.726  0.00  0.00    +0.214 C 
ATOM     27  C   UNL     1       9.930  -3.826  -6.147  0.00  0.00    +0.185 C 
ATOM     28  C   UNL     1      10.646  -5.154  -6.415  0.00  0.00    +0.177 C 
ATOM     29  C   UNL     1      12.149  -4.965  -6.192  0.00  0.00    +0.176 C 
ATOM     30  C   UNL     1      12.386  -4.454  -4.769  0.00  0.00    +0.176 C 
ATOM     31  O   UNL     1      11.668  -3.233  -4.576  0.00  0.00    -0.355 OA
BRANCH  29  32
ATOM     32  O   UNL     1      12.819  -6.215  -6.369  0.00  0.00    -0.386 OA
ATOM     33  H   UNL     1      12.708  -6.599  -7.250  0.00  0.00    +0.210 HD
ENDBRANCH  29  32
BRANCH  28  34
ATOM     34  O   UNL     1      10.150  -6.153  -5.521  0.00  0.00    -0.386 OA
ATOM     35  H   UNL     1       9.201  -6.319  -5.604  0.00  0.00    +0.210 HD
ENDBRANCH  28  34
BRANCH  27  36
ATOM     36  O   UNL     1       8.519  -4.007  -6.282  0.00  0.00    -0.386 OA
ATOM     37  H   UNL     1       8.003  -3.206  -6.122  0.00  0.00    +0.210 HD
ENDBRANCH  27  36
BRANCH  30  38
ATOM     38  C   UNL     1      11.896  -5.498  -3.763  0.00  0.00    +0.190 C 
BRANCH  38  39
ATOM     39  O   UNL     1      12.254  -5.091  -2.441  0.00  0.00    -0.392 OA
ATOM     40  H   UNL     1      11.974  -5.707  -1.750  0.00  0.00    +0.210 HD
ENDBRANCH  38  39
ENDBRANCH  30  38
ENDBRANCH  25  26
ENDBRANCH   9  25
TORSDOF 14
