REMARK  Name = ZINC40346818
REMARK  11 active torsions:
REMARK  status: ('A' for Active; 'I' for Inactive)
REMARK    1  A    between atoms: C_1  and  C_2
REMARK    2  A    between atoms: C_4  and  N_21
REMARK    3  A    between atoms: C_5  and  S_9
REMARK    4  A    between atoms: C_7  and  C_8
REMARK    5  A    between atoms: S_9  and  N_12
REMARK    6  A    between atoms: N_12  and  C_13
REMARK    7  A    between atoms: N_12  and  C_14
REMARK    8  A    between atoms: C_14  and  C_15
REMARK    9  A    between atoms: N_17  and  C_18
REMARK   10  A    between atoms: C_18  and  C_19
REMARK   11  A    between atoms: C_18  and  C_20
REMARK                            x       y       z     vdW  Elec       q    Type
REMARK                         _______ _______ _______ _____ _____    ______ ____
ROOT
ATOM      1  S   UNL     1      -0.516  -4.410  -0.673  0.00  0.00    +0.063 S 
ATOM      2  O   UNL     1       0.227  -5.047  -1.703  0.00  0.00    -0.153 OA
ATOM      3  O   UNL     1      -0.197  -4.564   0.703  0.00  0.00    -0.153 OA
ENDROOT
BRANCH   1   8
ATOM      4  C   UNL     1      -0.335   1.513  -1.839  0.00  0.00    +0.044 C 
ATOM      5  C   UNL     1      -0.382   0.035  -1.544  0.00  0.00    -0.046 A 
ATOM      6  C   UNL     1      -1.036  -0.423  -0.417  0.00  0.00    +0.028 A 
ATOM      7  C   UNL     1      -1.079  -1.784  -0.147  0.00  0.00    +0.051 A 
ATOM      8  C   UNL     1      -0.465  -2.681  -1.012  0.00  0.00    +0.126 A 
ATOM      9  C   UNL     1       0.187  -2.216  -2.137  0.00  0.00    +0.034 A 
ATOM     10  C   UNL     1       0.224  -0.860  -2.406  0.00  0.00    -0.046 A 
ATOM     11  C   UNL     1       0.930  -0.357  -3.639  0.00  0.00    +0.044 C 
BRANCH   7  12
ATOM     12  N   UNL     1      -1.738  -2.251   0.993  0.00  0.00    -0.356 N 
ATOM     13  H   UNL     1      -2.178  -1.625   1.589  0.00  0.00    +0.142 HD
ATOM     14  H   UNL     1      -1.756  -3.201   1.188  0.00  0.00    +0.142 HD
ENDBRANCH   7  12
ENDBRANCH   1   8
BRANCH   1  15
ATOM     15  N   UNL     1      -2.088  -4.897  -0.853  0.00  0.00    -0.171 NA
ATOM     16  C   UNL     1      -2.616  -5.194  -2.187  0.00  0.00    +0.132 C 
BRANCH  15  17
ATOM     17  C   UNL     1      -2.952  -5.032   0.323  0.00  0.00    +0.204 C 
BRANCH  17  18
ATOM     18  C   UNL     1      -3.890  -3.855   0.394  0.00  0.00    +0.229 C 
ATOM     19  O   UNL     1      -3.917  -3.045  -0.508  0.00  0.00    -0.274 OA
ATOM     20  N   UNL     1      -4.700  -3.702   1.461  0.00  0.00    -0.312 N 
ATOM     21  H   UNL     1      -4.633  -4.312   2.212  0.00  0.00    +0.149 HD
BRANCH  20  22
ATOM     22  C   UNL     1      -5.681  -2.614   1.486  0.00  0.00    +0.067 C 
ATOM     23  C   UNL     1      -6.827  -2.982   2.431  0.00  0.00    +0.027 C 
ATOM     24  C   UNL     1      -5.007  -1.331   1.977  0.00  0.00    +0.027 C 
ENDBRANCH  20  22
ENDBRANCH  17  18
ENDBRANCH  15  17
ENDBRANCH   1  15
TORSDOF 6
