REMARK  Name = ZINC05373435
REMARK  5 active torsions:
REMARK  status: ('A' for Active; 'I' for Inactive)
REMARK    1  A    between atoms: C_1  and  C_2
REMARK    2  A    between atoms: C_7  and  C_8
REMARK    3  A    between atoms: N_12  and  C_16
REMARK    4  A    between atoms: C_16  and  C_18
REMARK    5  A    between atoms: C_16  and  C_24
REMARK                            x       y       z     vdW  Elec       q    Type
REMARK                         _______ _______ _______ _____ _____    ______ ____
ROOT
ATOM      1  C   UNL     1       6.683  -0.660   3.934  0.00  0.00    +0.028 C 
ATOM      2  C   UNL     1       6.332  -0.260   2.687  0.00  0.00    +0.077 C 
ATOM      3  C   UNL     1       5.685  -1.024   1.599  0.00  0.00    +0.259 C 
ATOM      4  O   UNL     1       5.378  -2.193   1.733  0.00  0.00    -0.269 OA
ATOM      5  N   UNL     1       5.460  -0.371   0.470  0.00  0.00    -0.237 N 
ATOM      6  C   UNL     1       5.797   0.927   0.327  0.00  0.00    +0.122 C 
ATOM      7  S   UNL     1       5.585   1.935  -1.040  0.00  0.00    -0.027 S 
ATOM      8  S   UNL     1       6.519   1.339   1.908  0.00  0.00    -0.061 S 
ENDROOT
BRANCH   1  15
ATOM      9  C   UNL     1       6.769  -1.155   6.784  0.00  0.00    +0.044 C 
ATOM     10  C   UNL     1       7.512   0.009   6.181  0.00  0.00    -0.043 A 
ATOM     11  C   UNL     1       8.248   0.851   6.988  0.00  0.00    +0.004 A 
ATOM     12  C   UNL     1       8.927   1.924   6.437  0.00  0.00    +0.000 A 
ATOM     13  C   UNL     1       8.877   2.159   5.073  0.00  0.00    +0.001 A 
ATOM     14  C   UNL     1       8.150   1.323   4.253  0.00  0.00    +0.008 A 
ATOM     15  C   UNL     1       7.461   0.236   4.802  0.00  0.00    -0.021 A 
ENDBRANCH   1  15
BRANCH   5  16
ATOM     16  C   UNL     1       4.826  -1.073  -0.648  0.00  0.00    +0.226 C 
BRANCH  16  17
ATOM     17  C   UNL     1       5.590  -2.338  -0.945  0.00  0.00    -0.016 A 
ATOM     18  C   UNL     1       5.009  -3.333  -1.710  0.00  0.00    +0.006 A 
ATOM     19  C   UNL     1       5.709  -4.493  -1.982  0.00  0.00    +0.000 A 
ATOM     20  C   UNL     1       6.990  -4.659  -1.490  0.00  0.00    +0.000 A 
ATOM     21  C   UNL     1       7.572  -3.664  -0.726  0.00  0.00    +0.000 A 
ATOM     22  C   UNL     1       6.871  -2.504  -0.453  0.00  0.00    +0.006 A 
ENDBRANCH  16  17
BRANCH  16  23
ATOM     23  C   UNL     1       3.405  -1.418  -0.284  0.00  0.00    +0.381 C 
ATOM     24  O   UNL     1       2.967  -1.109   0.799  0.00  0.00    -0.244 OA
ATOM     25  O   UNL     1       2.626  -2.069  -1.163  0.00  0.00    -0.244 OA
ENDBRANCH  16  23
ENDBRANCH   5  16
TORSDOF 4
