REMARK  Name = ZINC10001003
REMARK  11 active torsions:
REMARK  status: ('A' for Active; 'I' for Inactive)
REMARK    1  A    between atoms: C_1  and  C_2
REMARK    2  A    between atoms: C_4  and  C_10
REMARK    3  A    between atoms: C_6  and  C_9
REMARK    4  A    between atoms: C_7  and  O_8
REMARK    5  A    between atoms: N_11  and  N_12
REMARK    6  A    between atoms: C_13  and  C_15
REMARK    7  A    between atoms: C_15  and  C_17
REMARK    8  A    between atoms: C_15  and  N_20
REMARK    9  A    between atoms: C_17  and  C_18
REMARK   10  A    between atoms: C_17  and  C_19
REMARK   11  A    between atoms: C_21  and  C_23
REMARK                            x       y       z     vdW  Elec       q    Type
REMARK                         _______ _______ _______ _____ _____    ______ ____
ROOT
ATOM      1  N   UNL     1      -1.540   4.104   0.209  0.00  0.00    -0.205 N 
ATOM      2  C   UNL     1      -0.864   3.520   1.218  0.00  0.00    +0.253 C 
ATOM      3  O   UNL     1      -0.360   4.202   2.085  0.00  0.00    -0.272 OA
ATOM      4  H   UNL     1      -1.943   3.559  -0.484  0.00  0.00    +0.177 HD
ENDROOT
BRANCH   1   6
ATOM      5  C   UNL     1      -2.310   6.062  -0.810  0.00  0.00    +0.138 C 
ATOM      6  N   UNL     1      -1.660   5.499   0.162  0.00  0.00    -0.188 NA
BRANCH   5  10
ATOM      7  C   UNL     1      -4.007  10.167  -3.075  0.00  0.00    +0.047 C 
ATOM      8  C   UNL     1      -3.253   9.510  -1.948  0.00  0.00    -0.008 A 
ATOM      9  C   UNL     1      -3.137   8.138  -1.906  0.00  0.00    +0.016 A 
ATOM     10  C   UNL     1      -2.437   7.530  -0.860  0.00  0.00    -0.005 A 
ATOM     11  C   UNL     1      -1.861   8.317   0.141  0.00  0.00    +0.016 A 
ATOM     12  C   UNL     1      -1.979   9.689   0.088  0.00  0.00    -0.008 A 
ATOM     13  C   UNL     1      -2.675  10.289  -0.953  0.00  0.00    +0.123 A 
ATOM     14  C   UNL     1      -1.355  10.540   1.165  0.00  0.00    +0.047 C 
BRANCH  13  15
ATOM     15  O   UNL     1      -2.792  11.642  -0.999  0.00  0.00    -0.506 OA
ATOM     16  H   UNL     1      -3.572  11.985  -0.541  0.00  0.00    +0.292 HD
ENDBRANCH  13  15
ENDBRANCH   5  10
ENDBRANCH   1   6
BRANCH   2  17
ATOM     17  C   UNL     1      -0.735   2.019   1.269  0.00  0.00    +0.163 C 
BRANCH  17  18
ATOM     18  N   UNL     1       0.038   1.636   2.453  0.00  0.00    -0.300 N 
ATOM     19  C   UNL     1      -0.124   0.413   2.997  0.00  0.00    +0.245 C 
ATOM     20  O   UNL     1      -0.911  -0.371   2.505  0.00  0.00    -0.270 OA
ATOM     21  H   UNL     1       0.667   2.261   2.846  0.00  0.00    +0.150 HD
BRANCH  19  22
ATOM     22  C   UNL     1       0.656   0.026   4.190  0.00  0.00    +0.037 A 
ATOM     23  C   UNL     1       1.566   0.923   4.754  0.00  0.00    +0.016 A 
ATOM     24  C   UNL     1       2.286   0.560   5.872  0.00  0.00    +0.039 A 
ATOM     25  C   UNL     1       2.117  -0.699   6.429  0.00  0.00    +0.123 A 
ATOM     26  C   UNL     1       1.220  -1.596   5.869  0.00  0.00    +0.039 A 
ATOM     27  C   UNL     1       0.490  -1.240   4.755  0.00  0.00    +0.016 A 
ATOM     28  F   UNL     1       2.830  -1.053   7.521  0.00  0.00    -0.205 F 
ENDBRANCH  19  22
ENDBRANCH  17  18
BRANCH  17  29
ATOM     29  C   UNL     1      -0.019   1.526   0.010  0.00  0.00    +0.012 C 
ATOM     30  C   UNL     1       0.002  -0.004   0.002  0.00  0.00    +0.009 C 
ATOM     31  C   UNL     1       1.417   2.055  -0.000  0.00  0.00    +0.009 C 
ENDBRANCH  17  29
ENDBRANCH   2  17
TORSDOF 7
