REMARK  Name = ZINC16420920
REMARK  4 active torsions:
REMARK  status: ('A' for Active; 'I' for Inactive)
REMARK    1  A    between atoms: C_1  and  C_2
REMARK    2  A    between atoms: N_11  and  C_12
REMARK    3  A    between atoms: C_12  and  C_13
REMARK    4  A    between atoms: N_18  and  C_19
REMARK                            x       y       z     vdW  Elec       q    Type
REMARK                         _______ _______ _______ _____ _____    ______ ____
ROOT
ATOM      1  C   UNL     1       2.713  -0.338   2.554  0.00  0.00    +0.234 C 
ATOM      2  O   UNL     1       2.056  -0.891   3.409  0.00  0.00    -0.274 OA
ATOM      3  N   UNL     1       3.994  -0.000   2.801  0.00  0.00    -0.239 N 
ATOM      4  C   UNL     1       4.544  -0.277   4.000  0.00  0.00    +0.306 C 
ATOM      5  O   UNL     1       3.885  -0.831   4.858  0.00  0.00    -0.252 OA
ATOM      6  N   UNL     1       5.825   0.061   4.248  0.00  0.00    -0.295 N 
ATOM      7  H   UNL     1       4.520   0.442   2.117  0.00  0.00    +0.159 HD
ATOM      8  H   UNL     1       6.351   0.503   3.564  0.00  0.00    +0.151 HD
ENDROOT
BRANCH   6   9
ATOM      9  C   UNL     1       6.423  -0.239   5.551  0.00  0.00    +0.097 C 
ATOM     10  C   UNL     1       6.121   0.902   6.537  0.00  0.00    +0.046 C 
ATOM     11  C   UNL     1       7.003   0.755   7.800  0.00  0.00    +0.168 C 
ATOM     12  S   UNL     1       8.490  -0.114   7.156  0.00  0.00    -0.029 S 
ATOM     13  O   UNL     1       8.594  -1.382   7.789  0.00  0.00    -0.174 OA
ATOM     14  O   UNL     1       9.597   0.777   7.189  0.00  0.00    -0.174 OA
ATOM     15  C   UNL     1       7.967  -0.357   5.407  0.00  0.00    +0.188 C 
ENDBRANCH   6   9
BRANCH   1  16
ATOM     16  C   UNL     1       2.098  -0.029   1.213  0.00  0.00    +0.181 C 
BRANCH  16  26
ATOM     17  C   UNL     1      -0.019   1.526   0.010  0.00  0.00    +0.029 C 
ATOM     18  C   UNL     1       0.002  -0.004   0.002  0.00  0.00    +0.085 C 
ATOM     19  C   UNL     1      -1.428  -0.536   0.021  0.00  0.00    -0.020 A 
ATOM     20  C   UNL     1      -2.468   0.006  -0.729  0.00  0.00    +0.013 A 
ATOM     21  C   UNL     1      -3.710  -0.527  -0.650  0.00  0.00    +0.046 A 
ATOM     22  S   UNL     1      -3.466  -1.857   0.518  0.00  0.00    -0.101 S 
ATOM     23  C   UNL     1      -1.738  -1.603   0.810  0.00  0.00    -0.004 A 
ATOM     24  C   UNL     1      -0.803  -2.356   1.699  0.00  0.00    +0.058 C 
ATOM     25  C   UNL     1       0.632  -1.958   1.315  0.00  0.00    +0.090 C 
ATOM     26  N   UNL     1       0.705  -0.494   1.195  0.00  0.00    -0.287 NA
ENDBRANCH  16  26
ENDBRANCH   1  16
TORSDOF 3
