REMARK  Name = ZINC39729947
REMARK  6 active torsions:
REMARK  status: ('A' for Active; 'I' for Inactive)
REMARK    1  A    between atoms: C_1  and  C_2
REMARK    2  A    between atoms: C_2  and  S_3
REMARK    3  A    between atoms: S_3  and  C_4
REMARK    4  A    between atoms: C_10  and  C_24
REMARK    5  A    between atoms: C_15  and  C_19
REMARK    6  A    between atoms: C_15  and  C_20
REMARK                            x       y       z     vdW  Elec       q    Type
REMARK                         _______ _______ _______ _____ _____    ______ ____
ROOT
ATOM      1  C   UNL     1       0.792  -2.345  -1.354  0.00  0.00    +0.182 C 
ATOM      2  N   UNL     1       0.195  -2.885  -0.298  0.00  0.00    -0.154 NA
ATOM      3  C   UNL     1       0.198  -4.193  -0.092  0.00  0.00    +0.250 C 
ATOM      4  O   UNL     1      -0.403  -4.650   0.861  0.00  0.00    -0.273 OA
ATOM      5  C   UNL     1       0.928  -5.118  -1.014  0.00  0.00    +0.156 C 
ATOM      6  C   UNL     1       0.071  -6.311  -1.423  0.00  0.00    +0.074 C 
ATOM      7  C   UNL     1       0.817  -7.084  -2.491  0.00  0.00    +0.025 C 
ATOM      8  C   UNL     1       1.629  -6.396  -3.397  0.00  0.00    +0.051 C 
ATOM      9  C   UNL     1       2.347  -7.149  -4.492  0.00  0.00    +0.062 C 
ATOM     10  C   UNL     1       2.681  -8.559  -3.996  0.00  0.00    -0.023 C 
ATOM     11  C   UNL     1       1.381  -9.255  -3.584  0.00  0.00    +0.086 C 
ATOM     12  C   UNL     1       0.678  -8.428  -2.543  0.00  0.00    +0.162 C 
ATOM     13  O   UNL     1      -0.108  -9.041  -1.639  0.00  0.00    -0.292 OA
ATOM     14  C   UNL     1       3.355  -9.351  -5.117  0.00  0.00    +0.011 C 
ATOM     15  C   UNL     1       3.619  -8.469  -2.791  0.00  0.00    +0.011 C 
ATOM     16  N   UNL     1       1.809  -5.092  -3.299  0.00  0.00    -0.236 NA
ATOM     17  C   UNL     1       1.393  -4.397  -2.249  0.00  0.00    +0.145 C 
ATOM     18  N   UNL     1       1.344  -3.083  -2.317  0.00  0.00    -0.208 NA
ENDROOT
BRANCH   6  19
ATOM     19  C   UNL     1      -1.247  -5.826  -1.971  0.00  0.00    -0.035 A 
ATOM     20  C   UNL     1      -1.271  -5.009  -3.086  0.00  0.00    +0.008 A 
ATOM     21  C   UNL     1      -2.477  -4.562  -3.593  0.00  0.00    +0.050 A 
ATOM     22  C   UNL     1      -3.665  -4.932  -2.984  0.00  0.00    +0.166 A 
ATOM     23  C   UNL     1      -3.640  -5.756  -1.861  0.00  0.00    +0.167 A 
ATOM     24  C   UNL     1      -2.428  -6.205  -1.362  0.00  0.00    +0.053 A 
ATOM     25  O   UNL     1      -4.924  -5.974  -1.451  0.00  0.00    -0.453 OA
ATOM     26  C   UNL     1      -5.710  -4.948  -2.086  0.00  0.00    +0.466 C 
ATOM     27  O   UNL     1      -4.964  -4.635  -3.278  0.00  0.00    -0.453 OA
ENDBRANCH   6  19
BRANCH   1  28
ATOM     28  S   UNL     1       0.851  -0.589  -1.490  0.00  0.00    -0.089 S 
BRANCH  28  30
ATOM     29  C   UNL     1      -0.019   1.526   0.010  0.00  0.00    +0.016 C 
ATOM     30  C   UNL     1       0.002  -0.004   0.002  0.00  0.00    +0.074 C 
ENDBRANCH  28  30
ENDBRANCH   1  28
TORSDOF 3
