REMARK  Name = ZINC38669585
REMARK  13 active torsions:
REMARK  status: ('A' for Active; 'I' for Inactive)
REMARK    1  A    between atoms: C_1  and  C_2
REMARK    2  A    between atoms: C_2  and  C_3
REMARK    3  A    between atoms: C_3  and  O_4
REMARK    4  A    between atoms: O_4  and  C_5
REMARK    5  A    between atoms: C_5  and  C_7
REMARK    6  A    between atoms: C_10  and  O_13
REMARK    7  A    between atoms: O_13  and  C_14
REMARK    8  A    between atoms: C_18  and  C_20
REMARK    9  A    between atoms: C_23  and  O_27
REMARK   10  A    between atoms: C_25  and  O_26
REMARK   11  A    between atoms: O_27  and  C_28
REMARK   12  A    between atoms: C_28  and  C_29
REMARK   13  A    between atoms: N_31  and  N_32
REMARK                            x       y       z     vdW  Elec       q    Type
REMARK                         _______ _______ _______ _____ _____    ______ ____
ROOT
ATOM      1  C   UNL     1       2.210  -8.624   3.593  0.00  0.00    +0.153 C 
ATOM      2  C   UNL     1       2.713  -7.931   4.635  0.00  0.00    +0.176 C 
ATOM      3  N   UNL     1       3.236  -8.760   5.546  0.00  0.00    -0.182 NA
ATOM      4  N   UNL     1       3.158  -9.958   5.264  0.00  0.00    -0.294 N 
ATOM      5  C   UNL     1       2.478 -10.073   3.962  0.00  0.00    +0.199 C 
ATOM      6  H   UNL     1       3.483 -10.694   5.805  0.00  0.00    +0.184 HD
ENDROOT
BRANCH   5   7
ATOM      7  C   UNL     1       3.381 -10.723   2.947  0.00  0.00    +0.025 A 
ATOM      8  C   UNL     1       4.729 -10.871   3.216  0.00  0.00    +0.013 A 
ATOM      9  C   UNL     1       5.559 -11.468   2.287  0.00  0.00    +0.046 A 
ATOM     10  C   UNL     1       5.042 -11.920   1.081  0.00  0.00    +0.125 A 
ATOM     11  C   UNL     1       3.691 -11.773   0.808  0.00  0.00    +0.091 A 
ATOM     12  C   UNL     1       2.858 -11.179   1.745  0.00  0.00    +0.126 A 
BRANCH  12  13
ATOM     13  O   UNL     1       1.532 -11.039   1.484  0.00  0.00    -0.506 OA
ATOM     14  H   UNL     1       1.304 -10.210   1.042  0.00  0.00    +0.292 HD
ENDBRANCH  12  13
BRANCH  10  15
ATOM     15  O   UNL     1       5.860 -12.506   0.167  0.00  0.00    -0.483 OA
BRANCH  15  16
ATOM     16  C   UNL     1       7.241 -12.624   0.514  0.00  0.00    +0.325 C 
BRANCH  16  17
ATOM     17  C   UNL     1       7.986 -13.293  -0.612  0.00  0.00    +0.264 C 
ATOM     18  O   UNL     1       7.393 -13.636  -1.613  0.00  0.00    -0.271 OA
ATOM     19  N   UNL     1       9.312 -13.512  -0.507  0.00  0.00    -0.251 N 
ATOM     20  H   UNL     1       9.787 -13.238   0.294  0.00  0.00    +0.169 HD
BRANCH  19  21
ATOM     21  N   UNL     1       9.988 -14.119  -1.527  0.00  0.00    -0.254 NA
ATOM     22  H   UNL     1       9.860 -13.618  -2.394  0.00  0.00    +0.140 HD
ATOM     23  H   UNL     1      10.967 -14.214  -1.306  0.00  0.00    +0.140 HD
ENDBRANCH  19  21
ENDBRANCH  16  17
ENDBRANCH  15  16
ENDBRANCH  10  15
ENDBRANCH   5   7
BRANCH   1  24
ATOM     24  O   UNL     1       1.605  -8.143   2.486  0.00  0.00    -0.456 OA
BRANCH  24  28
ATOM     25  C   UNL     1      -2.413  -8.937   1.974  0.00  0.00    +0.059 A 
ATOM     26  C   UNL     1      -1.693  -8.290   0.966  0.00  0.00    +0.018 A 
ATOM     27  C   UNL     1      -0.353  -8.026   1.141  0.00  0.00    +0.047 A 
ATOM     28  C   UNL     1       0.284  -8.404   2.318  0.00  0.00    +0.128 A 
ATOM     29  C   UNL     1      -0.429  -9.049   3.322  0.00  0.00    +0.047 A 
ATOM     30  C   UNL     1      -1.771  -9.310   3.158  0.00  0.00    +0.018 A 
BRANCH  25  31
ATOM     31  C   UNL     1      -3.849  -9.221   1.790  0.00  0.00    +0.339 C 
ATOM     32  O   UNL     1      -4.475  -9.780   2.670  0.00  0.00    -0.245 OA
BRANCH  31  33
ATOM     33  O   UNL     1      -4.467  -8.861   0.648  0.00  0.00    -0.461 OA
BRANCH  33  34
ATOM     34  C   UNL     1      -5.858  -9.167   0.539  0.00  0.00    +0.232 C 
BRANCH  34  36
ATOM     35  C   UNL     1      -7.871  -9.014  -0.933  0.00  0.00    +0.007 C 
ATOM     36  C   UNL     1      -6.381  -8.686  -0.816  0.00  0.00    +0.038 C 
ENDBRANCH  34  36
ENDBRANCH  33  34
ENDBRANCH  31  33
ENDBRANCH  25  31
ENDBRANCH  24  28
ENDBRANCH   1  24
TORSDOF 12
