REMARK  Name = ZINC63205833
REMARK  6 active torsions:
REMARK  status: ('A' for Active; 'I' for Inactive)
REMARK    1  A    between atoms: C_1  and  C_2
REMARK    2  A    between atoms: N_14  and  C_15
REMARK    3  A    between atoms: C_15  and  C_16
REMARK    4  A    between atoms: C_16  and  S_17
REMARK    5  A    between atoms: S_17  and  C_18
REMARK    6  A    between atoms: N_31  and  C_32
REMARK                            x       y       z     vdW  Elec       q    Type
REMARK                         _______ _______ _______ _____ _____    ______ ____
ROOT
ATOM      1  C   UNL     1       0.031  -1.386  -2.975  0.00  0.00    +0.007 C 
ATOM      2  C   UNL     1       0.030  -1.417  -1.445  0.00  0.00    -0.011 C 
ATOM      3  C   UNL     1       0.778  -2.661  -0.960  0.00  0.00    +0.022 C 
ATOM      4  C   UNL     1       0.805  -2.670   0.572  0.00  0.00    +0.108 C 
ATOM      5  N   UNL     1      -0.573  -2.561   1.070  0.00  0.00    -0.305 N 
ATOM      6  C   UNL     1      -1.410  -1.451   0.595  0.00  0.00    +0.108 C 
ATOM      7  C   UNL     1      -1.413  -1.456  -0.937  0.00  0.00    +0.022 C 
ATOM      8  C   UNL     1      -1.070  -3.481   1.963  0.00  0.00    +0.161 C 
ATOM      9  N   UNL     1      -2.302  -3.908   1.950  0.00  0.00    -0.340 N 
ATOM     10  C   UNL     1      -2.471  -4.896   3.026  0.00  0.00    +0.203 C 
ATOM     11  C   UNL     1      -1.008  -5.332   3.295  0.00  0.00    +0.205 C 
ATOM     12  N   UNL     1      -0.317  -4.056   2.966  0.00  0.00    -0.289 N 
ATOM     13  C   UNL     1      -0.589  -6.359   2.278  0.00  0.00    +0.264 C 
ATOM     14  N   UNL     1      -1.449  -7.064   1.564  0.00  0.00    -0.126 NA
ATOM     15  C   UNL     1      -2.755  -6.920   1.685  0.00  0.00    +0.330 C 
ATOM     16  O   UNL     1      -3.587  -7.638   0.910  0.00  0.00    -0.250 OA
ATOM     17  N   UNL     1      -3.267  -6.033   2.581  0.00  0.00    -0.264 N 
ATOM     18  C   UNL     1      -4.607  -6.246   3.133  0.00  0.00    +0.136 C 
ATOM     19  O   UNL     1       0.599  -6.549   2.106  0.00  0.00    -0.271 OA
ATOM     20  H   UNL     1      -2.993  -3.620   1.332  0.00  0.00    +0.164 HD
ENDROOT
BRANCH  12  21
ATOM     21  C   UNL     1       0.902  -3.523   3.579  0.00  0.00    +0.119 C 
BRANCH  21  22
ATOM     22  C   UNL     1       0.540  -2.764   4.857  0.00  0.00    +0.092 C 
BRANCH  22  23
ATOM     23  S   UNL     1       2.050  -2.104   5.617  0.00  0.00    -0.113 S 
BRANCH  23  24
ATOM     24  C   UNL     1       1.456  -1.244   7.099  0.00  0.00    +0.235 C 
ATOM     25  N   UNL     1       0.701  -2.171   7.951  0.00  0.00    -0.355 N 
ATOM     26  C   UNL     1      -0.510  -1.706   8.057  0.00  0.00    +0.061 A 
ATOM     27  C   UNL     1      -1.705  -2.184   8.766  0.00  0.00    +0.027 A 
ATOM     28  C   UNL     1      -2.850  -1.476   8.692  0.00  0.00    +0.002 A 
ATOM     29  C   UNL     1      -2.957  -0.282   7.957  0.00  0.00    +0.002 A 
ATOM     30  C   UNL     1      -1.923   0.244   7.270  0.00  0.00    +0.027 A 
ATOM     31  C   UNL     1      -0.624  -0.443   7.278  0.00  0.00    +0.061 A 
ATOM     32  N   UNL     1       0.522  -0.175   6.721  0.00  0.00    -0.355 N 
ATOM     33  H   UNL     1       1.042  -2.981   8.361  0.00  0.00    +0.162 HD
ATOM     34  H   UNL     1       0.722   0.590   6.159  0.00  0.00    +0.162 HD
ENDBRANCH  23  24
ENDBRANCH  22  23
ENDBRANCH  21  22
ENDBRANCH  12  21
TORSDOF 4
