REMARK  Name = ZINC40755529
REMARK  5 active torsions:
REMARK  status: ('A' for Active; 'I' for Inactive)
REMARK    1  A    between atoms: C_1  and  C_2
REMARK    2  A    between atoms: C_5  and  N_9
REMARK    3  A    between atoms: C_6  and  C_8
REMARK    4  A    between atoms: C_11  and  N_28
REMARK    5  A    between atoms: C_12  and  N_16
REMARK                            x       y       z     vdW  Elec       q    Type
REMARK                         _______ _______ _______ _____ _____    ______ ____
ROOT
ATOM      1  N   UNL     1       0.199  -4.207  -0.029  0.00  0.00    -0.298 N 
ATOM      2  C   UNL     1       0.048  -4.883  -1.234  0.00  0.00    +0.149 A 
ATOM      3  C   UNL     1      -0.046  -6.276  -1.258  0.00  0.00    +0.106 A 
ATOM      4  C   UNL     1      -0.198  -6.905  -2.495  0.00  0.00    +0.147 A 
ATOM      5  N   UNL     1      -0.247  -6.159  -3.596  0.00  0.00    -0.219 NA
ATOM      6  C   UNL     1      -0.154  -4.846  -3.529  0.00  0.00    +0.225 A 
ATOM      7  N   UNL     1      -0.016  -4.213  -2.382  0.00  0.00    -0.219 NA
ATOM      8  H   UNL     1       0.284  -4.704   0.799  0.00  0.00    +0.154 HD
ENDROOT
BRANCH   4   9
ATOM      9  N   UNL     1      -0.296  -8.289  -2.576  0.00  0.00    -0.311 N 
ATOM     10  C   UNL     1      -1.593  -8.958  -2.406  0.00  0.00    +0.125 C 
ATOM     11  C   UNL     1      -1.857  -9.834  -3.637  0.00  0.00    +0.125 C 
ATOM     12  N   UNL     1      -0.665 -10.655  -3.894  0.00  0.00    -0.314 N 
ATOM     13  C   UNL     1       0.633  -9.986  -4.063  0.00  0.00    +0.125 C 
ATOM     14  C   UNL     1       0.895  -9.109  -2.838  0.00  0.00    +0.125 C 
ATOM     15  C   UNL     1      -0.763 -12.039  -3.975  0.00  0.00    +0.099 A 
ATOM     16  C   UNL     1      -2.016 -12.643  -3.968  0.00  0.00    +0.042 A 
ATOM     17  C   UNL     1      -2.099 -14.021  -4.048  0.00  0.00    +0.005 A 
ATOM     18  C   UNL     1      -0.921 -14.752  -4.134  0.00  0.00    +0.018 A 
ATOM     19  C   UNL     1       0.289 -14.087  -4.136  0.00  0.00    +0.084 A 
ATOM     20  N   UNL     1       0.337 -12.770  -4.063  0.00  0.00    -0.350 N 
ATOM     21  H   UNL     1       1.200 -12.328  -4.070  0.00  0.00    +0.166 HD
ENDBRANCH   4   9
BRANCH   1  26
ATOM     22  C   UNL     1       0.315   1.463   0.044  0.00  0.00    +0.044 C 
ATOM     23  C   UNL     1       0.284  -0.043   0.025  0.00  0.00    -0.050 A 
ATOM     24  C   UNL     1       0.816  -0.731  -1.051  0.00  0.00    +0.005 A 
ATOM     25  C   UNL     1       0.789  -2.111  -1.072  0.00  0.00    +0.024 A 
ATOM     26  C   UNL     1       0.228  -2.809  -0.011  0.00  0.00    +0.035 A 
ATOM     27  C   UNL     1      -0.304  -2.116   1.069  0.00  0.00    -0.029 A 
ATOM     28  C   UNL     1      -0.270  -0.735   1.086  0.00  0.00    +0.008 A 
ATOM     29  C   UNL     1      -0.915  -2.870   2.223  0.00  0.00    +0.045 C 
ENDBRANCH   1  26
BRANCH   3  30
ATOM     30  N   UNL     1       0.011  -7.023  -0.071  0.00  0.00    -0.353 N 
ATOM     31  H   UNL     1       0.042  -6.571   0.786  0.00  0.00    +0.143 HD
ATOM     32  H   UNL     1       0.019  -7.993  -0.108  0.00  0.00    +0.143 HD
ENDBRANCH   3  30
TORSDOF 3
