REMARK  Name = ZINC36523162
REMARK  11 active torsions:
REMARK  status: ('A' for Active; 'I' for Inactive)
REMARK    1  A    between atoms: C_1  and  N_2
REMARK    2  A    between atoms: N_2  and  C_3
REMARK    3  A    between atoms: C_3  and  C_5
REMARK    4  A    between atoms: C_3  and  C_14
REMARK    5  A    between atoms: C_6  and  O_13
REMARK    6  A    between atoms: C_8  and  O_12
REMARK    7  A    between atoms: C_10  and  O_11
REMARK    8  A    between atoms: N_16  and  C_17
REMARK    9  A    between atoms: C_23  and  C_25
REMARK   10  A    between atoms: C_25  and  C_33
REMARK   11  A    between atoms: C_26  and  C_27
REMARK                            x       y       z     vdW  Elec       q    Type
REMARK                         _______ _______ _______ _____ _____    ______ ____
ROOT
ATOM      1  C   UNL     1       0.671  -0.431   1.630  0.00  0.00    +0.199 C 
ENDROOT
BRANCH   1   2
ATOM      2  C   UNL     1      -0.076   0.818   2.022  0.00  0.00    +0.065 A 
ATOM      3  C   UNL     1       0.167   1.415   3.249  0.00  0.00    +0.129 A 
ATOM      4  C   UNL     1      -0.521   2.564   3.610  0.00  0.00    +0.091 A 
ATOM      5  C   UNL     1      -1.451   3.116   2.742  0.00  0.00    +0.124 A 
ATOM      6  C   UNL     1      -1.693   2.519   1.514  0.00  0.00    +0.091 A 
ATOM      7  C   UNL     1      -1.002   1.373   1.152  0.00  0.00    +0.129 A 
BRANCH   7   8
ATOM      8  O   UNL     1      -1.236   0.791  -0.054  0.00  0.00    -0.506 OA
ATOM      9  H   UNL     1      -1.940   0.128  -0.040  0.00  0.00    +0.292 HD
ENDBRANCH   7   8
BRANCH   5  10
ATOM     10  O   UNL     1      -2.125   4.242   3.095  0.00  0.00    -0.507 OA
ATOM     11  H   UNL     1      -1.686   5.062   2.832  0.00  0.00    +0.292 HD
ENDBRANCH   5  10
BRANCH   3  12
ATOM     12  O   UNL     1       1.079   0.874   4.100  0.00  0.00    -0.506 OA
ATOM     13  H   UNL     1       1.957   1.275   4.042  0.00  0.00    +0.292 HD
ENDBRANCH   3  12
ENDBRANCH   1   2
BRANCH   1  15
ATOM     14  C   UNL     1       1.990   0.756  -0.184  0.00  0.00    +0.133 C 
ATOM     15  N   UNL     1       1.096  -0.328   0.232  0.00  0.00    -0.285 N 
ATOM     16  C   UNL     1       0.664  -1.230  -0.672  0.00  0.00    +0.248 C 
ATOM     17  O   UNL     1      -0.143  -2.079  -0.345  0.00  0.00    -0.270 OA
BRANCH  16  18
ATOM     18  C   UNL     1       1.169  -1.187  -2.054  0.00  0.00    +0.045 C 
ATOM     19  C   UNL     1       2.446  -1.568  -2.323  0.00  0.00    +0.021 C 
BRANCH  19  20
ATOM     20  C   UNL     1       3.269  -2.177  -1.268  0.00  0.00    -0.024 A 
ATOM     21  C   UNL     1       2.682  -3.017  -0.315  0.00  0.00    +0.008 A 
ATOM     22  C   UNL     1       3.461  -3.585   0.670  0.00  0.00    +0.001 A 
ATOM     23  C   UNL     1       4.820  -3.326   0.719  0.00  0.00    +0.000 A 
ATOM     24  C   UNL     1       5.408  -2.496  -0.220  0.00  0.00    +0.001 A 
ATOM     25  C   UNL     1       4.644  -1.925  -1.215  0.00  0.00    +0.008 A 
ENDBRANCH  19  20
BRANCH  18  26
ATOM     26  C   UNL     1       0.286  -0.729  -3.151  0.00  0.00    -0.013 A 
ATOM     27  C   UNL     1      -0.150   0.596  -3.192  0.00  0.00    +0.008 A 
ATOM     28  C   UNL     1      -0.973   1.016  -4.217  0.00  0.00    +0.001 A 
ATOM     29  C   UNL     1      -1.364   0.128  -5.202  0.00  0.00    +0.000 A 
ATOM     30  C   UNL     1      -0.935  -1.187  -5.167  0.00  0.00    +0.001 A 
ATOM     31  C   UNL     1      -0.107  -1.618  -4.151  0.00  0.00    +0.008 A 
ENDBRANCH  18  26
ENDBRANCH  16  18
ENDBRANCH   1  15
BRANCH   1  32
ATOM     32  C   UNL     1       1.883  -0.589   2.513  0.00  0.00    +0.239 C 
ATOM     33  O   UNL     1       2.929  -0.058   2.207  0.00  0.00    -0.273 OA
ATOM     34  N   UNL     1       1.803  -1.321   3.642  0.00  0.00    -0.311 N 
ATOM     35  H   UNL     1       0.987  -1.800   3.853  0.00  0.00    +0.149 HD
BRANCH  34  36
ATOM     36  C   UNL     1       2.950  -1.392   4.550  0.00  0.00    +0.073 C 
ATOM     37  C   UNL     1       3.906  -2.491   4.080  0.00  0.00    +0.022 C 
ATOM     38  C   UNL     1       5.104  -2.566   5.029  0.00  0.00    +0.002 C 
ATOM     39  C   UNL     1       4.615  -2.886   6.443  0.00  0.00    +0.000 C 
ATOM     40  C   UNL     1       3.659  -1.787   6.913  0.00  0.00    +0.002 C 
ATOM     41  C   UNL     1       2.462  -1.712   5.964  0.00  0.00    +0.022 C 
ENDBRANCH  34  36
ENDBRANCH   1  32
TORSDOF 10
