REMARK  Name = ZINC39693438
REMARK  10 active torsions:
REMARK  status: ('A' for Active; 'I' for Inactive)
REMARK    1  A    between atoms: C_1  and  C_2
REMARK    2  A    between atoms: C_2  and  C_3
REMARK    3  A    between atoms: C_2  and  C_4
REMARK    4  A    between atoms: C_2  and  O_5
REMARK    5  A    between atoms: O_5  and  C_6
REMARK    6  A    between atoms: N_8  and  C_9
REMARK    7  A    between atoms: C_9  and  C_10
REMARK    8  A    between atoms: C_10  and  N_11
REMARK    9  A    between atoms: C_12  and  C_14
REMARK   10  A    between atoms: C_25  and  C_27
REMARK                            x       y       z     vdW  Elec       q    Type
REMARK                         _______ _______ _______ _____ _____    ______ ____
ROOT
ATOM      1  C   UNL     1       7.589   0.097  -5.723  0.00  0.00    +0.100 C 
ATOM      2  C   UNL     1       7.971   1.594  -5.774  0.00  0.00    +0.121 C 
ATOM      3  N   UNL     1       9.094   1.661  -6.738  0.00  0.00    -0.296 N 
ATOM      4  C   UNL     1       8.720   0.705  -7.808  0.00  0.00    +0.115 C 
ATOM      5  C   UNL     1       8.082  -0.482  -7.059  0.00  0.00    -0.004 C 
ATOM      6  C   UNL     1       6.908  -1.039  -7.859  0.00  0.00    -0.010 C 
ATOM      7  C   UNL     1       7.429  -1.662  -9.157  0.00  0.00    -0.082 C 
ATOM      8  N   UNL     1       8.383  -2.732  -8.840  0.00  0.00    +0.379 N 
ATOM      9  C   UNL     1       9.553  -2.172  -8.153  0.00  0.00    -0.082 C 
ATOM     10  C   UNL     1       9.122  -1.571  -6.812  0.00  0.00    -0.010 C 
ATOM     11  C   UNL     1      10.206   2.419  -6.660  0.00  0.00    +0.247 C 
ATOM     12  O   UNL     1      10.434   3.061  -5.653  0.00  0.00    -0.270 OA
ATOM     13  H   UNL     1       7.938  -3.412  -8.242  0.00  0.00    -0.086 HD
ATOM     14  H   UNL     1       8.679  -3.181  -9.694  0.00  0.00    -0.086 HD
ENDROOT
BRANCH  11  15
ATOM     15  C   UNL     1      11.148   2.469  -7.797  0.00  0.00    +0.037 A 
ATOM     16  C   UNL     1      10.720   2.113  -9.078  0.00  0.00    +0.014 A 
ATOM     17  C   UNL     1      11.604   2.162 -10.135  0.00  0.00    +0.016 A 
ATOM     18  C   UNL     1      12.913   2.564  -9.929  0.00  0.00    +0.018 A 
ATOM     19  C   UNL     1      13.343   2.918  -8.662  0.00  0.00    +0.016 A 
ATOM     20  C   UNL     1      12.467   2.879  -7.597  0.00  0.00    +0.014 A 
ATOM     21 BR   UNL     1      14.118   2.627 -11.385  0.00  0.00    -0.050 Br
ENDBRANCH  11  15
BRANCH   1  23
ATOM     22  N   UNL     1       5.580  -1.127  -4.960  0.00  0.00    -0.314 N 
ATOM     23  C   UNL     1       6.095  -0.060  -5.602  0.00  0.00    +0.218 C 
ATOM     24  O   UNL     1       5.357   0.774  -6.082  0.00  0.00    -0.275 OA
ATOM     25  H   UNL     1       6.170  -1.794  -4.576  0.00  0.00    +0.149 HD
BRANCH  22  26
ATOM     26  C   UNL     1       4.127  -1.279  -4.842  0.00  0.00    +0.123 C 
BRANCH  26  27
ATOM     27  C   UNL     1       3.810  -2.564  -4.075  0.00  0.00    +0.126 C 
BRANCH  27  30
ATOM     28  C   UNL     1       1.842  -3.784  -3.315  0.00  0.00    +0.401 C 
ATOM     29  O   UNL     1       2.582  -4.619  -2.834  0.00  0.00    -0.226 OA
ATOM     30  N   UNL     1       2.358  -2.717  -3.957  0.00  0.00    -0.280 N 
ATOM     31  H   UNL     1       1.767  -2.050  -4.341  0.00  0.00    +0.152 HD
BRANCH  28  32
ATOM     32  O   UNL     1       0.507  -3.924  -3.207  0.00  0.00    -0.445 OA
BRANCH  32  34
ATOM     33  C   UNL     1       0.560  -5.067  -1.078  0.00  0.00    +0.055 C 
ATOM     34  C   UNL     1       0.031  -5.079  -2.513  0.00  0.00    +0.107 C 
ATOM     35  C   UNL     1       0.520  -6.341  -3.227  0.00  0.00    +0.055 C 
ATOM     36  C   UNL     1      -1.499  -5.066  -2.492  0.00  0.00    +0.055 C 
ENDBRANCH  32  34
ENDBRANCH  28  32
ENDBRANCH  27  30
ENDBRANCH  26  27
ENDBRANCH  22  26
ENDBRANCH   1  23
TORSDOF 7
