REMARK  Name = ZINC61174578
REMARK  7 active torsions:
REMARK  status: ('A' for Active; 'I' for Inactive)
REMARK    1  A    between atoms: C_1  and  C_2
REMARK    2  A    between atoms: C_2  and  C_3
REMARK    3  A    between atoms: C_2  and  C_4
REMARK    4  A    between atoms: C_2  and  N_7
REMARK    5  A    between atoms: N_7  and  C_8
REMARK    6  A    between atoms: N_11  and  C_12
REMARK    7  A    between atoms: C_18  and  N_20
REMARK                            x       y       z     vdW  Elec       q    Type
REMARK                         _______ _______ _______ _____ _____    ______ ____
ROOT
ATOM      1  N   UNL     1       0.953  -0.296  -1.117  0.00  0.00    -0.273 N 
ATOM      2  C   UNL     1       0.443  -0.902  -2.350  0.00  0.00    +0.134 C 
ATOM      3  C   UNL     1       2.278  -0.112  -0.954  0.00  0.00    +0.303 C 
ATOM      4  O   UNL     1       2.701   0.391   0.069  0.00  0.00    -0.253 OA
ATOM      5  N   UNL     1       3.134  -0.486  -1.926  0.00  0.00    -0.298 N 
ATOM      6  H   UNL     1       2.797  -0.887  -2.742  0.00  0.00    +0.150 HD
ENDROOT
BRANCH   5   7
ATOM      7  C   UNL     1       4.575  -0.286  -1.749  0.00  0.00    +0.060 C 
ATOM      8  C   UNL     1       5.163  -1.470  -0.978  0.00  0.00    +0.021 C 
ATOM      9  C   UNL     1       4.919  -2.761  -1.762  0.00  0.00    +0.002 C 
ATOM     10  C   UNL     1       5.592  -2.660  -3.133  0.00  0.00    -0.001 C 
ATOM     11  C   UNL     1       5.004  -1.477  -3.904  0.00  0.00    -0.014 C 
ATOM     12  C   UNL     1       5.248  -0.186  -3.119  0.00  0.00    -0.054 C 
BRANCH  12  13
ATOM     13  N   UNL     1       4.683   0.951  -3.860  0.00  0.00    +0.381 N 
ATOM     14  H   UNL     1       4.844   1.802  -3.343  0.00  0.00    -0.090 HD
ATOM     15  H   UNL     1       5.127   1.017  -4.763  0.00  0.00    -0.090 HD
ATOM     16  H   UNL     1       3.691   0.813  -3.982  0.00  0.00    -0.090 HD
ENDBRANCH  12  13
ENDBRANCH   5   7
BRANCH   1  18
ATOM     17  C   UNL     1       0.344  -0.654   1.224  0.00  0.00    +0.044 C 
ATOM     18  C   UNL     1       0.022   0.110  -0.061  0.00  0.00    +0.134 C 
ATOM     19  C   UNL     1      -1.411  -0.203  -0.496  0.00  0.00    +0.044 C 
BRANCH  18  20
ATOM     20  C   UNL     1       0.159   1.590   0.187  0.00  0.00    +0.379 C 
ATOM     21  O   UNL     1       0.878   2.265  -0.530  0.00  0.00    -0.244 OA
ATOM     22  O   UNL     1      -0.449   2.113   1.105  0.00  0.00    -0.244 OA
ENDBRANCH  18  20
ENDBRANCH   1  18
TORSDOF 4
