REMARK  Name = ZINC35557545
REMARK  6 active torsions:
REMARK  status: ('A' for Active; 'I' for Inactive)
REMARK    1  A    between atoms: C_1  and  C_2
REMARK    2  A    between atoms: C_5  and  N_9
REMARK    3  A    between atoms: N_9  and  S_10
REMARK    4  A    between atoms: S_10  and  C_13
REMARK    5  A    between atoms: C_15  and  C_18
REMARK    6  A    between atoms: C_20  and  C_23
REMARK                            x       y       z     vdW  Elec       q    Type
REMARK                         _______ _______ _______ _____ _____    ______ ____
ROOT
ATOM      1  C   UNL     1       0.099  -6.722   1.003  0.00  0.00    +0.148 A 
ATOM      2  C   UNL     1       1.163  -7.534   0.810  0.00  0.00    +0.048 A 
ATOM      3  C   UNL     1       0.877  -8.864   0.499  0.00  0.00    +0.031 A 
ATOM      4  C   UNL     1      -0.429  -9.239   0.415  0.00  0.00    +0.058 A 
ATOM      5  S   UNL     1      -1.275  -7.829   0.756  0.00  0.00    -0.076 S 
ENDROOT
BRANCH   3   6
ATOM      6  C   UNL     1       1.966  -9.842   0.266  0.00  0.00    +0.203 A 
ATOM      7  N   UNL     1       1.802 -11.141  -0.044  0.00  0.00    -0.191 NA
ATOM      8  C   UNL     1       2.962 -11.717  -0.181  0.00  0.00    +0.231 A 
ATOM      9  O   UNL     1       3.918 -10.805   0.036  0.00  0.00    -0.337 OA
ATOM     10  N   UNL     1       3.251  -9.584   0.322  0.00  0.00    -0.056 NA
BRANCH   8  11
ATOM     11  C   UNL     1       3.191 -13.166  -0.526  0.00  0.00    +0.078 C 
ATOM     12  C   UNL     1       4.048 -13.841   0.565  0.00  0.00    +0.013 C 
ATOM     13  C   UNL     1       4.961 -14.815  -0.218  0.00  0.00    +0.001 C 
ATOM     14  C   UNL     1       5.296 -14.014  -1.501  0.00  0.00    +0.001 C 
ATOM     15  C   UNL     1       3.984 -13.277  -1.840  0.00  0.00    +0.013 C 
ENDBRANCH   8  11
ENDBRANCH   3   6
BRANCH   1  16
ATOM     16  S   UNL     1       0.078  -5.006   1.405  0.00  0.00    +0.098 S 
ATOM     17  O   UNL     1       1.323  -4.720   2.028  0.00  0.00    -0.148 OA
ATOM     18  O   UNL     1      -1.168  -4.754   2.041  0.00  0.00    -0.148 OA
BRANCH  16  19
ATOM     19  N   UNL     1       0.059  -4.169  -0.023  0.00  0.00    -0.097 NA
BRANCH  19  24
ATOM     20  C   UNL     1      -0.018   1.503   0.010  0.00  0.00    +0.047 C 
ATOM     21  C   UNL     1       0.002  -0.004   0.002  0.00  0.00    -0.015 A 
ATOM     22  C   UNL     1       0.006  -0.688  -1.200  0.00  0.00    +0.008 A 
ATOM     23  C   UNL     1       0.025  -2.068  -1.211  0.00  0.00    +0.027 A 
ATOM     24  C   UNL     1       0.041  -2.772  -0.014  0.00  0.00    +0.077 A 
ATOM     25  C   UNL     1       0.037  -2.085   1.193  0.00  0.00    +0.065 A 
ATOM     26  C   UNL     1       0.023  -0.702   1.198  0.00  0.00    +0.128 A 
ATOM     27  F   UNL     1       0.024  -0.031   2.371  0.00  0.00    -0.205 F 
ENDBRANCH  19  24
ENDBRANCH  16  19
ENDBRANCH   1  16
TORSDOF 5
