REMARK  Name = ZINC14974195
REMARK  13 active torsions:
REMARK  status: ('A' for Active; 'I' for Inactive)
REMARK    1  A    between atoms: C_1  and  C_2
REMARK    2  A    between atoms: C_3  and  C_24
REMARK    3  A    between atoms: C_5  and  C_7
REMARK    4  A    between atoms: C_10  and  N_13
REMARK    5  A    between atoms: C_14  and  C_16
REMARK    6  A    between atoms: C_19  and  C_21
REMARK    7  A    between atoms: C_21  and  O_22
REMARK    8  A    between atoms: O_22  and  C_23
REMARK    9  A    between atoms: C_24  and  N_25
REMARK   10  A    between atoms: C_26  and  C_28
REMARK   11  A    between atoms: C_28  and  C_30
REMARK   12  A    between atoms: C_28  and  O_31
REMARK   13  A    between atoms: O_31  and  C_32
REMARK                            x       y       z     vdW  Elec       q    Type
REMARK                         _______ _______ _______ _____ _____    ______ ____
ROOT
ATOM      1  C   UNL     1       3.269   5.147   4.067  0.00  0.00    +0.088 C 
ATOM      2  C   UNL     1       3.248   6.061   2.868  0.00  0.00    +0.127 A 
ATOM      3  C   UNL     1       2.256   6.169   1.966  0.00  0.00    +0.100 A 
ATOM      4  N   UNL     1       2.621   7.092   1.063  0.00  0.00    -0.212 NA
ATOM      5  C   UNL     1       3.811   7.546   1.384  0.00  0.00    +0.228 A 
ATOM      6  O   UNL     1       4.221   6.918   2.499  0.00  0.00    -0.440 OA
ENDROOT
BRANCH   5   7
ATOM      7  C   UNL     1       4.570   8.574   0.643  0.00  0.00    +0.037 A 
ATOM      8  C   UNL     1       4.031   9.147  -0.510  0.00  0.00    +0.015 A 
ATOM      9  C   UNL     1       4.740  10.110  -1.195  0.00  0.00    +0.024 A 
ATOM     10  C   UNL     1       5.995  10.503  -0.745  0.00  0.00    +0.034 A 
ATOM     11  C   UNL     1       6.537   9.930   0.400  0.00  0.00    +0.024 A 
ATOM     12  C   UNL     1       5.832   8.971   1.093  0.00  0.00    +0.015 A 
BRANCH  10  13
ATOM     13  N   UNL     1       6.713  11.475  -1.445  0.00  0.00    -0.279 N 
ATOM     14  C   UNL     1       8.055  11.384  -1.539  0.00  0.00    +0.284 C 
ATOM     15  O   UNL     1       8.649  10.506  -0.942  0.00  0.00    -0.266 OA
ATOM     16  H   UNL     1       6.247  12.215  -1.863  0.00  0.00    +0.155 HD
BRANCH  14  17
ATOM     17  C   UNL     1       8.798  12.344  -2.360  0.00  0.00    +0.190 A 
ATOM     18  C   UNL     1      10.152  12.370  -2.537  0.00  0.00    +0.055 A 
ATOM     19  C   UNL     1      10.427  13.445  -3.396  0.00  0.00    +0.048 A 
ATOM     20  C   UNL     1       9.245  14.027  -3.696  0.00  0.00    +0.131 A 
ATOM     21  O   UNL     1       8.266  13.361  -3.070  0.00  0.00    -0.453 OA
BRANCH  20  22
ATOM     22  C   UNL     1       9.058  15.228  -4.587  0.00  0.00    +0.233 C 
BRANCH  22  23
ATOM     23  O   UNL     1       8.869  14.795  -5.936  0.00  0.00    -0.375 OA
ATOM     24  C   UNL     1       8.682  15.862  -6.868  0.00  0.00    +0.194 C 
ENDBRANCH  22  23
ENDBRANCH  20  22
ENDBRANCH  14  17
ENDBRANCH  10  13
ENDBRANCH   5   7
BRANCH   3  25
ATOM     25  C   UNL     1       0.962   5.397   1.973  0.00  0.00    +0.163 C 
BRANCH  25  26
ATOM     26  N   UNL     1       1.127   4.161   1.205  0.00  0.00    -0.307 N 
ATOM     27  C   UNL     1       0.094   3.306   1.073  0.00  0.00    +0.254 C 
ATOM     28  O   UNL     1      -0.973   3.560   1.591  0.00  0.00    -0.272 OA
ATOM     29  H   UNL     1       1.981   3.957   0.791  0.00  0.00    +0.149 HD
BRANCH  27  30
ATOM     30  C   UNL     1       0.264   2.034   0.283  0.00  0.00    +0.255 C 
ATOM     31  C   UNL     1       0.646   2.376  -1.158  0.00  0.00    +0.062 C 
BRANCH  30  32
ATOM     32  O   UNL     1      -0.963   1.302   0.289  0.00  0.00    -0.480 OA
BRANCH  32  33
ATOM     33  C   UNL     1      -0.881  -0.043   0.107  0.00  0.00    +0.122 A 
ATOM     34  C   UNL     1      -2.018  -0.830   0.217  0.00  0.00    +0.045 A 
ATOM     35  C   UNL     1      -1.932  -2.196   0.027  0.00  0.00    +0.004 A 
ATOM     36  C   UNL     1      -0.712  -2.779  -0.263  0.00  0.00    +0.000 A 
ATOM     37  C   UNL     1       0.423  -1.997  -0.367  0.00  0.00    +0.004 A 
ATOM     38  C   UNL     1       0.342  -0.631  -0.183  0.00  0.00    +0.045 A 
ENDBRANCH  32  33
ENDBRANCH  30  32
ENDBRANCH  27  30
ENDBRANCH  25  26
ENDBRANCH   3  25
TORSDOF 10
