REMARK  Name = ZINC16363305
REMARK  3 active torsions:
REMARK  status: ('A' for Active; 'I' for Inactive)
REMARK    1  A    between atoms: C_1  and  C_2
REMARK    2  A    between atoms: N_13  and  C_14
REMARK    3  A    between atoms: C_14  and  C_15
REMARK                            x       y       z     vdW  Elec       q    Type
REMARK                         _______ _______ _______ _____ _____    ______ ____
ROOT
ATOM      1  C   UNL     1      -0.004   1.081   0.005  0.00  0.00    +0.086 C 
ATOM      2  C   UNL     1      -0.712   1.569   1.243  0.00  0.00    +0.110 A 
ATOM      3  N   UNL     1      -1.994   1.763   1.183  0.00  0.00    -0.233 NA
ATOM      4  C   UNL     1      -2.700   2.196   2.257  0.00  0.00    +0.091 A 
ATOM      5  C   UNL     1      -2.016   2.452   3.467  0.00  0.00    +0.066 A 
ATOM      6  C   UNL     1      -2.717   2.904   4.583  0.00  0.00    +0.015 A 
ATOM      7  C   UNL     1      -4.079   3.098   4.496  0.00  0.00    +0.002 A 
ATOM      8  C   UNL     1      -4.754   2.847   3.309  0.00  0.00    +0.016 A 
ATOM      9  C   UNL     1      -4.080   2.401   2.195  0.00  0.00    +0.040 A 
ATOM     10  I   UNL     1      -5.119   2.030   0.414  0.00  0.00    -0.042 I 
ATOM     11  C   UNL     1      -0.563   2.228   3.500  0.00  0.00    +0.262 A 
ATOM     12  O   UNL     1       0.085   2.429   4.510  0.00  0.00    -0.267 OA
ATOM     13  N   UNL     1       0.025   1.789   2.363  0.00  0.00    -0.289 N 
ENDROOT
BRANCH  13  14
ATOM     14  C   UNL     1       1.470   1.549   2.339  0.00  0.00    +0.202 C 
BRANCH  14  15
ATOM     15  C   UNL     1       2.183   2.810   1.924  0.00  0.00    +0.152 A 
ATOM     16  N   UNL     1       2.702   3.740   2.768  0.00  0.00    -0.132 NA
ATOM     17  N   UNL     1       3.262   4.745   1.963  0.00  0.00    -0.122 NA
ATOM     18  C   UNL     1       3.050   4.367   0.684  0.00  0.00    +0.200 A 
ATOM     19  S   UNL     1       3.532   5.236  -0.710  0.00  0.00    -0.009 SA
ATOM     20  N   UNL     1       2.395   3.194   0.693  0.00  0.00    -0.318 N 
ATOM     21  H   UNL     1       2.123   2.709  -0.256  0.00  0.00    +0.169 HD
ENDBRANCH  14  15
ENDBRANCH  13  14
TORSDOF 2
