REMARK  Name = ZINC54729482
REMARK  5 active torsions:
REMARK  status: ('A' for Active; 'I' for Inactive)
REMARK    1  A    between atoms: C_1  and  C_2
REMARK    2  A    between atoms: C_5  and  C_7
REMARK    3  A    between atoms: C_7  and  C_9
REMARK    4  A    between atoms: C_7  and  N_10
REMARK    5  A    between atoms: C_16  and  N_19
REMARK                            x       y       z     vdW  Elec       q    Type
REMARK                         _______ _______ _______ _____ _____    ______ ____
ROOT
ATOM      1  N   UNL     1       1.812  -6.417  -1.234  0.00  0.00    -0.292 N 
ATOM      2  C   UNL     1       2.539  -5.311  -1.489  0.00  0.00    +0.303 C 
ATOM      3  O   UNL     1       2.183  -4.235  -1.051  0.00  0.00    -0.253 OA
ATOM      4  N   UNL     1       3.662  -5.399  -2.229  0.00  0.00    -0.286 N 
ATOM      5  C   UNL     1       4.527  -4.227  -2.418  0.00  0.00    +0.111 C 
ATOM      6  C   UNL     1       5.957  -4.598  -2.011  0.00  0.00    +0.044 C 
ATOM      7  C   UNL     1       6.399  -5.839  -2.791  0.00  0.00    +0.095 C 
ATOM      8  C   UNL     1       5.479  -7.013  -2.450  0.00  0.00    +0.044 C 
ATOM      9  C   UNL     1       4.048  -6.670  -2.857  0.00  0.00    +0.111 C 
ATOM     10  H   UNL     1       2.055  -7.262  -1.643  0.00  0.00    +0.151 HD
ENDROOT
BRANCH   7  11
ATOM     11  N   UNL     1       7.778  -6.177  -2.429  0.00  0.00    -0.289 N 
ATOM     12  C   UNL     1       8.861  -6.228  -3.303  0.00  0.00    +0.070 A 
ATOM     13  C   UNL     1       8.997  -6.002  -4.664  0.00  0.00    +0.028 A 
ATOM     14  C   UNL     1      10.235  -6.134  -5.263  0.00  0.00    +0.002 A 
ATOM     15  C   UNL     1      11.340  -6.492  -4.509  0.00  0.00    +0.002 A 
ATOM     16  C   UNL     1      11.214  -6.720  -3.153  0.00  0.00    +0.028 A 
ATOM     17  C   UNL     1       9.976  -6.588  -2.543  0.00  0.00    +0.067 A 
ATOM     18  N   UNL     1       9.535  -6.746  -1.231  0.00  0.00    -0.306 N 
ATOM     19  H   UNL     1      10.086  -6.995  -0.473  0.00  0.00    +0.170 HD
ATOM     20  C   UNL     1       8.214  -6.487  -1.194  0.00  0.00    +0.328 A 
ATOM     21  O   UNL     1       7.520  -6.529  -0.195  0.00  0.00    -0.247 OA
ENDBRANCH   7  11
BRANCH   1  22
ATOM     22  C   UNL     1       0.654  -6.342  -0.339  0.00  0.00    +0.108 C 
ATOM     23  C   UNL     1      -0.575  -5.894  -1.132  0.00  0.00    +0.033 C 
BRANCH  22  28
ATOM     24  C   UNL     1      -0.096 -11.789   1.023  0.00  0.00    +0.051 C 
ATOM     25  C   UNL     1       0.039 -10.293   0.911  0.00  0.00    -0.013 A 
ATOM     26  C   UNL     1      -0.151  -9.345   1.862  0.00  0.00    +0.011 A 
ATOM     27  C   UNL     1       0.033  -8.016   1.530  0.00  0.00    +0.013 A 
ATOM     28  C   UNL     1       0.396  -7.699   0.263  0.00  0.00    +0.010 A 
ATOM     29  S   UNL     1       0.497  -9.308  -0.505  0.00  0.00    -0.097 S 
ENDBRANCH  22  28
ENDBRANCH   1  22
TORSDOF 3
