REMARK  Name = ZINC63063737
REMARK  3 active torsions:
REMARK  status: ('A' for Active; 'I' for Inactive)
REMARK    1  A    between atoms: C_4  and  O_20
REMARK    2  A    between atoms: C_5  and  C_7
REMARK    3  A    between atoms: C_15  and  O_19
REMARK                            x       y       z     vdW  Elec       q    Type
REMARK                         _______ _______ _______ _____ _____    ______ ____
ROOT
ATOM      1  C   UNL     1       1.144  -2.274   0.517  0.00  0.00    +0.254 C 
ATOM      2  O   UNL     1       1.312  -1.213  -0.052  0.00  0.00    -0.270 OA
ATOM      3  N   UNL     1      -0.040  -2.911   0.419  0.00  0.00    -0.264 N 
ATOM      4  C   UNL     1      -0.138  -4.352   0.691  0.00  0.00    +0.114 C 
ATOM      5  C   UNL     1      -1.001  -4.979  -0.412  0.00  0.00    +0.024 C 
ATOM      6  C   UNL     1      -2.409  -4.389  -0.332  0.00  0.00    +0.038 C 
ATOM      7  C   UNL     1      -2.351  -2.885  -0.312  0.00  0.00    -0.022 A 
ATOM      8  C   UNL     1      -1.201  -2.209   0.061  0.00  0.00    +0.081 A 
ATOM      9  C   UNL     1      -1.183  -0.815   0.078  0.00  0.00    +0.138 A 
ATOM     10  C   UNL     1      -2.319  -0.105  -0.275  0.00  0.00    +0.047 A 
ATOM     11  C   UNL     1      -3.466  -0.782  -0.644  0.00  0.00    +0.004 A 
ATOM     12  C   UNL     1      -3.481  -2.166  -0.670  0.00  0.00    +0.006 A 
ENDROOT
BRANCH   1  17
ATOM     13  C   UNL     1       2.969  -4.126   3.223  0.00  0.00    +0.001 A 
ATOM     14  C   UNL     1       4.285  -3.973   2.818  0.00  0.00    +0.004 A 
ATOM     15  C   UNL     1       4.585  -3.271   1.668  0.00  0.00    +0.046 A 
ATOM     16  C   UNL     1       3.567  -2.712   0.909  0.00  0.00    +0.129 A 
ATOM     17  C   UNL     1       2.235  -2.864   1.316  0.00  0.00    +0.079 A 
ATOM     18  C   UNL     1       1.946  -3.577   2.482  0.00  0.00    +0.017 A 
BRANCH  16  19
ATOM     19  O   UNL     1       3.860  -2.021  -0.221  0.00  0.00    -0.506 OA
ATOM     20  H   UNL     1       3.887  -2.566  -1.019  0.00  0.00    +0.292 HD
ENDBRANCH  16  19
ENDBRANCH   1  17
BRANCH   9  21
ATOM     21  O   UNL     1      -0.053  -0.152   0.442  0.00  0.00    -0.505 OA
ATOM     22  H   UNL     1       0.399   0.287  -0.291  0.00  0.00    +0.292 HD
ENDBRANCH   9  21
TORSDOF 3
