REMARK  Name = ZINC66243664
REMARK  8 active torsions:
REMARK  status: ('A' for Active; 'I' for Inactive)
REMARK    1  A    between atoms: C_1  and  C_2
REMARK    2  A    between atoms: C_2  and  O_3
REMARK    3  A    between atoms: O_3  and  C_4
REMARK    4  A    between atoms: C_5  and  O_21
REMARK    5  A    between atoms: C_7  and  C_11
REMARK    6  A    between atoms: C_11  and  N_12
REMARK    7  A    between atoms: N_15  and  C_16
REMARK    8  A    between atoms: O_21  and  C_22
REMARK                            x       y       z     vdW  Elec       q    Type
REMARK                         _______ _______ _______ _____ _____    ______ ____
ROOT
ATOM      1  C   UNL     1       1.148  -6.064   1.764  0.00  0.00    +0.151 C 
ENDROOT
BRANCH   1   2
ATOM      2  N   UNL     1       0.501  -6.732   0.633  0.00  0.00    -0.354 N 
ATOM      3  C   UNL     1       0.486  -8.105   0.562  0.00  0.00    +0.169 C 
ATOM      4  N   UNL     1       1.049  -8.812   1.501  0.00  0.00    -0.371 N 
ATOM      5  N   UNL     1      -0.121  -8.732  -0.500  0.00  0.00    -0.355 N 
ATOM      6  H   UNL     1       0.082  -6.206  -0.067  0.00  0.00    +0.163 HD
ATOM      7  H   UNL     1       1.039  -9.781   1.451  0.00  0.00    +0.159 HD
ATOM      8  H   UNL     1      -0.540  -8.206  -1.200  0.00  0.00    +0.163 HD
ATOM      9  H   UNL     1       1.477  -8.370   2.250  0.00  0.00    +0.159 HD
BRANCH   5  10
ATOM     10  C   UNL     1      -0.137 -10.195  -0.576  0.00  0.00    +0.082 C 
ATOM     11  C   UNL     1      -1.365 -10.750   0.174  0.00  0.00    +0.024 C 
ATOM     12  C   UNL     1      -2.428 -10.952  -0.935  0.00  0.00    +0.002 C 
ATOM     13  C   UNL     1      -1.583 -11.459  -2.130  0.00  0.00    +0.002 C 
ATOM     14  C   UNL     1      -0.275 -10.646  -2.041  0.00  0.00    +0.024 C 
ENDBRANCH   5  10
ENDBRANCH   1   2
BRANCH   1  18
ATOM     15  C   UNL     1       0.802  -1.825   1.306  0.00  0.00    +0.180 A 
ATOM     16  C   UNL     1      -0.182  -2.535   1.988  0.00  0.00    +0.163 A 
ATOM     17  C   UNL     1      -0.067  -3.908   2.134  0.00  0.00    +0.055 A 
ATOM     18  C   UNL     1       1.025  -4.571   1.603  0.00  0.00    -0.023 A 
ATOM     19  C   UNL     1       2.003  -3.867   0.926  0.00  0.00    +0.029 A 
ATOM     20  C   UNL     1       1.891  -2.497   0.771  0.00  0.00    +0.086 A 
ATOM     21 CL   UNL     1       3.117  -1.617  -0.087  0.00  0.00    -0.080 Cl
BRANCH  16  22
ATOM     22  O   UNL     1      -1.254  -1.881   2.510  0.00  0.00    -0.491 OA
ATOM     23  C   UNL     1      -2.225  -2.674   3.197  0.00  0.00    +0.277 C 
ENDBRANCH  16  22
BRANCH  15  24
ATOM     24  O   UNL     1       0.693  -0.477   1.160  0.00  0.00    -0.487 OA
BRANCH  24  26
ATOM     25  C   UNL     1      -0.019   1.526   0.010  0.00  0.00    +0.048 C 
ATOM     26  C   UNL     1       0.002  -0.004   0.002  0.00  0.00    +0.226 C 
ENDBRANCH  24  26
ENDBRANCH  15  24
ENDBRANCH   1  18
TORSDOF 6
