REMARK  Name = ZINC16856591
REMARK  10 active torsions:
REMARK  status: ('A' for Active; 'I' for Inactive)
REMARK    1  A    between atoms: C_1  and  C_2
REMARK    2  A    between atoms: C_2  and  O_3
REMARK    3  A    between atoms: O_3  and  C_4
REMARK    4  A    between atoms: C_4  and  C_6
REMARK    5  A    between atoms: C_9  and  N_12
REMARK    6  A    between atoms: C_15  and  C_17
REMARK    7  A    between atoms: C_18  and  C_26
REMARK    8  A    between atoms: C_20  and  C_24
REMARK    9  A    between atoms: C_21  and  N_23
REMARK   10  A    between atoms: C_29  and  O_32
REMARK                            x       y       z     vdW  Elec       q    Type
REMARK                         _______ _______ _______ _____ _____    ______ ____
ROOT
ATOM      1  N   UNL     1       7.440   1.690   2.229  0.00  0.00    -0.200 N 
ATOM      2  C   UNL     1       6.600   2.697   1.901  0.00  0.00    +0.230 A 
ATOM      3  C   UNL     1       6.086   2.417   0.666  0.00  0.00    +0.050 A 
ATOM      4  C   UNL     1       6.628   1.213   0.236  0.00  0.00    +0.068 A 
ATOM      5  N   UNL     1       7.440   0.772   1.167  0.00  0.00    -0.168 NA
ATOM      6  C   UNL     1       6.335   0.531  -1.075  0.00  0.00    +0.068 C 
ATOM      7  C   UNL     1       5.103   3.323  -0.029  0.00  0.00    +0.101 C 
ATOM      8  C   UNL     1       5.063   4.635   0.716  0.00  0.00    +0.098 C 
ATOM      9  C   UNL     1       5.624   4.793   1.935  0.00  0.00    +0.200 C 
ATOM     10  O   UNL     1       6.270   3.812   2.598  0.00  0.00    -0.423 OA
ENDROOT
BRANCH   1  14
ATOM     11  C   UNL     1       9.635   1.368   5.759  0.00  0.00    +0.059 A 
ATOM     12  C   UNL     1       9.121   0.221   5.146  0.00  0.00    +0.017 A 
ATOM     13  C   UNL     1       8.396   0.332   3.981  0.00  0.00    +0.029 A 
ATOM     14  C   UNL     1       8.176   1.582   3.413  0.00  0.00    +0.069 A 
ATOM     15  C   UNL     1       8.690   2.724   4.016  0.00  0.00    +0.029 A 
ATOM     16  C   UNL     1       9.411   2.623   5.185  0.00  0.00    +0.017 A 
BRANCH  11  17
ATOM     17  C   UNL     1      10.411   1.254   7.008  0.00  0.00    +0.339 C 
ATOM     18  O   UNL     1      10.604   0.163   7.506  0.00  0.00    -0.245 OA
BRANCH  17  19
ATOM     19  O   UNL     1      10.905   2.360   7.597  0.00  0.00    -0.461 OA
BRANCH  19  21
ATOM     20  C   UNL     1      12.136   3.531   9.342  0.00  0.00    +0.048 C 
ATOM     21  C   UNL     1      11.659   2.173   8.824  0.00  0.00    +0.229 C 
ENDBRANCH  19  21
ENDBRANCH  17  19
ENDBRANCH  11  17
ENDBRANCH   1  14
BRANCH   7  22
ATOM     22  C   UNL     1       3.735   2.692  -0.019  0.00  0.00    -0.034 A 
ATOM     23  C   UNL     1       3.096   2.409  -1.213  0.00  0.00    +0.008 A 
ATOM     24  C   UNL     1       1.842   1.830  -1.207  0.00  0.00    +0.046 A 
ATOM     25  C   UNL     1       1.223   1.532  -0.001  0.00  0.00    +0.117 A 
ATOM     26  C   UNL     1       1.863   1.822   1.195  0.00  0.00    +0.046 A 
ATOM     27  C   UNL     1       3.119   2.397   1.183  0.00  0.00    +0.008 A 
BRANCH  25  28
ATOM     28  O   UNL     1      -0.011   0.963   0.007  0.00  0.00    -0.507 OA
ATOM     29  H   UNL     1       0.002  -0.004   0.002  0.00  0.00    +0.292 HD
ENDBRANCH  25  28
ENDBRANCH   7  22
BRANCH   9  30
ATOM     30  N   UNL     1       5.531   6.025   2.534  0.00  0.00    -0.328 N 
ATOM     31  H   UNL     1       5.924   6.170   3.409  0.00  0.00    +0.145 HD
ATOM     32  H   UNL     1       5.072   6.751   2.082  0.00  0.00    +0.145 HD
ENDBRANCH   9  30
BRANCH   8  33
ATOM     33  C   UNL     1       4.407   5.753   0.108  0.00  0.00    +0.101 C 
ATOM     34  N   UNL     1       3.886   6.640  -0.374  0.00  0.00    -0.191 NA
ENDBRANCH   8  33
TORSDOF 8
