REMARK  Name = ZINC36142396
REMARK  6 active torsions:
REMARK  status: ('A' for Active; 'I' for Inactive)
REMARK    1  A    between atoms: C_1  and  C_2
REMARK    2  A    between atoms: C_2  and  C_18
REMARK    3  A    between atoms: C_4  and  C_13
REMARK    4  A    between atoms: C_4  and  N_17
REMARK    5  A    between atoms: C_13  and  O_15
REMARK    6  A    between atoms: O_15  and  C_16
REMARK                            x       y       z     vdW  Elec       q    Type
REMARK                         _______ _______ _______ _____ _____    ______ ____
ROOT
ATOM      1  C   UNL     1      -0.001   1.538   0.261  0.00  0.00    +0.055 C 
ATOM      2  C   UNL     1       0.001   0.038  -0.038  0.00  0.00    +0.108 C 
ATOM      3  C   UNL     1       0.643  -0.215  -1.408  0.00  0.00    +0.085 C 
ATOM      4  C   UNL     1       0.530  -1.709  -1.724  0.00  0.00    +0.147 C 
ATOM      5  C   UNL     1       0.986  -2.515  -0.534  0.00  0.00    +0.026 A 
ATOM      6  C   UNL     1       1.320  -3.847  -0.721  0.00  0.00    +0.010 A 
ATOM      7  C   UNL     1       1.738  -4.617   0.347  0.00  0.00    +0.002 A 
ATOM      8  C   UNL     1       1.824  -4.059   1.610  0.00  0.00    +0.024 A 
ATOM      9  C   UNL     1       1.494  -2.733   1.801  0.00  0.00    +0.083 A 
ATOM     10  C   UNL     1       1.074  -1.953   0.727  0.00  0.00    +0.145 A 
ATOM     11  O   UNL     1       0.768  -0.649   0.952  0.00  0.00    -0.484 OA
ATOM     12 CL   UNL     1       1.603  -2.034   3.387  0.00  0.00    -0.080 Cl
ATOM     13  C   UNL     1      -1.435  -0.490  -0.036  0.00  0.00    +0.055 C 
ENDROOT
BRANCH   4  14
ATOM     14  N   UNL     1      -0.869  -2.039  -2.031  0.00  0.00    -0.312 NA
ATOM     15  H   UNL     1      -1.179  -1.559  -2.862  0.00  0.00    +0.120 HD
ATOM     16  H   UNL     1      -0.993  -3.036  -2.121  0.00  0.00    +0.120 HD
ENDBRANCH   4  14
BRANCH   4  17
ATOM     17  C   UNL     1       1.394  -2.037  -2.913  0.00  0.00    +0.332 C 
ATOM     18  O   UNL     1       2.348  -1.343  -3.177  0.00  0.00    -0.248 OA
BRANCH  17  19
ATOM     19  O   UNL     1       1.105  -3.100  -3.680  0.00  0.00    -0.466 OA
ATOM     20  C   UNL     1       1.968  -3.352  -4.792  0.00  0.00    +0.280 C 
ENDBRANCH  17  19
ENDBRANCH   4  17
TORSDOF 3
