REMARK  Name = ZINC16591131
REMARK  11 active torsions:
REMARK  status: ('A' for Active; 'I' for Inactive)
REMARK    1  A    between atoms: C_1  and  C_2
REMARK    2  A    between atoms: C_2  and  C_3
REMARK    3  A    between atoms: C_3  and  C_4
REMARK    4  A    between atoms: C_4  and  N_5
REMARK    5  A    between atoms: N_5  and  C_6
REMARK    6  A    between atoms: C_7  and  N_22
REMARK    7  A    between atoms: N_8  and  C_15
REMARK    8  A    between atoms: C_15  and  C_16
REMARK    9  A    between atoms: C_23  and  C_25
REMARK   10  A    between atoms: C_25  and  N_64
REMARK   11  A    between atoms: C_29  and  C_32
REMARK                            x       y       z     vdW  Elec       q    Type
REMARK                         _______ _______ _______ _____ _____    ______ ____
ROOT
ATOM      1  N   UNL     1       4.548   2.534  -4.194  0.00  0.00    -0.266 N 
ATOM      2  C   UNL     1       5.064   1.428  -3.619  0.00  0.00    +0.203 C 
ATOM      3  O   UNL     1       4.622   1.031  -2.561  0.00  0.00    -0.277 OA
ENDROOT
BRANCH   1   4
ATOM      4  C   UNL     1       3.570   3.291  -3.514  0.00  0.00    +0.140 A 
ATOM      5  C   UNL     1       2.280   3.366  -3.998  0.00  0.00    +0.128 A 
ATOM      6  N   UNL     1       1.350   4.116  -3.316  0.00  0.00    -0.276 N 
ATOM      7  C   UNL     1       1.691   4.760  -2.185  0.00  0.00    +0.331 A 
ATOM      8  O   UNL     1       0.853   5.414  -1.594  0.00  0.00    -0.246 OA
ATOM      9  N   UNL     1       2.942   4.693  -1.695  0.00  0.00    -0.273 N 
ATOM     10  H   UNL     1       3.169   5.181  -0.852  0.00  0.00    +0.173 HD
ATOM     11  C   UNL     1       3.892   3.977  -2.328  0.00  0.00    +0.277 A 
ATOM     12  O   UNL     1       5.023   3.924  -1.876  0.00  0.00    -0.266 OA
BRANCH   5  13
ATOM     13  N   UNL     1       1.929   2.704  -5.150  0.00  0.00    -0.343 N 
ATOM     14  H   UNL     1       1.047   2.832  -5.533  0.00  0.00    +0.144 HD
ATOM     15  H   UNL     1       2.563   2.108  -5.579  0.00  0.00    +0.144 HD
ENDBRANCH   5  13
BRANCH   6  16
ATOM     16  C   UNL     1      -0.022   4.210  -3.821  0.00  0.00    +0.163 C 
BRANCH  16  17
ATOM     17  C   UNL     1      -0.134   5.388  -4.755  0.00  0.00    -0.028 A 
ATOM     18  C   UNL     1       0.106   5.224  -6.106  0.00  0.00    +0.005 A 
ATOM     19  C   UNL     1       0.002   6.304  -6.962  0.00  0.00    +0.000 A 
ATOM     20  C   UNL     1      -0.336   7.549  -6.466  0.00  0.00    +0.000 A 
ATOM     21  C   UNL     1      -0.581   7.712  -5.116  0.00  0.00    +0.000 A 
ATOM     22  C   UNL     1      -0.478   6.632  -4.260  0.00  0.00    +0.005 A 
ENDBRANCH  16  17
ENDBRANCH   6  16
ENDBRANCH   1   4
BRANCH   1  23
ATOM     23  C   UNL     1       5.003   2.950  -5.523  0.00  0.00    +0.114 C 
BRANCH  23  24
ATOM     24  C   UNL     1       6.241   3.837  -5.383  0.00  0.00    +0.019 C 
BRANCH  24  26
ATOM     25  C   UNL     1       7.955   5.159  -6.632  0.00  0.00    +0.004 C 
ATOM     26  C   UNL     1       6.717   4.271  -6.771  0.00  0.00    -0.002 C 
ENDBRANCH  24  26
ENDBRANCH  23  24
ENDBRANCH   1  23
BRANCH   2  27
ATOM     27  C   UNL     1       6.189   0.685  -4.292  0.00  0.00    +0.019 C 
BRANCH  27  33
ATOM     28  C   UNL     1       7.590  -1.281  -4.108  0.00  0.00    -0.078 C 
ATOM     29  C   UNL     1       7.968  -2.446  -3.190  0.00  0.00    -0.018 C 
ATOM     30  C   UNL     1       8.646  -1.898  -1.931  0.00  0.00    +0.008 C 
ATOM     31  C   UNL     1       7.699  -0.916  -1.236  0.00  0.00    +0.077 C 
ATOM     32  C   UNL     1       7.329   0.204  -2.211  0.00  0.00    -0.066 C 
ATOM     33  N   UNL     1       6.658  -0.386  -3.389  0.00  0.00    +0.386 N 
ATOM     34  H   UNL     1       5.849  -0.933  -3.072  0.00  0.00    -0.081 HD
BRANCH  31  35
ATOM     35  C   UNL     1       8.392  -0.319  -0.010  0.00  0.00    +0.391 C 
ATOM     36  F   UNL     1       7.527   0.581   0.622  0.00  0.00    -0.171 F 
ATOM     37  F   UNL     1       8.730  -1.344   0.880  0.00  0.00    -0.171 F 
ATOM     38  F   UNL     1       9.552   0.352  -0.411  0.00  0.00    -0.171 F 
ENDBRANCH  31  35
ENDBRANCH  27  33
ENDBRANCH   2  27
TORSDOF 10
