REMARK  Name = ZINC35747231
REMARK  13 active torsions:
REMARK  status: ('A' for Active; 'I' for Inactive)
REMARK    1  A    between atoms: C_1  and  C_2
REMARK    2  A    between atoms: C_7  and  C_8
REMARK    3  A    between atoms: C_17  and  C_19
REMARK    4  A    between atoms: C_19  and  N_20
REMARK    5  A    between atoms: N_20  and  C_21
REMARK    6  A    between atoms: N_20  and  C_27
REMARK    7  A    between atoms: C_21  and  C_22
REMARK    8  A    between atoms: C_27  and  C_28
REMARK    9  A    between atoms: C_28  and  C_30
REMARK   10  A    between atoms: C_28  and  O_39
REMARK   11  A    between atoms: C_30  and  O_31
REMARK   12  A    between atoms: O_31  and  C_32
REMARK   13  A    between atoms: C_37  and  C_38
REMARK                            x       y       z     vdW  Elec       q    Type
REMARK                         _______ _______ _______ _____ _____    ______ ____
ROOT
ATOM      1  N   UNL     1      -3.425   4.171   5.758  0.00  0.00    +0.391 N 
ATOM      2  H   UNL     1      -2.739   4.911   5.764  0.00  0.00    -0.080 HD
ENDROOT
BRANCH   1   3
ATOM      3  C   UNL     1      -3.699   3.769   4.372  0.00  0.00    -0.003 C 
BRANCH   3  13
ATOM      4  C   UNL     1      -5.010   8.492   1.463  0.00  0.00    +0.004 A 
ATOM      5  C   UNL     1      -5.040   9.595   2.250  0.00  0.00    +0.056 A 
ATOM      6  S   UNL     1      -4.627   8.961   3.864  0.00  0.00    -0.076 S 
ATOM      7  C   UNL     1      -4.426   7.247   3.449  0.00  0.00    +0.116 A 
ATOM      8  C   UNL     1      -4.689   7.206   2.070  0.00  0.00    +0.080 A 
ATOM      9  C   UNL     1      -4.600   5.914   1.460  0.00  0.00    +0.260 A 
ATOM     10  O   UNL     1      -4.806   5.777   0.267  0.00  0.00    -0.267 OA
ATOM     11  N   UNL     1      -4.284   4.852   2.225  0.00  0.00    -0.312 N 
ATOM     12  H   UNL     1      -4.222   3.974   1.817  0.00  0.00    +0.170 HD
ATOM     13  C   UNL     1      -4.050   4.986   3.556  0.00  0.00    +0.094 A 
ATOM     14  N   UNL     1      -4.115   6.153   4.139  0.00  0.00    -0.229 NA
BRANCH   4  21
ATOM     15  C   UNL     1      -7.357   7.189   0.385  0.00  0.00    +0.044 C 
ATOM     16  C   UNL     1      -6.433   7.967  -0.515  0.00  0.00    -0.043 A 
ATOM     17  C   UNL     1      -6.704   8.067  -1.865  0.00  0.00    +0.004 A 
ATOM     18  C   UNL     1      -5.856   8.780  -2.693  0.00  0.00    +0.000 A 
ATOM     19  C   UNL     1      -4.732   9.397  -2.174  0.00  0.00    +0.001 A 
ATOM     20  C   UNL     1      -4.449   9.303  -0.827  0.00  0.00    +0.009 A 
ATOM     21  C   UNL     1      -5.304   8.591   0.014  0.00  0.00    -0.014 A 
ENDBRANCH   4  21
ENDBRANCH   3  13
ENDBRANCH   1   3
BRANCH   1  22
ATOM     22  C   UNL     1      -2.909   3.019   6.510  0.00  0.00    -0.002 C 
BRANCH  22  23
ATOM     23  C   UNL     1      -1.613   2.558   5.896  0.00  0.00    +0.089 A 
ATOM     24  C   UNL     1      -0.381   2.927   6.290  0.00  0.00    +0.042 A 
ATOM     25  C   UNL     1       0.537   2.262   5.445  0.00  0.00    +0.041 A 
ATOM     26  C   UNL     1      -0.190   1.526   4.584  0.00  0.00    +0.195 A 
ATOM     27  O   UNL     1      -1.490   1.705   4.866  0.00  0.00    -0.470 OA
ENDBRANCH  22  23
ENDBRANCH   1  22
BRANCH   1  28
ATOM     28  C   UNL     1      -4.665   4.649   6.384  0.00  0.00    -0.043 C 
BRANCH  28  29
ATOM     29  C   UNL     1      -4.348   5.238   7.760  0.00  0.00    +0.135 C 
BRANCH  29  30
ATOM     30  O   UNL     1      -3.949   4.191   8.646  0.00  0.00    -0.390 OA
ATOM     31  H   UNL     1      -4.622   3.508   8.776  0.00  0.00    +0.210 HD
ENDBRANCH  29  30
BRANCH  29  32
ATOM     32  C   UNL     1      -5.593   5.932   8.317  0.00  0.00    +0.258 C 
BRANCH  32  33
ATOM     33  O   UNL     1      -5.266   6.582   9.547  0.00  0.00    -0.489 OA
BRANCH  33  34
ATOM     34  C   UNL     1      -6.267   7.250  10.177  0.00  0.00    +0.124 A 
ATOM     35  C   UNL     1      -7.540   7.275   9.626  0.00  0.00    +0.046 A 
ATOM     36  C   UNL     1      -8.557   7.954  10.269  0.00  0.00    +0.004 A 
ATOM     37  C   UNL     1      -8.306   8.609  11.461  0.00  0.00    +0.000 A 
ATOM     38  C   UNL     1      -7.039   8.586  12.012  0.00  0.00    +0.007 A 
ATOM     39  C   UNL     1      -6.020   7.903  11.376  0.00  0.00    -0.009 A 
ATOM     40  C   UNL     1      -4.640   7.873  11.980  0.00  0.00    +0.047 C 
ENDBRANCH  33  34
ENDBRANCH  32  33
ENDBRANCH  29  32
ENDBRANCH  28  29
ENDBRANCH   1  28
TORSDOF 11
