REMARK  Name = ZINC50389853
REMARK  7 active torsions:
REMARK  status: ('A' for Active; 'I' for Inactive)
REMARK    1  A    between atoms: C_1  and  C_2
REMARK    2  A    between atoms: C_2  and  C_4
REMARK    3  A    between atoms: C_2  and  N_9
REMARK    4  A    between atoms: C_4  and  C_5
REMARK    5  A    between atoms: N_6  and  O_7
REMARK    6  A    between atoms: N_9  and  S_10
REMARK    7  A    between atoms: S_10  and  C_13
REMARK                            x       y       z     vdW  Elec       q    Type
REMARK                         _______ _______ _______ _____ _____    ______ ____
ROOT
ATOM      1  N   UNL     1       0.711  -0.489   1.189  0.00  0.00    -0.186 NA
ATOM      2  H   UNL     1       0.236  -0.593   2.029  0.00  0.00    +0.148 HD
ENDROOT
BRANCH   1   3
ATOM      3  S   UNL     1       2.322  -0.861   1.097  0.00  0.00    +0.065 S 
ATOM      4  O   UNL     1       2.719  -1.271   2.398  0.00  0.00    -0.153 OA
ATOM      5  O   UNL     1       2.483  -1.690  -0.045  0.00  0.00    -0.153 OA
BRANCH   3   6
ATOM      6  C   UNL     1       3.183   0.638   0.757  0.00  0.00    +0.143 A 
ATOM      7  C   UNL     1       3.705   1.538   1.625  0.00  0.00    +0.037 A 
ATOM      8  C   UNL     1       4.347   2.656   1.126  0.00  0.00    +0.025 A 
ATOM      9  C   UNL     1       4.436   2.819  -0.218  0.00  0.00    +0.057 A 
ATOM     10  S   UNL     1       3.602   1.360  -0.821  0.00  0.00    -0.062 S 
ATOM     11 BR   UNL     1       5.239   4.223  -1.197  0.00  0.00    -0.043 Br
ENDBRANCH   3   6
ENDBRANCH   1   3
BRANCH   1  13
ATOM     12  C   UNL     1      -0.019   1.526   0.010  0.00  0.00    +0.026 C 
ATOM     13  C   UNL     1       0.002  -0.004   0.002  0.00  0.00    +0.081 C 
BRANCH  13  14
ATOM     14  C   UNL     1      -1.433  -0.534   0.013  0.00  0.00    +0.094 C 
BRANCH  14  15
ATOM     15  C   UNL     1      -1.416  -2.035  -0.119  0.00  0.00    +0.133 C 
ATOM     16  N   UNL     1      -0.291  -2.661  -0.219  0.00  0.00    -0.077 NA
ATOM     17  N   UNL     1      -2.600  -2.739  -0.134  0.00  0.00    -0.344 N 
ATOM     18  H   UNL     1      -3.445  -2.268  -0.059  0.00  0.00    +0.144 HD
ATOM     19  H   UNL     1      -2.588  -3.705  -0.219  0.00  0.00    +0.144 HD
BRANCH  16  20
ATOM     20  O   UNL     1      -0.274  -4.072  -0.343  0.00  0.00    -0.408 OA
ATOM     21  H   UNL     1       0.613  -4.450  -0.411  0.00  0.00    +0.328 HD
ENDBRANCH  16  20
ENDBRANCH  14  15
ENDBRANCH  13  14
ENDBRANCH   1  13
TORSDOF 6
