REMARK  Name = ZINC47028947
REMARK  7 active torsions:
REMARK  status: ('A' for Active; 'I' for Inactive)
REMARK    1  A    between atoms: C_1  and  C_2
REMARK    2  A    between atoms: C_9  and  C_11
REMARK    3  A    between atoms: N_13  and  N_14
REMARK    4  A    between atoms: N_17  and  C_18
REMARK    5  A    between atoms: C_18  and  C_20
REMARK    6  A    between atoms: C_18  and  C_21
REMARK    7  A    between atoms: C_21  and  N_22
REMARK                            x       y       z     vdW  Elec       q    Type
REMARK                         _______ _______ _______ _____ _____    ______ ____
ROOT
ATOM      1  N   UNL     1       1.978  -7.562   3.418  0.00  0.00    -0.218 N 
ATOM      2  C   UNL     1       2.065  -8.835   2.985  0.00  0.00    +0.316 C 
ATOM      3  O   UNL     1       2.307  -9.730   3.772  0.00  0.00    -0.251 OA
ATOM      4  N   UNL     1       1.885  -9.117   1.679  0.00  0.00    -0.294 N 
ATOM      5  H   UNL     1       2.108  -7.359   4.357  0.00  0.00    +0.174 HD
ATOM      6  H   UNL     1       1.692  -8.403   1.051  0.00  0.00    +0.151 HD
ENDROOT
BRANCH   1   9
ATOM      7  C   UNL     1       1.612  -5.258   2.944  0.00  0.00    +0.267 C 
ATOM      8  O   UNL     1       1.775  -5.003   4.123  0.00  0.00    -0.268 OA
ATOM      9  N   UNL     1       1.699  -6.531   2.511  0.00  0.00    -0.229 N 
ATOM     10  H   UNL     1       1.569  -6.734   1.571  0.00  0.00    +0.173 HD
BRANCH   7  18
ATOM     11  C   UNL     1      -0.019   1.526   0.010  0.00  0.00    +0.008 C 
ATOM     12  C   UNL     1       0.002  -0.004   0.002  0.00  0.00    -0.009 C 
ATOM     13  C   UNL     1       0.716  -0.496  -1.260  0.00  0.00    +0.009 C 
ATOM     14  C   UNL     1       0.494  -2.009  -1.394  0.00  0.00    +0.043 C 
ATOM     15  C   UNL     1       0.790  -2.651  -0.071  0.00  0.00    -0.006 A 
ATOM     16  C   UNL     1       0.909  -2.022   1.133  0.00  0.00    -0.036 A 
ATOM     17  C   UNL     1       1.190  -2.823   2.230  0.00  0.00    +0.024 A 
ATOM     18  C   UNL     1       1.320  -4.179   1.995  0.00  0.00    +0.076 A 
ATOM     19  S   UNL     1       1.042  -4.273   0.236  0.00  0.00    -0.088 S 
ATOM     20  C   UNL     1       0.739  -0.509   1.243  0.00  0.00    +0.039 C 
ENDBRANCH   7  18
ENDBRANCH   1   9
BRANCH   4  21
ATOM     21  C   UNL     1       1.980 -10.501   1.208  0.00  0.00    +0.091 C 
ATOM     22  C   UNL     1       3.444 -10.845   0.929  0.00  0.00    +0.029 C 
BRANCH  21  23
ATOM     23  C   UNL     1       1.164 -10.659  -0.077  0.00  0.00    +0.144 C 
BRANCH  23  24
ATOM     24  N   UNL     1      -0.255 -10.446   0.216  0.00  0.00    -0.337 N 
ATOM     25  C   UNL     1      -1.159 -11.403   0.593  0.00  0.00    +0.104 A 
ATOM     26  C   UNL     1      -2.341 -10.778   0.759  0.00  0.00    +0.101 A 
ATOM     27  N   UNL     1      -2.162  -9.475   0.492  0.00  0.00    -0.352 N 
ATOM     28  C   UNL     1      -0.915  -9.269   0.171  0.00  0.00    +0.173 A 
ATOM     29  H   UNL     1      -2.852  -8.794   0.535  0.00  0.00    +0.166 HD
ENDBRANCH  23  24
ENDBRANCH  21  23
ENDBRANCH   4  21
TORSDOF 5
