REMARK  Name = ZINC33300485
REMARK  8 active torsions:
REMARK  status: ('A' for Active; 'I' for Inactive)
REMARK    1  A    between atoms: C_1  and  C_2
REMARK    2  A    between atoms: C_2  and  C_3
REMARK    3  A    between atoms: C_3  and  C_5
REMARK    4  A    between atoms: C_3  and  N_6
REMARK    5  A    between atoms: N_16  and  C_22
REMARK    6  A    between atoms: C_19  and  C_21
REMARK    7  A    between atoms: C_22  and  C_23
REMARK    8  A    between atoms: C_22  and  C_24
REMARK                            x       y       z     vdW  Elec       q    Type
REMARK                         _______ _______ _______ _____ _____    ______ ____
ROOT
ATOM      1  N   UNL     1       5.089  -2.219  -0.677  0.00  0.00    -0.296 N 
ATOM      2  C   UNL     1       3.844  -1.709  -0.592  0.00  0.00    +0.307 C 
ATOM      3  O   UNL     1       2.899  -2.340  -1.025  0.00  0.00    -0.252 OA
ATOM      4  N   UNL     1       3.647  -0.501  -0.028  0.00  0.00    -0.241 N 
ATOM      5  C   UNL     1       2.377   0.093  -0.012  0.00  0.00    +0.079 A 
ATOM      6  C   UNL     1       1.224  -0.674   0.006  0.00  0.00    +0.028 A 
ATOM      7  C   UNL     1       0.001  -0.016   0.027  0.00  0.00    +0.022 A 
ATOM      8  C   UNL     1      -0.022   1.365   0.031  0.00  0.00    +0.113 A 
ATOM      9  N   UNL     1       1.094   2.070   0.014  0.00  0.00    -0.238 NA
ATOM     10  C   UNL     1       2.281   1.487  -0.009  0.00  0.00    +0.149 A 
ATOM     11  N   UNL     1       3.447   2.252  -0.035  0.00  0.00    -0.251 N 
ATOM     12  C   UNL     1       4.645   1.694   0.219  0.00  0.00    +0.242 C 
ATOM     13  O   UNL     1       5.648   2.372   0.146  0.00  0.00    -0.273 OA
ATOM     14  C   UNL     1       4.758   0.238   0.592  0.00  0.00    +0.166 C 
ATOM     15  C   UNL     1       4.687   0.090   2.113  0.00  0.00    +0.038 C 
ATOM     16  H   UNL     1       5.933  -1.689  -0.211  0.00  0.00    +0.151 HD
ENDROOT
BRANCH  11  17
ATOM     17  C   UNL     1       3.366   3.682  -0.343  0.00  0.00    +0.077 C 
ATOM     18  C   UNL     1       3.915   4.489   0.835  0.00  0.00    +0.028 C 
ATOM     19  C   UNL     1       4.193   3.981  -1.595  0.00  0.00    +0.028 C 
ENDBRANCH  11  17
BRANCH   1  20
ATOM     20  C   UNL     1       5.318  -3.479  -1.388  0.00  0.00    +0.071 C 
ATOM     21  C   UNL     1       5.060  -4.653  -0.442  0.00  0.00    +0.028 C 
BRANCH  20  23
ATOM     22  C   UNL     1       6.989  -2.431  -2.922  0.00  0.00    +0.005 C 
ATOM     23  C   UNL     1       6.765  -3.530  -1.882  0.00  0.00    +0.019 C 
ENDBRANCH  20  23
ENDBRANCH   1  20
TORSDOF 3
