REMARK  Name = ZINC09077037
REMARK  10 active torsions:
REMARK  status: ('A' for Active; 'I' for Inactive)
REMARK    1  A    between atoms: C_1  and  C_2
REMARK    2  A    between atoms: C_2  and  C_3
REMARK    3  A    between atoms: C_3  and  C_5
REMARK    4  A    between atoms: C_3  and  N_6
REMARK    5  A    between atoms: C_10  and  C_12
REMARK    6  A    between atoms: C_12  and  N_13
REMARK    7  A    between atoms: C_16  and  C_20
REMARK    8  A    between atoms: C_16  and  C_22
REMARK    9  A    between atoms: C_20  and  C_21
REMARK   10  A    between atoms: C_25  and  C_28
REMARK                            x       y       z     vdW  Elec       q    Type
REMARK                         _______ _______ _______ _____ _____    ______ ____
ROOT
ATOM      1  N   UNL     1      -3.608   1.789   0.029  0.00  0.00    -0.215 N 
ATOM      2  C   UNL     1      -4.196   2.280  -1.081  0.00  0.00    +0.251 C 
ATOM      3  O   UNL     1      -3.903   2.038  -2.232  0.00  0.00    -0.272 OA
ATOM      4  C   UNL     1      -5.299   3.195  -0.590  0.00  0.00    +0.138 C 
ATOM      5  N   UNL     1      -5.196   3.107   0.877  0.00  0.00    -0.281 N 
ATOM      6  C   UNL     1      -4.185   2.260   1.141  0.00  0.00    +0.310 C 
ATOM      7  O   UNL     1      -3.832   1.958   2.264  0.00  0.00    -0.252 OA
ATOM      8  H   UNL     1      -5.751   3.567   1.526  0.00  0.00    +0.152 HD
ENDROOT
BRANCH   4   9
ATOM      9  C   UNL     1      -5.062   4.609  -1.056  0.00  0.00    -0.015 A 
ATOM     10  C   UNL     1      -5.589   5.036  -2.261  0.00  0.00    +0.006 A 
ATOM     11  C   UNL     1      -5.376   6.334  -2.687  0.00  0.00    +0.004 A 
ATOM     12  C   UNL     1      -4.628   7.201  -1.913  0.00  0.00    -0.050 A 
ATOM     13  C   UNL     1      -4.096   6.772  -0.711  0.00  0.00    +0.004 A 
ATOM     14  C   UNL     1      -4.314   5.476  -0.283  0.00  0.00    +0.006 A 
ATOM     15  C   UNL     1      -4.391   8.614  -2.380  0.00  0.00    +0.044 C 
ENDBRANCH   4   9
BRANCH   4  16
ATOM     16  C   UNL     1      -6.665   2.695  -1.064  0.00  0.00    +0.037 C 
ATOM     17  C   UNL     1      -6.957   1.333  -0.432  0.00  0.00    +0.007 C 
ENDBRANCH   4  16
BRANCH   1  18
ATOM     18  C   UNL     1      -2.482   0.853   0.018  0.00  0.00    +0.214 C 
BRANCH  18  23
ATOM     19  N   UNL     1       2.323   0.998  -0.015  0.00  0.00    -0.297 N 
ATOM     20  C   UNL     1       1.147   1.655   0.000  0.00  0.00    +0.306 C 
ATOM     21  O   UNL     1       1.130   2.871   0.007  0.00  0.00    -0.252 OA
ATOM     22  N   UNL     1      -0.011   0.966   0.007  0.00  0.00    -0.239 N 
ATOM     23  C   UNL     1      -1.187   1.624   0.017  0.00  0.00    +0.238 C 
ATOM     24  O   UNL     1      -1.204   2.836   0.023  0.00  0.00    -0.274 OA
ATOM     25  H   UNL     1       2.336   0.028  -0.020  0.00  0.00    +0.151 HD
ATOM     26  H   UNL     1       0.002  -0.004   0.002  0.00  0.00    +0.159 HD
BRANCH  19  27
ATOM     27  C   UNL     1       3.582   1.747  -0.023  0.00  0.00    +0.071 C 
ATOM     28  C   UNL     1       3.969   2.109   1.413  0.00  0.00    +0.028 C 
BRANCH  27  30
ATOM     29  C   UNL     1       4.356   0.631  -2.120  0.00  0.00    +0.005 C 
ATOM     30  C   UNL     1       4.683   0.888  -0.647  0.00  0.00    +0.019 C 
ENDBRANCH  27  30
ENDBRANCH  19  27
ENDBRANCH  18  23
ENDBRANCH   1  18
TORSDOF 6
