REMARK  Name = ZINC16021179
REMARK  6 active torsions:
REMARK  status: ('A' for Active; 'I' for Inactive)
REMARK    1  A    between atoms: C_1  and  C_2
REMARK    2  A    between atoms: C_16  and  C_19
REMARK    3  A    between atoms: C_19  and  C_20
REMARK    4  A    between atoms: C_20  and  C_21
REMARK    5  A    between atoms: N_26  and  C_29
REMARK    6  A    between atoms: C_29  and  C_30
REMARK                            x       y       z     vdW  Elec       q    Type
REMARK                         _______ _______ _______ _____ _____    ______ ____
ROOT
ATOM      1  C   UNL     1       0.126   1.573   0.178  0.00  0.00    +0.045 C 
ATOM      2  C   UNL     1       0.112   0.067   0.123  0.00  0.00    -0.029 A 
ATOM      3  C   UNL     1       0.110  -0.576  -1.097  0.00  0.00    +0.005 A 
ATOM      4  C   UNL     1       0.098  -1.958  -1.158  0.00  0.00    +0.001 A 
ATOM      5  C   UNL     1       0.087  -2.698   0.011  0.00  0.00    +0.008 A 
ATOM      6  C   UNL     1       0.087  -2.060   1.231  0.00  0.00    +0.004 A 
ATOM      7  C   UNL     1       0.106  -0.670   1.304  0.00  0.00    +0.042 A 
ATOM      8  N   UNL     1       0.112  -0.257   2.638  0.00  0.00    -0.283 N 
ATOM      9  C   UNL     1       0.102  -1.298   3.493  0.00  0.00    +0.243 C 
ATOM     10  O   UNL     1       0.105  -1.241   4.704  0.00  0.00    -0.273 OA
ATOM     11  C   UNL     1       0.075  -2.546   2.652  0.00  0.00    +0.136 C 
ATOM     12  C   UNL     1       1.284  -3.438   2.955  0.00  0.00    +0.122 C 
ATOM     13  C   UNL     1       0.742  -4.890   2.832  0.00  0.00    +0.107 C 
ATOM     14  C   UNL     1      -0.748  -4.724   2.459  0.00  0.00    +0.068 C 
ATOM     15  N   UNL     1      -1.116  -3.370   2.931  0.00  0.00    -0.295 NA
ATOM     16  C   UNL     1       1.504  -5.448   1.651  0.00  0.00    +0.227 C 
ATOM     17  O   UNL     1       1.386  -6.570   1.208  0.00  0.00    -0.275 OA
ATOM     18  N   UNL     1       2.329  -4.510   1.171  0.00  0.00    -0.237 N 
ATOM     19  C   UNL     1       2.293  -3.332   1.834  0.00  0.00    +0.229 C 
ATOM     20  O   UNL     1       2.954  -2.348   1.577  0.00  0.00    -0.275 OA
ATOM     21  H   UNL     1       0.122   0.672   2.917  0.00  0.00    +0.155 HD
ATOM     22  H   UNL     1      -1.323  -3.385   3.918  0.00  0.00    +0.123 HD
ENDROOT
BRANCH  14  23
ATOM     23  C   UNL     1      -1.592  -5.797   3.151  0.00  0.00    +0.028 C 
BRANCH  23  24
ATOM     24  C   UNL     1      -3.041  -5.692   2.672  0.00  0.00    +0.097 C 
BRANCH  24  25
ATOM     25  C   UNL     1      -3.872  -6.749   3.353  0.00  0.00    +0.211 C 
ATOM     26  O   UNL     1      -3.356  -7.510   4.144  0.00  0.00    -0.276 OA
ATOM     27  N   UNL     1      -5.189  -6.848   3.084  0.00  0.00    -0.329 N 
ATOM     28  H   UNL     1      -5.602  -6.239   2.452  0.00  0.00    +0.145 HD
ATOM     29  H   UNL     1      -5.724  -7.527   3.522  0.00  0.00    +0.145 HD
ENDBRANCH  24  25
ENDBRANCH  23  24
ENDBRANCH  14  23
BRANCH  18  30
ATOM     30  C   UNL     1       3.208  -4.741   0.022  0.00  0.00    +0.153 C 
BRANCH  30  31
ATOM     31  C   UNL     1       4.586  -5.110   0.510  0.00  0.00    -0.011 A 
ATOM     32  C   UNL     1       5.560  -4.136   0.631  0.00  0.00    +0.006 A 
ATOM     33  C   UNL     1       6.823  -4.474   1.078  0.00  0.00    +0.000 A 
ATOM     34  C   UNL     1       7.114  -5.786   1.405  0.00  0.00    +0.001 A 
ATOM     35  C   UNL     1       6.141  -6.760   1.285  0.00  0.00    +0.020 A 
ATOM     36  C   UNL     1       4.874  -6.421   0.843  0.00  0.00    +0.046 A 
ATOM     37 CL   UNL     1       3.649  -7.643   0.698  0.00  0.00    -0.083 Cl
ENDBRANCH  30  31
ENDBRANCH  18  30
TORSDOF 5
