REMARK  Name = ZINC36540840
REMARK  12 active torsions:
REMARK  status: ('A' for Active; 'I' for Inactive)
REMARK    1  A    between atoms: C_1  and  C_2
REMARK    2  A    between atoms: C_2  and  C_3
REMARK    3  A    between atoms: C_3  and  C_4
REMARK    4  A    between atoms: C_4  and  N_5
REMARK    5  A    between atoms: C_6  and  C_8
REMARK    6  A    between atoms: C_8  and  C_10
REMARK    7  A    between atoms: C_8  and  N_19
REMARK    8  A    between atoms: C_11  and  O_18
REMARK    9  A    between atoms: C_13  and  O_17
REMARK   10  A    between atoms: C_15  and  O_16
REMARK   11  A    between atoms: N_19  and  C_20
REMARK   12  A    between atoms: C_27  and  C_29
REMARK                            x       y       z     vdW  Elec       q    Type
REMARK                         _______ _______ _______ _____ _____    ______ ____
ROOT
ATOM      1  C   UNL     1      -4.951  -4.460   0.674  0.00  0.00    +0.204 C 
ENDROOT
BRANCH   1   2
ATOM      2  C   UNL     1      -6.387  -4.496   1.129  0.00  0.00    +0.065 A 
ATOM      3  C   UNL     1      -6.778  -5.382   2.122  0.00  0.00    +0.129 A 
ATOM      4  C   UNL     1      -8.099  -5.416   2.540  0.00  0.00    +0.091 A 
ATOM      5  C   UNL     1      -9.030  -4.563   1.967  0.00  0.00    +0.124 A 
ATOM      6  C   UNL     1      -8.639  -3.676   0.975  0.00  0.00    +0.091 A 
ATOM      7  C   UNL     1      -7.317  -3.639   0.559  0.00  0.00    +0.129 A 
BRANCH   7   8
ATOM      8  O   UNL     1      -6.933  -2.767  -0.409  0.00  0.00    -0.506 OA
ATOM      9  H   UNL     1      -7.002  -3.121  -1.307  0.00  0.00    +0.292 HD
ENDBRANCH   7   8
BRANCH   5  10
ATOM     10  O   UNL     1     -10.325  -4.596   2.376  0.00  0.00    -0.507 OA
ATOM     11  H   UNL     1     -10.522  -3.997   3.110  0.00  0.00    +0.292 HD
ENDBRANCH   5  10
BRANCH   3  12
ATOM     12  O   UNL     1      -5.865  -6.218   2.684  0.00  0.00    -0.506 OA
ATOM     13  H   UNL     1      -5.422  -5.851   3.461  0.00  0.00    +0.292 HD
ENDBRANCH   3  12
ENDBRANCH   1   2
BRANCH   1  15
ATOM     14  N   UNL     1      -3.823  -2.500   1.677  0.00  0.00    -0.313 N 
ATOM     15  C   UNL     1      -4.102  -3.817   1.741  0.00  0.00    +0.239 C 
ATOM     16  O   UNL     1      -3.670  -4.485   2.656  0.00  0.00    -0.273 OA
ATOM     17  H   UNL     1      -4.168  -1.966   0.945  0.00  0.00    +0.149 HD
BRANCH  14  18
ATOM     18  C   UNL     1      -2.998  -1.876   2.714  0.00  0.00    +0.104 C 
BRANCH  18  19
ATOM     19  C   UNL     1      -2.834  -0.386   2.407  0.00  0.00    +0.018 C 
BRANCH  19  21
ATOM     20  C   UNL     1      -1.809   1.757   3.183  0.00  0.00    +0.004 C 
ATOM     21  C   UNL     1      -1.972   0.267   3.490  0.00  0.00    -0.002 C 
ENDBRANCH  19  21
ENDBRANCH  18  19
ENDBRANCH  14  18
ENDBRANCH   1  15
BRANCH   1  22
ATOM     22  N   UNL     1      -4.480  -5.826   0.433  0.00  0.00    -0.253 N 
ATOM     23  C   UNL     1      -5.076  -6.588  -0.506  0.00  0.00    +0.224 C 
ATOM     24  O   UNL     1      -5.942  -6.115  -1.211  0.00  0.00    -0.275 OA
BRANCH  22  25
ATOM     25  C   UNL     1      -3.412  -6.340   1.177  0.00  0.00    +0.056 A 
ATOM     26  C   UNL     1      -3.647  -7.270   2.180  0.00  0.00    +0.025 A 
ATOM     27  C   UNL     1      -2.590  -7.775   2.913  0.00  0.00    +0.002 A 
ATOM     28  C   UNL     1      -1.299  -7.356   2.648  0.00  0.00    +0.002 A 
ATOM     29  C   UNL     1      -1.061  -6.430   1.650  0.00  0.00    +0.022 A 
ATOM     30  C   UNL     1      -2.113  -5.925   0.909  0.00  0.00    +0.062 A 
ATOM     31 CL   UNL     1      -1.813  -4.768  -0.350  0.00  0.00    -0.082 Cl
ENDBRANCH  22  25
BRANCH  23  32
ATOM     32  C   UNL     1      -4.667  -8.028  -0.679  0.00  0.00    +0.076 C 
ATOM     33  C   UNL     1      -3.445  -8.104  -1.596  0.00  0.00    +0.013 C 
ATOM     34  C   UNL     1      -3.029  -9.566  -1.771  0.00  0.00    +0.001 C 
ATOM     35  C   UNL     1      -4.184 -10.353  -2.394  0.00  0.00    +0.000 C 
ATOM     36  C   UNL     1      -5.406 -10.277  -1.477  0.00  0.00    +0.001 C 
ATOM     37  C   UNL     1      -5.822  -8.815  -1.301  0.00  0.00    +0.013 C 
ENDBRANCH  23  32
ENDBRANCH   1  22
TORSDOF 11
