REMARK  Name = ZINC39574301
REMARK  7 active torsions:
REMARK  status: ('A' for Active; 'I' for Inactive)
REMARK    1  A    between atoms: C_1  and  C_2
REMARK    2  A    between atoms: C_4  and  C_10
REMARK    3  A    between atoms: C_5  and  C_9
REMARK    4  A    between atoms: N_7  and  C_8
REMARK    5  A    between atoms: N_11  and  N_12
REMARK    6  A    between atoms: C_13  and  C_15
REMARK    7  A    between atoms: C_18  and  C_21
REMARK                            x       y       z     vdW  Elec       q    Type
REMARK                         _______ _______ _______ _____ _____    ______ ____
ROOT
ATOM      1  N   UNL     1       0.793  -0.589  -4.902  0.00  0.00    -0.205 N 
ATOM      2  C   UNL     1       1.557  -1.113  -5.881  0.00  0.00    +0.263 C 
ATOM      3  O   UNL     1       2.538  -1.769  -5.599  0.00  0.00    -0.271 OA
ATOM      4  H   UNL     1       0.009  -0.064  -5.128  0.00  0.00    +0.177 HD
ENDROOT
BRANCH   2   5
ATOM      5  C   UNL     1       1.193  -0.884  -7.325  0.00  0.00    +0.240 C 
ATOM      6  C   UNL     1       0.128  -1.869  -7.772  0.00  0.00    +0.041 C 
ATOM      7  C   UNL     1       0.725  -2.564  -8.760  0.00  0.00    +0.092 C 
ATOM      8  N   UNL     1       1.995  -2.120  -8.951  0.00  0.00    -0.153 NA
ATOM      9  N   UNL     1       2.333  -1.194  -8.204  0.00  0.00    -0.170 NA
BRANCH   7  10
ATOM     10  C   UNL     1       0.087  -3.660  -9.529  0.00  0.00    +0.002 A 
ATOM     11  C   UNL     1      -1.238  -4.030  -9.245  0.00  0.00    +0.011 A 
ATOM     12  C   UNL     1      -1.845  -5.031  -9.934  0.00  0.00    +0.009 A 
ATOM     13  C   UNL     1      -1.146  -5.710 -10.948  0.00  0.00    -0.018 A 
ATOM     14  C   UNL     1      -1.752  -6.748 -11.676  0.00  0.00    +0.008 A 
ATOM     15  C   UNL     1      -1.050  -7.387 -12.652  0.00  0.00    +0.001 A 
ATOM     16  C   UNL     1       0.265  -7.028 -12.942  0.00  0.00    +0.001 A 
ATOM     17  C   UNL     1       0.885  -6.028 -12.258  0.00  0.00    +0.008 A 
ATOM     18  C   UNL     1       0.192  -5.345 -11.244  0.00  0.00    -0.017 A 
ATOM     19  C   UNL     1       0.799  -4.305 -10.523  0.00  0.00    +0.018 A 
ENDBRANCH   7  10
ENDBRANCH   2   5
BRANCH   1  21
ATOM     20  C   UNL     1       0.393  -0.295  -2.614  0.00  0.00    +0.137 C 
ATOM     21  N   UNL     1       1.131  -0.801  -3.559  0.00  0.00    -0.188 NA
BRANCH  20  24
ATOM     22  C   UNL     1      -0.019   1.526   0.010  0.00  0.00    +0.031 C 
ATOM     23  C   UNL     1       0.002  -0.004   0.002  0.00  0.00    +0.105 C 
ATOM     24  C   UNL     1       0.746  -0.517  -1.213  0.00  0.00    +0.008 C 
ATOM     25  C   UNL     1       1.793  -1.217  -0.749  0.00  0.00    +0.022 C 
ATOM     26  N   UNL     1       1.823  -1.223   0.622  0.00  0.00    -0.281 N 
ATOM     27  N   UNL     1       0.778  -0.516   1.149  0.00  0.00    -0.225 NA
ATOM     28  C   UNL     1       1.259   0.585   1.993  0.00  0.00    +0.128 C 
ATOM     29  C   UNL     1       2.807  -1.909  -1.623  0.00  0.00    +0.062 C 
ATOM     30  H   UNL     1       2.500  -1.673   1.151  0.00  0.00    +0.166 HD
ENDBRANCH  20  24
ENDBRANCH   1  21
TORSDOF 4
