REMARK  Name = ZINC09160083
REMARK  9 active torsions:
REMARK  status: ('A' for Active; 'I' for Inactive)
REMARK    1  A    between atoms: C_1  and  C_2
REMARK    2  A    between atoms: C_2  and  O_3
REMARK    3  A    between atoms: O_3  and  C_4
REMARK    4  A    between atoms: C_4  and  C_6
REMARK    5  A    between atoms: C_6  and  C_7
REMARK    6  A    between atoms: C_14  and  N_36
REMARK    7  A    between atoms: C_15  and  C_34
REMARK    8  A    between atoms: N_23  and  C_26
REMARK    9  A    between atoms: C_26  and  C_27
REMARK                            x       y       z     vdW  Elec       q    Type
REMARK                         _______ _______ _______ _____ _____    ______ ____
ROOT
ATOM      1  C   UNL     1      -2.782  -3.930   0.007  0.00  0.00    +0.055 A 
ATOM      2  C   UNL     1      -2.630  -4.720   1.081  0.00  0.00    +0.062 A 
ATOM      3  C   UNL     1      -2.583  -6.061   0.636  0.00  0.00    +0.245 A 
ATOM      4  N   UNL     1      -2.702  -6.059  -0.660  0.00  0.00    -0.135 NA
ATOM      5  N   UNL     1      -2.835  -4.727  -1.085  0.00  0.00    -0.277 N 
ATOM      6  H   UNL     1      -2.944  -4.430  -2.002  0.00  0.00    +0.189 HD
ATOM      7  O   UNL     1      -2.436  -7.101   1.500  0.00  0.00    -0.421 OA
ATOM      8  C   UNL     1      -2.598  -6.852   2.815  0.00  0.00    +0.201 C 
ATOM      9  C   UNL     1      -2.647  -5.615   3.358  0.00  0.00    +0.110 C 
ATOM     10  C   UNL     1      -2.519  -4.363   2.537  0.00  0.00    +0.145 C 
ATOM     11  C   UNL     1      -1.237  -3.650   2.825  0.00  0.00    -0.001 A 
ATOM     12  C   UNL     1       0.078  -4.038   2.684  0.00  0.00    +0.007 A 
ATOM     13  C   UNL     1       1.052  -3.115   3.051  0.00  0.00    +0.000 A 
ATOM     14  C   UNL     1       0.713  -1.868   3.533  0.00  0.00    +0.002 A 
ATOM     15  C   UNL     1      -0.607  -1.470   3.679  0.00  0.00    +0.024 A 
ATOM     16  C   UNL     1      -1.594  -2.387   3.315  0.00  0.00    +0.041 A 
ATOM     17  N   UNL     1      -2.971  -2.259   3.357  0.00  0.00    -0.265 N 
ATOM     18  C   UNL     1      -3.596  -3.372   2.919  0.00  0.00    +0.241 C 
ATOM     19  O   UNL     1      -4.795  -3.545   2.846  0.00  0.00    -0.274 OA
ENDROOT
BRANCH   8  20
ATOM     20  N   UNL     1      -2.723  -7.928   3.659  0.00  0.00    -0.328 N 
ATOM     21  H   UNL     1      -2.693  -8.829   3.303  0.00  0.00    +0.145 HD
ATOM     22  H   UNL     1      -2.841  -7.785   4.611  0.00  0.00    +0.145 HD
ENDBRANCH   8  20
BRANCH   9  23
ATOM     23  C   UNL     1      -2.827  -5.494   4.774  0.00  0.00    +0.102 C 
ATOM     24  N   UNL     1      -2.969  -5.397   5.897  0.00  0.00    -0.191 NA
ENDBRANCH   9  23
BRANCH   1  25
ATOM     25  C   UNL     1      -2.881  -2.427   0.017  0.00  0.00    +0.175 C 
BRANCH  25  26
ATOM     26  C   UNL     1      -1.496  -1.832   0.006  0.00  0.00    +0.313 C 
ATOM     27  O   UNL     1      -0.528  -2.555  -0.007  0.00  0.00    -0.250 OA
BRANCH  26  28
ATOM     28  O   UNL     1      -1.339  -0.499   0.012  0.00  0.00    -0.465 OA
BRANCH  28  30
ATOM     29  C   UNL     1      -0.019   1.526   0.010  0.00  0.00    +0.048 C 
ATOM     30  C   UNL     1       0.002  -0.004   0.002  0.00  0.00    +0.229 C 
ENDBRANCH  28  30
ENDBRANCH  26  28
ENDBRANCH  25  26
ENDBRANCH   1  25
BRANCH  17  31
ATOM     31  C   UNL     1      -3.668  -1.057   3.821  0.00  0.00    +0.148 C 
BRANCH  31  32
ATOM     32  C   UNL     1      -3.898  -0.129   2.656  0.00  0.00    -0.030 A 
ATOM     33  C   UNL     1      -2.949   0.822   2.331  0.00  0.00    +0.006 A 
ATOM     34  C   UNL     1      -3.160   1.673   1.263  0.00  0.00    +0.020 A 
ATOM     35  C   UNL     1      -4.322   1.574   0.519  0.00  0.00    +0.041 A 
ATOM     36  C   UNL     1      -5.272   0.623   0.845  0.00  0.00    +0.020 A 
ATOM     37  C   UNL     1      -5.058  -0.232   1.910  0.00  0.00    +0.006 A 
ATOM     38 CL   UNL     1      -4.588   2.643  -0.822  0.00  0.00    -0.084 Cl
ENDBRANCH  31  32
ENDBRANCH  17  31
TORSDOF 8
