REMARK  Name = ZINC65409609
REMARK  10 active torsions:
REMARK  status: ('A' for Active; 'I' for Inactive)
REMARK    1  A    between atoms: C_1  and  C_2
REMARK    2  A    between atoms: C_2  and  C_3
REMARK    3  A    between atoms: N_5  and  C_6
REMARK    4  A    between atoms: C_9  and  N_13
REMARK    5  A    between atoms: C_11  and  C_12
REMARK    6  A    between atoms: N_16  and  C_17
REMARK    7  A    between atoms: C_17  and  C_18
REMARK    8  A    between atoms: C_18  and  C_19
REMARK    9  A    between atoms: C_18  and  N_20
REMARK   10  A    between atoms: C_23  and  C_26
REMARK                            x       y       z     vdW  Elec       q    Type
REMARK                         _______ _______ _______ _____ _____    ______ ____
ROOT
ATOM      1  N   UNL     1       3.605  -3.265  -5.953  0.00  0.00    -0.269 N 
ATOM      2  C   UNL     1       4.356  -2.454  -6.723  0.00  0.00    +0.304 C 
ATOM      3  O   UNL     1       4.296  -1.248  -6.575  0.00  0.00    -0.253 OA
ATOM      4  N   UNL     1       5.174  -2.978  -7.657  0.00  0.00    -0.301 N 
ATOM      5  H   UNL     1       3.602  -4.222  -6.115  0.00  0.00    +0.156 HD
ATOM      6  H   UNL     1       5.222  -3.940  -7.775  0.00  0.00    +0.150 HD
ENDROOT
BRANCH   1  10
ATOM      7  C   UNL     1       1.294  -1.665  -2.872  0.00  0.00    +0.036 A 
ATOM      8  C   UNL     1       1.892  -2.909  -2.717  0.00  0.00    +0.025 A 
ATOM      9  C   UNL     1       2.657  -3.439  -3.737  0.00  0.00    +0.025 A 
ATOM     10  C   UNL     1       2.829  -2.728  -4.918  0.00  0.00    +0.035 A 
ATOM     11  C   UNL     1       2.232  -1.484  -5.072  0.00  0.00    +0.028 A 
ATOM     12  C   UNL     1       1.461  -0.957  -4.054  0.00  0.00    -0.027 A 
ATOM     13  C   UNL     1       0.807   0.390  -4.225  0.00  0.00    +0.046 C 
BRANCH   7  16
ATOM     14  C   UNL     1      -0.062  -1.944  -0.935  0.00  0.00    +0.217 C 
ATOM     15  O   UNL     1       0.007  -3.147  -1.074  0.00  0.00    -0.275 OA
ATOM     16  N   UNL     1       0.518  -1.127  -1.837  0.00  0.00    -0.285 N 
ATOM     17  H   UNL     1       0.399  -0.167  -1.769  0.00  0.00    +0.155 HD
BRANCH  14  19
ATOM     18  C   UNL     1      -1.355  -2.497   1.107  0.00  0.00    +0.013 C 
ATOM     19  C   UNL     1      -0.796  -1.363   0.245  0.00  0.00    +0.093 C 
ENDBRANCH  14  19
ENDBRANCH   7  16
ENDBRANCH   1  10
BRANCH   4  20
ATOM     20  C   UNL     1       5.990  -2.096  -8.495  0.00  0.00    +0.090 C 
BRANCH  20  21
ATOM     21  C   UNL     1       6.725  -2.928  -9.547  0.00  0.00    -0.054 C 
ATOM     22  C   UNL     1       7.555  -2.003 -10.440  0.00  0.00    -0.012 C 
BRANCH  21  23
ATOM     23  N   UNL     1       5.747  -3.653 -10.369  0.00  0.00    +0.382 N 
ATOM     24  C   UNL     1       6.453  -4.559 -11.283  0.00  0.00    -0.078 C 
ATOM     25  C   UNL     1       5.437  -5.375 -12.084  0.00  0.00    -0.016 C 
ATOM     26  C   UNL     1       4.548  -4.425 -12.891  0.00  0.00    -0.018 C 
ATOM     27  C   UNL     1       3.874  -3.437 -11.934  0.00  0.00    -0.016 C 
ATOM     28  C   UNL     1       4.948  -2.692 -11.138  0.00  0.00    -0.078 C 
ATOM     29  C   UNL     1       3.479  -5.229 -13.632  0.00  0.00    +0.007 C 
ATOM     30  H   UNL     1       5.139  -4.191  -9.769  0.00  0.00    -0.081 HD
ENDBRANCH  21  23
ENDBRANCH  20  21
ENDBRANCH   4  20
TORSDOF 6
