REMARK  Name = ZINC05563591
REMARK  6 active torsions:
REMARK  status: ('A' for Active; 'I' for Inactive)
REMARK    1  A    between atoms: C_1  and  C_2
REMARK    2  A    between atoms: C_2  and  C_3
REMARK    3  A    between atoms: C_2  and  C_4
REMARK    4  A    between atoms: C_7  and  N_10
REMARK    5  A    between atoms: C_11  and  O_28
REMARK    6  A    between atoms: C_12  and  C_19
REMARK                            x       y       z     vdW  Elec       q    Type
REMARK                         _______ _______ _______ _____ _____    ______ ____
ROOT
ATOM      1  N   UNL     1       4.846   5.632   0.107  0.00  0.00    -0.232 N 
ATOM      2  C   UNL     1       4.719   4.487  -0.619  0.00  0.00    +0.214 A 
ATOM      3  C   UNL     1       3.490   3.793  -0.587  0.00  0.00    +0.100 A 
ATOM      4  C   UNL     1       2.404   4.359   0.234  0.00  0.00    +0.265 A 
ATOM      5  O   UNL     1       1.321   3.810   0.296  0.00  0.00    -0.267 OA
ATOM      6  N   UNL     1       2.640   5.498   0.918  0.00  0.00    -0.274 N 
ATOM      7  H   UNL     1       1.918   5.891   1.487  0.00  0.00    +0.173 HD
ATOM      8  C   UNL     1       3.833   6.110   0.845  0.00  0.00    +0.337 A 
ATOM      9  O   UNL     1       4.002   7.137   1.473  0.00  0.00    -0.246 OA
ENDROOT
BRANCH   3  10
ATOM     10  C   UNL     1       3.308   2.613  -1.314  0.00  0.00    +0.030 C 
ATOM     11  C   UNL     1       3.506   2.606  -2.704  0.00  0.00    +0.024 C 
ATOM     12  C   UNL     1       3.758   3.805  -3.401  0.00  0.00    +0.031 C 
ATOM     13  C   UNL     1       3.949   3.779  -4.748  0.00  0.00    +0.042 C 
ATOM     14  C   UNL     1       3.901   2.587  -5.465  0.00  0.00    +0.024 C 
ATOM     15  C   UNL     1       3.662   1.395  -4.850  0.00  0.00    +0.053 C 
ATOM     16  C   UNL     1       3.457   1.351  -3.462  0.00  0.00    +0.186 C 
ATOM     17  O   UNL     1       3.241   0.287  -2.895  0.00  0.00    -0.287 OA
ATOM     18 CL   UNL     1       4.265   5.264  -5.590  0.00  0.00    -0.084 Cl
ENDBRANCH   3  10
BRANCH   1  22
ATOM     19  C   UNL     1       8.465   7.699   0.030  0.00  0.00    -0.045 A 
ATOM     20  C   UNL     1       8.258   6.706   0.970  0.00  0.00    +0.006 A 
ATOM     21  C   UNL     1       7.059   6.020   0.998  0.00  0.00    +0.027 A 
ATOM     22  C   UNL     1       6.063   6.327   0.081  0.00  0.00    +0.054 A 
ATOM     23  C   UNL     1       6.276   7.321  -0.865  0.00  0.00    +0.027 A 
ATOM     24  C   UNL     1       7.475   8.008  -0.884  0.00  0.00    +0.006 A 
BRANCH  19  26
ATOM     25  C   UNL     1      10.447   8.244  -1.357  0.00  0.00    +0.012 C 
ATOM     26  C   UNL     1       9.774   8.446   0.002  0.00  0.00    +0.013 C 
ATOM     27  C   UNL     1       9.515   9.937   0.226  0.00  0.00    +0.012 C 
ENDBRANCH  19  26
ENDBRANCH   1  22
BRANCH   2  28
ATOM     28  O   UNL     1       5.745   4.024  -1.352  0.00  0.00    -0.493 OA
ATOM     29  H   UNL     1       5.598   3.206  -1.847  0.00  0.00    +0.294 HD
ENDBRANCH   2  28
TORSDOF 4
