REMARK  Name = ZINC13200895
REMARK  7 active torsions:
REMARK  status: ('A' for Active; 'I' for Inactive)
REMARK    1  A    between atoms: C_1  and  N_2
REMARK    2  A    between atoms: C_8  and  C_25
REMARK    3  A    between atoms: C_12  and  S_13
REMARK    4  A    between atoms: S_13  and  C_14
REMARK    5  A    between atoms: C_14  and  C_15
REMARK    6  A    between atoms: C_15  and  O_16
REMARK    7  A    between atoms: O_16  and  C_17
REMARK                            x       y       z     vdW  Elec       q    Type
REMARK                         _______ _______ _______ _____ _____    ______ ____
ROOT
ATOM      1  C   UNL     1       3.522   2.336  -0.019  0.00  0.00    +0.154 C 
ATOM      2  N   UNL     1       2.332   1.482  -0.012  0.00  0.00    -0.290 N 
ATOM      3  C   UNL     1       2.472   0.137  -0.021  0.00  0.00    +0.262 A 
ATOM      4  O   UNL     1       3.572  -0.383  -0.035  0.00  0.00    -0.267 OA
ATOM      5  C   UNL     1       1.245  -0.676  -0.013  0.00  0.00    +0.065 A 
ATOM      6  C   UNL     1       1.290  -2.070  -0.022  0.00  0.00    +0.016 A 
ATOM      7  C   UNL     1       0.129  -2.788  -0.015  0.00  0.00    +0.016 A 
ATOM      8  C   UNL     1      -1.112  -2.137   0.000  0.00  0.00    +0.065 A 
ATOM      9  C   UNL     1      -1.180  -0.750   0.009  0.00  0.00    +0.043 A 
ATOM     10  C   UNL     1       0.002  -0.004   0.002  0.00  0.00    +0.080 A 
ATOM     11  N   UNL     1      -0.016   1.350   0.009  0.00  0.00    -0.223 NA
ATOM     12  C   UNL     1       1.091   2.051   0.003  0.00  0.00    +0.172 A 
ENDROOT
BRANCH   8  13
ATOM     13  C   UNL     1      -2.359  -2.934   0.007  0.00  0.00    +0.387 C 
ATOM     14  O   UNL     1      -3.437  -2.374   0.020  0.00  0.00    -0.241 OA
ATOM     15  O   UNL     1      -2.299  -4.279  -0.001  0.00  0.00    -0.241 OA
ENDBRANCH   8  13
BRANCH  12  16
ATOM     16  S   UNL     1       0.972   3.809   0.013  0.00  0.00    -0.084 S 
BRANCH  16  17
ATOM     17  C   UNL     1      -0.828   4.002   0.032  0.00  0.00    +0.118 C 
BRANCH  17  18
ATOM     18  C   UNL     1      -1.181   5.490   0.043  0.00  0.00    +0.240 C 
BRANCH  18  19
ATOM     19  O   UNL     1      -2.602   5.643   0.057  0.00  0.00    -0.490 OA
BRANCH  19  20
ATOM     20  C   UNL     1      -3.086   6.913   0.069  0.00  0.00    +0.140 A 
ATOM     21  C   UNL     1      -2.212   7.990   0.072  0.00  0.00    +0.067 A 
ATOM     22  C   UNL     1      -2.707   9.280   0.079  0.00  0.00    +0.045 A 
ATOM     23  C   UNL     1      -4.073   9.499   0.093  0.00  0.00    +0.021 A 
ATOM     24  C   UNL     1      -4.947   8.427   0.095  0.00  0.00    +0.025 A 
ATOM     25  C   UNL     1      -4.456   7.134   0.083  0.00  0.00    +0.083 A 
ATOM     26 CL   UNL     1      -5.554   5.789   0.085  0.00  0.00    -0.080 Cl
ATOM     27 CL   UNL     1      -1.613  10.629   0.077  0.00  0.00    -0.083 Cl
ENDBRANCH  19  20
ENDBRANCH  18  19
ENDBRANCH  17  18
ENDBRANCH  16  17
ENDBRANCH  12  16
TORSDOF 6
