REMARK  Name = ZINC20277924
REMARK  4 active torsions:
REMARK  status: ('A' for Active; 'I' for Inactive)
REMARK    1  A    between atoms: C_4  and  C_7
REMARK    2  A    between atoms: N_11  and  C_20
REMARK    3  A    between atoms: C_14  and  N_19
REMARK    4  A    between atoms: C_20  and  C_21
REMARK                            x       y       z     vdW  Elec       q    Type
REMARK                         _______ _______ _______ _____ _____    ______ ____
ROOT
ATOM      1  C   UNL     1       3.442   1.771  -0.716  0.00  0.00    +0.289 C 
ATOM      2  C   UNL     1       3.505   3.226  -0.327  0.00  0.00    +0.266 C 
ATOM      3  O   UNL     1       4.569   3.807  -0.310  0.00  0.00    -0.271 OA
ATOM      4  N   UNL     1       2.370   3.881   0.002  0.00  0.00    -0.256 N 
ATOM      5  C   UNL     1       1.157   3.178   0.009  0.00  0.00    +0.081 A 
ATOM      6  C   UNL     1      -0.051   3.855   0.023  0.00  0.00    +0.050 A 
ATOM      7  C   UNL     1      -1.242   3.140   0.031  0.00  0.00    +0.027 A 
ATOM      8  C   UNL     1      -1.219   1.751   0.017  0.00  0.00    +0.026 A 
ATOM      9  C   UNL     1      -0.013   1.076   0.008  0.00  0.00    +0.049 A 
ATOM     10  C   UNL     1       1.176   1.784   0.000  0.00  0.00    +0.144 A 
ATOM     11  O   UNL     1       2.371   1.132  -0.016  0.00  0.00    -0.473 OA
ENDROOT
BRANCH   1  15
ATOM     12  C   UNL     1       2.781   1.451  -4.924  0.00  0.00    +0.000 A 
ATOM     13  C   UNL     1       4.055   1.298  -4.411  0.00  0.00    +0.000 A 
ATOM     14  C   UNL     1       4.269   1.401  -3.049  0.00  0.00    +0.008 A 
ATOM     15  C   UNL     1       3.209   1.658  -2.200  0.00  0.00    +0.002 A 
ATOM     16  C   UNL     1       1.934   1.807  -2.713  0.00  0.00    +0.008 A 
ATOM     17  C   UNL     1       1.720   1.708  -4.075  0.00  0.00    +0.000 A 
ENDBRANCH   1  15
BRANCH   7  18
ATOM     18  N   UNL     1      -2.465   3.819   0.045  0.00  0.00    -0.358 N 
ATOM     19  H   UNL     1      -3.409   3.253   0.051  0.00  0.00    +0.142 HD
ATOM     20  H   UNL     1      -2.484   4.919   0.051  0.00  0.00    +0.142 HD
ENDBRANCH   7  18
BRANCH   4  21
ATOM     21  C   UNL     1       2.406   5.304   0.347  0.00  0.00    +0.209 C 
BRANCH  21  22
ATOM     22  C   UNL     1       2.216   6.128  -0.901  0.00  0.00    +0.228 C 
ATOM     23  O   UNL     1       2.066   5.580  -1.972  0.00  0.00    -0.274 OA
ATOM     24  N   UNL     1       2.214   7.474  -0.826  0.00  0.00    -0.328 N 
ATOM     25  H   UNL     1       2.076   8.075  -1.736  0.00  0.00    +0.145 HD
ATOM     26  H   UNL     1       2.351   7.971   0.146  0.00  0.00    +0.145 HD
ENDBRANCH  21  22
ENDBRANCH   4  21
TORSDOF 4
