REMARK  Name = ZINC00273461
REMARK  5 active torsions:
REMARK  status: ('A' for Active; 'I' for Inactive)
REMARK    1  A    between atoms: C_1  and  C_2
REMARK    2  A    between atoms: C_2  and  C_4
REMARK    3  A    between atoms: N_8  and  C_18
REMARK    4  A    between atoms: C_9  and  C_11
REMARK    5  A    between atoms: C_21  and  O_24
REMARK                            x       y       z     vdW  Elec       q    Type
REMARK                         _______ _______ _______ _____ _____    ______ ____
ROOT
ATOM      1  C   UNL     1      -1.188  -0.675   0.078  0.00  0.00    +0.072 C 
ATOM      2  C   UNL     1      -1.266  -2.025   0.196  0.00  0.00    +0.249 C 
ATOM      3  C   UNL     1      -2.684  -2.418   0.336  0.00  0.00    +0.292 C 
ATOM      4  O   UNL     1      -3.082  -3.559   0.462  0.00  0.00    -0.266 OA
ATOM      5  N   UNL     1      -3.469  -1.326   0.305  0.00  0.00    -0.253 N 
ATOM      6  C   UNL     1      -2.604  -0.151   0.148  0.00  0.00    +0.151 C 
ATOM      7  O   UNL     1      -0.214  -2.874   0.186  0.00  0.00    -0.282 OA
ENDROOT
BRANCH   6   8
ATOM      8  C   UNL     1      -2.757   0.770   1.331  0.00  0.00    -0.004 A 
ATOM      9  C   UNL     1      -2.871   2.134   1.135  0.00  0.00    +0.007 A 
ATOM     10  C   UNL     1      -3.012   2.979   2.220  0.00  0.00    +0.000 A 
ATOM     11  C   UNL     1      -3.038   2.461   3.502  0.00  0.00    +0.001 A 
ATOM     12  C   UNL     1      -2.924   1.098   3.699  0.00  0.00    +0.020 A 
ATOM     13  C   UNL     1      -2.789   0.251   2.613  0.00  0.00    +0.046 A 
ATOM     14 CL   UNL     1      -2.652  -1.462   2.859  0.00  0.00    -0.083 Cl
ENDBRANCH   6   8
BRANCH   5  15
ATOM     15  C   UNL     1      -4.864  -1.312   0.409  0.00  0.00    +0.038 A 
ATOM     16  C   UNL     1      -5.553  -0.108   0.354  0.00  0.00    +0.027 A 
ATOM     17  C   UNL     1      -6.930  -0.095   0.457  0.00  0.00    +0.047 A 
ATOM     18  C   UNL     1      -7.625  -1.286   0.614  0.00  0.00    +0.117 A 
ATOM     19  C   UNL     1      -6.938  -2.489   0.668  0.00  0.00    +0.047 A 
ATOM     20  C   UNL     1      -5.561  -2.504   0.561  0.00  0.00    +0.027 A 
BRANCH  18  21
ATOM     21  O   UNL     1      -8.981  -1.272   0.714  0.00  0.00    -0.507 OA
ATOM     22  H   UNL     1      -9.439  -1.346  -0.134  0.00  0.00    +0.292 HD
ENDBRANCH  18  21
ENDBRANCH   5  15
BRANCH   1  24
ATOM     23  C   UNL     1      -0.085   1.598  -0.062  0.00  0.00    +0.091 C 
ATOM     24  C   UNL     1      -0.011   0.092  -0.075  0.00  0.00    +0.162 C 
ATOM     25  O   UNL     1       1.060  -0.461  -0.216  0.00  0.00    -0.292 OA
ENDBRANCH   1  24
TORSDOF 4
