REMARK  Name = ZINC40040989
REMARK  9 active torsions:
REMARK  status: ('A' for Active; 'I' for Inactive)
REMARK    1  A    between atoms: C_1  and  C_2
REMARK    2  A    between atoms: C_2  and  C_3
REMARK    3  A    between atoms: C_3  and  C_4
REMARK    4  A    between atoms: C_10  and  C_27
REMARK    5  A    between atoms: C_17  and  C_25
REMARK    6  A    between atoms: C_25  and  C_26
REMARK    7  A    between atoms: C_30  and  O_33
REMARK    8  A    between atoms: O_33  and  C_34
REMARK    9  A    between atoms: C_34  and  C_35
REMARK                            x       y       z     vdW  Elec       q    Type
REMARK                         _______ _______ _______ _____ _____    ______ ____
ROOT
ATOM      1  C   UNL     1      -1.413  -2.041   0.005  0.00  0.00    +0.104 A 
ATOM      2  N   UNL     1      -1.398  -2.893   1.010  0.00  0.00    -0.145 NA
ATOM      3  N   UNL     1      -1.382  -4.142   0.832  0.00  0.00    -0.125 NA
ATOM      4  C   UNL     1      -1.379  -4.675  -0.383  0.00  0.00    +0.191 A 
ATOM      5  S   UNL     1      -1.410  -3.184  -1.374  0.00  0.00    -0.035 S 
ATOM      6  N   UNL     1      -1.363  -6.007  -0.773  0.00  0.00    -0.230 N 
ATOM      7  C   UNL     1      -1.351  -7.172   0.126  0.00  0.00    +0.151 C 
ATOM      8  C   UNL     1      -1.333  -8.372  -0.763  0.00  0.00    +0.072 A 
ATOM      9  C   UNL     1      -1.305  -9.805  -0.451  0.00  0.00    +0.199 A 
ATOM     10  O   UNL     1      -1.469 -10.247   0.672  0.00  0.00    -0.287 OA
ATOM     11  C   UNL     1      -1.060 -10.666  -1.636  0.00  0.00    +0.065 A 
ATOM     12  C   UNL     1      -0.808 -12.029  -1.478  0.00  0.00    +0.019 A 
ATOM     13  C   UNL     1      -0.579 -12.807  -2.578  0.00  0.00    -0.047 A 
ATOM     14  C   UNL     1      -0.595 -12.246  -3.848  0.00  0.00    +0.007 A 
ATOM     15  C   UNL     1      -0.843 -10.903  -4.021  0.00  0.00    +0.047 A 
ATOM     16  C   UNL     1      -1.083 -10.088  -2.915  0.00  0.00    +0.139 A 
ATOM     17  O   UNL     1      -1.334  -8.773  -3.110  0.00  0.00    -0.450 OA
ATOM     18  C   UNL     1      -1.340  -7.933  -2.056  0.00  0.00    +0.199 A 
ATOM     19  C   UNL     1      -1.362  -6.460  -2.044  0.00  0.00    +0.289 C 
ATOM     20  O   UNL     1      -1.375  -5.756  -3.034  0.00  0.00    -0.266 OA
ENDROOT
BRANCH   7  21
ATOM     21  C   UNL     1      -0.118  -7.147   0.993  0.00  0.00    -0.022 A 
ATOM     22  C   UNL     1       1.089  -6.727   0.464  0.00  0.00    +0.009 A 
ATOM     23  C   UNL     1       2.220  -6.703   1.256  0.00  0.00    +0.046 A 
ATOM     24  C   UNL     1       2.145  -7.100   2.584  0.00  0.00    +0.121 A 
ATOM     25  C   UNL     1       0.933  -7.520   3.112  0.00  0.00    +0.046 A 
ATOM     26  C   UNL     1      -0.197  -7.537   2.317  0.00  0.00    +0.009 A 
BRANCH  24  27
ATOM     27  O   UNL     1       3.256  -7.078   3.365  0.00  0.00    -0.483 OA
BRANCH  27  28
ATOM     28  C   UNL     1       3.104  -7.500   4.722  0.00  0.00    +0.324 C 
BRANCH  28  29
ATOM     29  C   UNL     1       4.433  -7.409   5.428  0.00  0.00    +0.248 C 
ATOM     30  O   UNL     1       5.413  -7.020   4.829  0.00  0.00    -0.272 OA
ATOM     31  N   UNL     1       4.531  -7.758   6.726  0.00  0.00    -0.327 N 
ATOM     32  H   UNL     1       3.747  -8.069   7.205  0.00  0.00    +0.145 HD
ATOM     33  H   UNL     1       5.386  -7.699   7.181  0.00  0.00    +0.145 HD
ENDBRANCH  28  29
ENDBRANCH  27  28
ENDBRANCH  24  27
ENDBRANCH   7  21
BRANCH  13  34
ATOM     34  C   UNL     1      -0.306 -14.280  -2.412  0.00  0.00    +0.032 C 
ATOM     35  C   UNL     1      -1.627 -15.051  -2.458  0.00  0.00    +0.009 C 
ENDBRANCH  13  34
BRANCH   1  36
ATOM     36  C   UNL     1      -1.433  -0.534   0.013  0.00  0.00    +0.064 C 
BRANCH  36  38
ATOM     37  C   UNL     1      -0.019   1.526   0.010  0.00  0.00    +0.004 C 
ATOM     38  C   UNL     1       0.002  -0.004   0.002  0.00  0.00    +0.003 C 
ENDBRANCH  36  38
ENDBRANCH   1  36
TORSDOF 7
