REMARK  Name = ZINC50902984
REMARK  8 active torsions:
REMARK  status: ('A' for Active; 'I' for Inactive)
REMARK    1  A    between atoms: C_1  and  C_2
REMARK    2  A    between atoms: C_2  and  C_4
REMARK    3  A    between atoms: C_2  and  N_14
REMARK    4  A    between atoms: N_6  and  N_7
REMARK    5  A    between atoms: N_7  and  C_8
REMARK    6  A    between atoms: C_8  and  N_10
REMARK    7  A    between atoms: N_10  and  C_11
REMARK    8  A    between atoms: C_15  and  C_17
REMARK                            x       y       z     vdW  Elec       q    Type
REMARK                         _______ _______ _______ _____ _____    ______ ____
ROOT
ATOM      1  C   UNL     1       0.731  -0.503   1.223  0.00  0.00    +0.249 C 
ATOM      2  O   UNL     1       0.159  -1.213   2.023  0.00  0.00    -0.272 OA
ATOM      3  N   UNL     1       2.019  -0.161   1.426  0.00  0.00    -0.234 N 
ATOM      4  H   UNL     1       2.476   0.406   0.786  0.00  0.00    +0.173 HD
ENDROOT
BRANCH   1   6
ATOM      5  C   UNL     1      -0.019   1.526   0.010  0.00  0.00    +0.038 C 
ATOM      6  C   UNL     1       0.002  -0.004   0.002  0.00  0.00    +0.158 C 
BRANCH   6   7
ATOM      7  N   UNL     1      -1.372  -0.511   0.012  0.00  0.00    -0.300 N 
ATOM      8  C   UNL     1      -2.051  -0.643  -1.145  0.00  0.00    +0.251 C 
ATOM      9  O   UNL     1      -1.522  -0.340  -2.198  0.00  0.00    -0.270 OA
ATOM     10  H   UNL     1      -1.794  -0.752   0.852  0.00  0.00    +0.150 HD
BRANCH   8  11
ATOM     11  C   UNL     1      -3.425  -1.150  -1.134  0.00  0.00    +0.075 A 
ATOM     12  C   UNL     1      -4.286  -1.364  -2.200  0.00  0.00    +0.022 A 
ATOM     13  C   UNL     1      -5.528  -1.853  -1.876  0.00  0.00    +0.024 A 
ATOM     14  C   UNL     1      -5.824  -2.087  -0.572  0.00  0.00    +0.056 A 
ATOM     15  S   UNL     1      -4.424  -1.660   0.251  0.00  0.00    -0.077 S 
ATOM     16 BR   UNL     1      -7.441  -2.752   0.150  0.00  0.00    -0.043 Br
ENDBRANCH   8  11
ENDBRANCH   6   7
ENDBRANCH   1   6
BRANCH   3  17
ATOM     17  N   UNL     1       2.696  -0.625   2.561  0.00  0.00    -0.246 N 
ATOM     18  H   UNL     1       2.239  -1.193   3.201  0.00  0.00    +0.172 HD
BRANCH  17  19
ATOM     19  C   UNL     1       3.984  -0.283   2.764  0.00  0.00    +0.147 C 
ATOM     20  S   UNL     1       4.812  -0.851   4.151  0.00  0.00    -0.017 S 
BRANCH  19  21
ATOM     21  N   UNL     1       4.620   0.505   1.875  0.00  0.00    -0.323 N 
ATOM     22  H   UNL     1       4.151   0.826   1.089  0.00  0.00    +0.148 HD
BRANCH  21  23
ATOM     23  C   UNL     1       6.020   0.877   2.095  0.00  0.00    +0.072 C 
ATOM     24  C   UNL     1       6.412   2.334   1.843  0.00  0.00    +0.024 C 
ATOM     25  C   UNL     1       6.856   1.242   0.867  0.00  0.00    +0.024 C 
ENDBRANCH  21  23
ENDBRANCH  19  21
ENDBRANCH  17  19
ENDBRANCH   3  17
TORSDOF 7
