REMARK  Name = ZINC03252234
REMARK  5 active torsions:
REMARK  status: ('A' for Active; 'I' for Inactive)
REMARK    1  A    between atoms: C_1  and  C_2
REMARK    2  A    between atoms: N_16  and  N_17
REMARK    3  A    between atoms: C_18  and  C_19
REMARK    4  A    between atoms: C_22  and  O_26
REMARK    5  A    between atoms: C_23  and  O_25
REMARK                            x       y       z     vdW  Elec       q    Type
REMARK                         _______ _______ _______ _____ _____    ______ ____
ROOT
ATOM      1  C   UNL     1      -0.883  -4.820   0.115  0.00  0.00    +0.088 C 
ATOM      2  C   UNL     1      -2.261  -4.210   0.108  0.00  0.00    +0.133 A 
ATOM      3  N   UNL     1      -3.309  -4.990   0.162  0.00  0.00    -0.225 NA
ATOM      4  C   UNL     1      -4.538  -4.483   0.151  0.00  0.00    +0.116 A 
ATOM      5  C   UNL     1      -4.773  -3.101   0.087  0.00  0.00    +0.077 A 
ATOM      6  C   UNL     1      -6.178  -2.684   0.078  0.00  0.00    -0.023 A 
ATOM      7  C   UNL     1      -7.102  -3.666   0.144  0.00  0.00    -0.004 A 
ATOM      8  S   UNL     1      -6.171  -5.175   0.204  0.00  0.00    -0.073 S 
ATOM      9  C   UNL     1      -8.592  -3.524   0.167  0.00  0.00    +0.043 C 
ATOM     10  C   UNL     1      -9.029  -2.586  -0.966  0.00  0.00    +0.005 C 
ATOM     11  C   UNL     1      -9.034  -1.157  -0.433  0.00  0.00    +0.001 C 
ATOM     12  C   UNL     1      -7.931  -0.984   0.609  0.00  0.00    +0.005 C 
ATOM     13  C   UNL     1      -6.561  -1.210  -0.019  0.00  0.00    +0.037 C 
ATOM     14  C   UNL     1      -3.605  -2.273   0.036  0.00  0.00    +0.283 A 
ATOM     15  O   UNL     1      -3.707  -1.060  -0.022  0.00  0.00    -0.265 OA
ATOM     16  N   UNL     1      -2.392  -2.858   0.051  0.00  0.00    -0.182 N 
ENDROOT
BRANCH  16  17
ATOM     17  N   UNL     1      -1.243  -2.058   0.002  0.00  0.00    -0.170 NA
ATOM     18  C   UNL     1      -0.960  -1.268   0.993  0.00  0.00    +0.141 C 
BRANCH  18  19
ATOM     19  C   UNL     1       0.184  -0.344   0.894  0.00  0.00    -0.002 A 
ATOM     20  C   UNL     1       0.965  -0.317  -0.264  0.00  0.00    +0.013 A 
ATOM     21  C   UNL     1       2.034   0.548  -0.355  0.00  0.00    +0.050 A 
ATOM     22  C   UNL     1       2.338   1.393   0.703  0.00  0.00    +0.158 A 
ATOM     23  C   UNL     1       1.564   1.372   1.861  0.00  0.00    +0.159 A 
ATOM     24  C   UNL     1       0.491   0.507   1.960  0.00  0.00    +0.058 A 
BRANCH  23  25
ATOM     25  O   UNL     1       1.865   2.202   2.896  0.00  0.00    -0.503 OA
ATOM     26  H   UNL     1       2.482   1.823   3.537  0.00  0.00    +0.292 HD
ENDBRANCH  23  25
BRANCH  22  27
ATOM     27  O   UNL     1       3.394   2.245   0.609  0.00  0.00    -0.503 OA
ATOM     28  H   UNL     1       3.170   3.110   0.239  0.00  0.00    +0.292 HD
ENDBRANCH  22  27
ENDBRANCH  18  19
ENDBRANCH  16  17
TORSDOF 4
