REMARK  Name = ZINC29086258
REMARK  5 active torsions:
REMARK  status: ('A' for Active; 'I' for Inactive)
REMARK    1  A    between atoms: C_1  and  N_2
REMARK    2  A    between atoms: C_6  and  C_7
REMARK    3  A    between atoms: C_7  and  C_9
REMARK    4  A    between atoms: C_7  and  N_16
REMARK    5  A    between atoms: C_17  and  C_19
REMARK                            x       y       z     vdW  Elec       q    Type
REMARK                         _______ _______ _______ _____ _____    ______ ____
ROOT
ATOM      1  N   UNL     1      -2.462   1.355   0.021  0.00  0.00    -0.296 N 
ATOM      2  C   UNL     1      -1.299   2.036   0.019  0.00  0.00    +0.266 C 
ATOM      3  O   UNL     1      -1.307   3.252   0.026  0.00  0.00    -0.268 OA
ATOM      4  H   UNL     1      -2.454   0.255   0.015  0.00  0.00    +0.150 HD
ENDROOT
BRANCH   2   5
ATOM      5  C   UNL     1      -0.016   1.307   0.009  0.00  0.00    +0.153 A 
ATOM      6  C   UNL     1       1.259   2.042   0.001  0.00  0.00    +0.020 A 
ATOM      7  C   UNL     1       1.327   3.431   0.007  0.00  0.00    +0.011 A 
ATOM      8  C   UNL     1       2.560   4.048  -0.001  0.00  0.00    +0.001 A 
ATOM      9  C   UNL     1       3.730   3.300  -0.016  0.00  0.00    +0.001 A 
ATOM     10  C   UNL     1       3.685   1.922  -0.022  0.00  0.00    +0.014 A 
ATOM     11  C   UNL     1       2.450   1.280  -0.014  0.00  0.00    +0.050 A 
ATOM     12  C   UNL     1       2.311  -0.182  -0.021  0.00  0.00    +0.272 A 
ATOM     13  O   UNL     1       3.293  -0.902  -0.034  0.00  0.00    -0.266 OA
ATOM     14  N   UNL     1       1.069  -0.710  -0.012  0.00  0.00    -0.242 N 
ATOM     15  H   UNL     1       0.935  -1.802  -0.017  0.00  0.00    +0.192 HD
ATOM     16  N   UNL     1       0.002  -0.004   0.002  0.00  0.00    -0.166 NA
ENDBRANCH   2   5
BRANCH   1  17
ATOM     17  C   UNL     1      -3.735   2.079   0.031  0.00  0.00    +0.172 C 
BRANCH  17  18
ATOM     18  C   UNL     1      -4.811   1.210  -0.569  0.00  0.00    +0.015 A 
ATOM     19  C   UNL     1      -4.682  -0.165  -0.547  0.00  0.00    +0.009 A 
ATOM     20  C   UNL     1      -5.669  -0.962  -1.097  0.00  0.00    +0.001 A 
ATOM     21  C   UNL     1      -6.787  -0.383  -1.669  0.00  0.00    +0.003 A 
ATOM     22  C   UNL     1      -6.918   0.992  -1.693  0.00  0.00    +0.039 A 
ATOM     23  C   UNL     1      -5.932   1.791  -1.137  0.00  0.00    +0.129 A 
ATOM     24  F   UNL     1      -6.062   3.135  -1.155  0.00  0.00    -0.205 F 
ENDBRANCH  17  18
BRANCH  17  30
ATOM     25  C   UNL     1      -4.780   4.814   1.045  0.00  0.00    +0.150 C 
ATOM     26  N   UNL     1      -4.558   3.626   1.874  0.00  0.00    -0.336 N 
ATOM     27  C   UNL     1      -4.776   3.523   3.221  0.00  0.00    +0.106 A 
ATOM     28  C   UNL     1      -4.439   2.269   3.576  0.00  0.00    +0.130 A 
ATOM     29  N   UNL     1      -4.032   1.621   2.474  0.00  0.00    -0.238 NA
ATOM     30  C   UNL     1      -4.104   2.427   1.450  0.00  0.00    +0.134 A 
ENDBRANCH  17  30
ENDBRANCH   1  17
TORSDOF 4
