REMARK  Name = ZINC02246109
REMARK  6 active torsions:
REMARK  status: ('A' for Active; 'I' for Inactive)
REMARK    1  A    between atoms: C_9  and  C_21
REMARK    2  A    between atoms: C_10  and  N_20
REMARK    3  A    between atoms: N_11  and  C_14
REMARK    4  A    between atoms: C_14  and  C_15
REMARK    5  A    between atoms: N_23  and  C_24
REMARK    6  A    between atoms: C_24  and  C_25
REMARK                            x       y       z     vdW  Elec       q    Type
REMARK                         _______ _______ _______ _____ _____    ______ ____
ROOT
ATOM      1  C   UNL     1       3.533   3.270   5.525  0.00  0.00    +0.002 A 
ATOM      2  C   UNL     1       4.644   3.938   5.012  0.00  0.00    +0.002 A 
ATOM      3  C   UNL     1       4.827   4.062   3.670  0.00  0.00    +0.030 A 
ATOM      4  C   UNL     1       3.887   3.510   2.780  0.00  0.00    +0.092 A 
ATOM      5  C   UNL     1       2.757   2.831   3.303  0.00  0.00    +0.090 A 
ATOM      6  C   UNL     1       2.602   2.723   4.697  0.00  0.00    +0.030 A 
ATOM      7  N   UNL     1       1.848   2.296   2.479  0.00  0.00    -0.241 NA
ATOM      8  C   UNL     1       2.006   2.411   1.175  0.00  0.00    +0.122 A 
ATOM      9  C   UNL     1       1.241   1.961   0.001  0.00  0.00    +0.103 A 
ATOM     10  C   UNL     1       1.946   2.393  -1.118  0.00  0.00    +0.113 A 
ATOM     11  N   UNL     1       3.071   3.060  -0.743  0.00  0.00    -0.305 N 
ATOM     12  C   UNL     1       3.175   3.108   0.633  0.00  0.00    +0.162 A 
ATOM     13  N   UNL     1       4.060   3.627   1.458  0.00  0.00    -0.226 NA
ENDROOT
BRANCH   9  14
ATOM     14  C   UNL     1      -0.014   1.214   0.009  0.00  0.00    +0.250 C 
ATOM     15  O   UNL     1       0.002  -0.004   0.002  0.00  0.00    -0.270 OA
ATOM     16  N   UNL     1      -1.191   1.871   0.018  0.00  0.00    -0.307 N 
ATOM     17  H   UNL     1      -1.204   2.841   0.023  0.00  0.00    +0.149 HD
BRANCH  16  18
ATOM     18  C   UNL     1      -2.449   1.122   0.020  0.00  0.00    +0.139 C 
BRANCH  18  19
ATOM     19  C   UNL     1      -3.608   2.085   0.030  0.00  0.00    -0.030 A 
ATOM     20  C   UNL     1      -4.137   2.516   1.233  0.00  0.00    +0.006 A 
ATOM     21  C   UNL     1      -5.196   3.405   1.243  0.00  0.00    +0.020 A 
ATOM     22  C   UNL     1      -5.734   3.853   0.050  0.00  0.00    +0.041 A 
ATOM     23  C   UNL     1      -5.207   3.417  -1.153  0.00  0.00    +0.020 A 
ATOM     24  C   UNL     1      -4.145   2.534  -1.162  0.00  0.00    +0.006 A 
ATOM     25 CL   UNL     1      -7.068   4.964   0.063  0.00  0.00    -0.084 Cl
ENDBRANCH  18  19
ENDBRANCH  16  18
ENDBRANCH   9  14
BRANCH  10  26
ATOM     26  N   UNL     1       1.561   2.178  -2.415  0.00  0.00    -0.344 N 
ATOM     27  H   UNL     1       0.743   1.692  -2.604  0.00  0.00    +0.144 HD
ATOM     28  H   UNL     1       2.106   2.511  -3.145  0.00  0.00    +0.144 HD
ENDBRANCH  10  26
BRANCH  11  29
ATOM     29  C   UNL     1       4.039   3.648  -1.672  0.00  0.00    +0.199 C 
BRANCH  29  30
ATOM     30  C   UNL     1       3.643   5.069  -1.977  0.00  0.00    +0.125 A 
ATOM     31  C   UNL     1       4.030   6.159  -1.290  0.00  0.00    +0.046 A 
ATOM     32  C   UNL     1       3.431   7.274  -1.919  0.00  0.00    +0.041 A 
ATOM     33  C   UNL     1       2.706   6.799  -2.948  0.00  0.00    +0.195 A 
ATOM     34  O   UNL     1       2.839   5.463  -2.978  0.00  0.00    -0.466 OA
ENDBRANCH  29  30
ENDBRANCH  11  29
TORSDOF 6
