REMARK  Name = ZINC64643593
REMARK  9 active torsions:
REMARK  status: ('A' for Active; 'I' for Inactive)
REMARK    1  A    between atoms: C_2  and  C_3
REMARK    2  A    between atoms: C_3  and  N_4
REMARK    3  A    between atoms: C_5  and  C_7
REMARK    4  A    between atoms: C_7  and  C_8
REMARK    5  A    between atoms: C_8  and  N_9
REMARK    6  A    between atoms: N_12  and  C_13
REMARK    7  A    between atoms: C_13  and  C_14
REMARK    8  A    between atoms: C_14  and  C_15
REMARK    9  A    between atoms: C_14  and  C_21
REMARK                            x       y       z     vdW  Elec       q    Type
REMARK                         _______ _______ _______ _____ _____    ______ ____
ROOT
ATOM      1  C   UNL     1       7.601   9.359  -0.020  0.00  0.00    +0.068 C 
ENDROOT
BRANCH   1   2
ATOM      2  C   UNL     1       7.856  10.839  -0.139  0.00  0.00    -0.013 A 
ATOM      3  C   UNL     1       7.460  11.789   0.723  0.00  0.00    +0.088 A 
ATOM      4  N   UNL     1       7.874  13.018   0.286  0.00  0.00    -0.360 N 
ATOM      5  H   UNL     1       7.705  13.857   0.742  0.00  0.00    +0.165 HD
ATOM      6  C   UNL     1       8.564  12.885  -0.898  0.00  0.00    +0.047 A 
ATOM      7  C   UNL     1       8.589  11.514  -1.212  0.00  0.00    +0.003 A 
ATOM      8  C   UNL     1       9.235  11.077  -2.370  0.00  0.00    +0.010 A 
ATOM      9  C   UNL     1       9.843  11.984  -3.192  0.00  0.00    +0.001 A 
ATOM     10  C   UNL     1       9.825  13.337  -2.884  0.00  0.00    +0.002 A 
ATOM     11  C   UNL     1       9.186  13.791  -1.751  0.00  0.00    +0.026 A 
ENDBRANCH   1   2
BRANCH   1  12
ATOM     12  C   UNL     1       8.210   8.845   1.259  0.00  0.00    -0.038 A 
ATOM     13  C   UNL     1       7.790   9.349   2.476  0.00  0.00    +0.004 A 
ATOM     14  C   UNL     1       8.349   8.878   3.649  0.00  0.00    +0.000 A 
ATOM     15  C   UNL     1       9.326   7.902   3.606  0.00  0.00    +0.000 A 
ATOM     16  C   UNL     1       9.745   7.396   2.389  0.00  0.00    +0.000 A 
ATOM     17  C   UNL     1       9.184   7.865   1.216  0.00  0.00    +0.004 A 
ENDBRANCH   1  12
BRANCH   1  18
ATOM     18  C   UNL     1       6.093   9.100  -0.007  0.00  0.00    +0.118 C 
BRANCH  18  22
ATOM     19  N   UNL     1       4.352   5.862  -0.008  0.00  0.00    -0.299 N 
ATOM     20  C   UNL     1       4.580   7.190  -0.003  0.00  0.00    +0.300 C 
ATOM     21  O   UNL     1       3.646   7.967   0.010  0.00  0.00    -0.253 OA
ATOM     22  N   UNL     1       5.845   7.657  -0.013  0.00  0.00    -0.299 N 
ATOM     23  H   UNL     1       5.098   5.241  -0.018  0.00  0.00    +0.150 HD
ATOM     24  H   UNL     1       6.591   7.036  -0.023  0.00  0.00    +0.150 HD
BRANCH  19  25
ATOM     25  C   UNL     1       2.978   5.355   0.002  0.00  0.00    +0.115 C 
BRANCH  25  26
ATOM     26  C   UNL     1       2.999   3.825  -0.006  0.00  0.00    +0.114 C 
BRANCH  26  28
ATOM     27  N   UNL     1       1.357   1.975  -0.000  0.00  0.00    -0.304 N 
ATOM     28  C   UNL     1       1.585   3.303   0.005  0.00  0.00    +0.215 C 
ATOM     29  O   UNL     1       0.652   4.079   0.018  0.00  0.00    -0.276 OA
ATOM     30  H   UNL     1       2.102   1.355  -0.011  0.00  0.00    +0.150 HD
BRANCH  27  31
ATOM     31  C   UNL     1      -0.018   1.468   0.010  0.00  0.00    +0.193 C 
BRANCH  31  33
ATOM     32  C   UNL     1       0.018  -1.178  -0.004  0.00  0.00    +0.005 C 
ATOM     33  C   UNL     1       0.002  -0.004   0.002  0.00  0.00    -0.087 C 
ENDBRANCH  31  33
ENDBRANCH  27  31
ENDBRANCH  26  28
ENDBRANCH  25  26
ENDBRANCH  19  25
ENDBRANCH  18  22
ENDBRANCH   1  18
TORSDOF 9
