REMARK  Name = ZINC65781508
REMARK  8 active torsions:
REMARK  status: ('A' for Active; 'I' for Inactive)
REMARK    1  A    between atoms: C_1  and  C_2
REMARK    2  A    between atoms: C_11  and  C_14
REMARK    3  A    between atoms: C_14  and  N_15
REMARK    4  A    between atoms: C_16  and  C_18
REMARK    5  A    between atoms: C_18  and  C_19
REMARK    6  A    between atoms: C_18  and  C_20
REMARK    7  A    between atoms: C_18  and  N_21
REMARK    8  A    between atoms: N_24  and  C_25
REMARK                            x       y       z     vdW  Elec       q    Type
REMARK                         _______ _______ _______ _____ _____    ______ ____
ROOT
ATOM      1  C   UNL     1      -2.510  -6.333   4.759  0.00  0.00    +0.141 C 
ENDROOT
BRANCH   1  12
ATOM      2  C   UNL     1       1.516  -1.759  -2.543  0.00  0.00    +0.007 C 
ATOM      3  C   UNL     1       0.744  -1.592  -1.232  0.00  0.00    -0.011 C 
ATOM      4  C   UNL     1       1.541  -2.221  -0.087  0.00  0.00    +0.022 C 
ATOM      5  C   UNL     1       0.782  -2.021   1.228  0.00  0.00    +0.107 C 
ATOM      6  N   UNL     1      -0.578  -2.556   1.075  0.00  0.00    -0.317 N 
ATOM      7  C   UNL     1      -1.400  -2.086  -0.049  0.00  0.00    +0.107 C 
ATOM      8  C   UNL     1      -0.616  -2.284  -1.350  0.00  0.00    +0.022 C 
ATOM      9  C   UNL     1      -1.078  -3.489   1.976  0.00  0.00    +0.099 A 
ATOM     10  C   UNL     1      -2.408  -3.889   1.888  0.00  0.00    +0.042 A 
ATOM     11  C   UNL     1      -2.892  -4.819   2.790  0.00  0.00    +0.010 A 
ATOM     12  C   UNL     1      -2.026  -5.319   3.755  0.00  0.00    -0.014 A 
ATOM     13  C   UNL     1      -0.719  -4.878   3.784  0.00  0.00    +0.089 A 
ATOM     14  N   UNL     1      -0.283  -3.994   2.906  0.00  0.00    -0.349 N 
ATOM     15  H   UNL     1       0.642  -3.704   2.947  0.00  0.00    +0.167 HD
ENDBRANCH   1  12
BRANCH   1  16
ATOM     16  N   UNL     1      -2.304  -7.683   4.228  0.00  0.00    -0.309 N 
ATOM     17  C   UNL     1      -2.664  -8.757   4.959  0.00  0.00    +0.236 C 
ATOM     18  O   UNL     1      -3.160  -8.605   6.055  0.00  0.00    -0.273 OA
ATOM     19  H   UNL     1      -1.907  -7.804   3.351  0.00  0.00    +0.149 HD
BRANCH  17  20
ATOM     20  C   UNL     1      -2.452 -10.145   4.413  0.00  0.00    +0.106 C 
ATOM     21  C   UNL     1      -1.024 -10.600   4.719  0.00  0.00    +0.041 C 
ATOM     22  C   UNL     1      -3.445 -11.108   5.067  0.00  0.00    +0.041 C 
BRANCH  20  23
ATOM     23  N   UNL     1      -2.662 -10.137   2.963  0.00  0.00    -0.286 N 
ATOM     24  C   UNL     1      -2.525 -11.277   2.256  0.00  0.00    +0.300 C 
ATOM     25  O   UNL     1      -2.227 -12.311   2.822  0.00  0.00    -0.253 OA
ATOM     26  N   UNL     1      -2.718 -11.270   0.922  0.00  0.00    -0.302 N 
ATOM     27  C   UNL     1      -2.569 -12.508   0.154  0.00  0.00    +0.129 C 
ATOM     28  H   UNL     1      -2.900  -9.312   2.512  0.00  0.00    +0.151 HD
ATOM     29  H   UNL     1      -2.956 -10.444   0.471  0.00  0.00    +0.150 HD
ENDBRANCH  20  23
ENDBRANCH  17  20
ENDBRANCH   1  16
TORSDOF 4
