REMARK  Name = ZINC12348480
REMARK  8 active torsions:
REMARK  status: ('A' for Active; 'I' for Inactive)
REMARK    1  A    between atoms: C_1  and  O_2
REMARK    2  A    between atoms: O_2  and  C_3
REMARK    3  A    between atoms: C_5  and  C_13
REMARK    4  A    between atoms: C_6  and  O_11
REMARK    5  A    between atoms: C_8  and  O_9
REMARK    6  A    between atoms: O_9  and  C_10
REMARK    7  A    between atoms: O_11  and  C_12
REMARK    8  A    between atoms: C_20  and  O_21
REMARK                            x       y       z     vdW  Elec       q    Type
REMARK                         _______ _______ _______ _____ _____    ______ ____
ROOT
ATOM      1  C   UNL     1       1.525   0.036   6.149  0.00  0.00    +0.096 C 
ATOM      2  C   UNL     1       0.513  -0.756   6.926  0.00  0.00    +0.067 A 
ATOM      3  C   UNL     1      -0.154  -0.238   8.004  0.00  0.00    +0.126 A 
ATOM      4  N   UNL     1      -0.985  -1.189   8.471  0.00  0.00    -0.260 N 
ATOM      5  H   UNL     1      -1.603  -1.101   9.252  0.00  0.00    +0.190 HD
ATOM      6  N   UNL     1      -0.826  -2.328   7.664  0.00  0.00    -0.134 NA
ATOM      7  C   UNL     1       0.072  -2.063   6.741  0.00  0.00    +0.237 A 
ATOM      8  N   UNL     1       0.079   1.060   8.445  0.00  0.00    -0.303 N 
ATOM      9  C   UNL     1       1.194   1.716   7.986  0.00  0.00    +0.017 C 
ATOM     10  C   UNL     1       1.909   1.276   6.928  0.00  0.00    +0.024 C 
ATOM     11  C   UNL     1       3.061   1.960   6.501  0.00  0.00    +0.162 C 
ATOM     12  O   UNL     1       3.680   1.540   5.543  0.00  0.00    -0.292 OA
ATOM     13  C   UNL     1       3.544   3.200   7.200  0.00  0.00    +0.080 C 
ATOM     14  C   UNL     1       3.114   3.141   8.670  0.00  0.00    +0.014 C 
ATOM     15  C   UNL     1       1.593   2.977   8.718  0.00  0.00    +0.051 C 
ATOM     16  H   UNL     1      -0.531   1.491   9.063  0.00  0.00    +0.153 HD
ENDROOT
BRANCH   1  19
ATOM     17  C   UNL     1      -0.749   1.596   3.566  0.00  0.00    +0.162 A 
ATOM     18  C   UNL     1      -0.204   1.223   4.784  0.00  0.00    +0.057 A 
ATOM     19  C   UNL     1       0.935   0.441   4.822  0.00  0.00    +0.010 A 
ATOM     20  C   UNL     1       1.535   0.027   3.642  0.00  0.00    +0.128 A 
ATOM     21  C   UNL     1       0.990   0.393   2.421  0.00  0.00    +0.095 A 
ATOM     22  C   UNL     1      -0.148   1.182   2.380  0.00  0.00    +0.165 A 
BRANCH  17  24
ATOM     23  C   UNL     1      -2.433   2.753   4.783  0.00  0.00    +0.277 C 
ATOM     24  O   UNL     1      -1.870   2.365   3.528  0.00  0.00    -0.491 OA
ENDBRANCH  17  24
BRANCH  22  25
ATOM     25  O   UNL     1      -0.682   1.547   1.184  0.00  0.00    -0.491 OA
ATOM     26  C   UNL     1      -0.013   1.086   0.008  0.00  0.00    +0.277 C 
ENDBRANCH  22  25
BRANCH  20  27
ATOM     27  O   UNL     1       2.655  -0.742   3.683  0.00  0.00    -0.495 OA
ATOM     28  C   UNL     1       3.221  -1.132   2.430  0.00  0.00    +0.277 C 
ENDBRANCH  20  27
ENDBRANCH   1  19
BRANCH   7  29
ATOM     29  O   UNL     1       0.496  -2.918   5.772  0.00  0.00    -0.491 OA
ATOM     30  H   UNL     1       0.018  -3.791   5.866  0.00  0.00    +0.294 HD
ENDBRANCH   7  29
TORSDOF 5
