REMARK  Name = ZINC42678126
REMARK  3 active torsions:
REMARK  status: ('A' for Active; 'I' for Inactive)
REMARK    1  A    between atoms: C_5  and  C_7
REMARK    2  A    between atoms: C_10  and  S_13
REMARK    3  A    between atoms: S_13  and  C_14
REMARK                            x       y       z     vdW  Elec       q    Type
REMARK                         _______ _______ _______ _____ _____    ______ ____
ROOT
ATOM      1  C   UNL     1       1.245  -2.166  -0.022  0.00  0.00    +0.185 A 
ATOM      2  N   UNL     1       0.169  -2.964  -0.016  0.00  0.00    -0.200 NA
ATOM      3  H   UNL     1       2.467  -5.037  -0.053  0.00  0.00    +0.191 HD
ATOM      4  C   UNL     1       0.551  -4.222  -0.028  0.00  0.00    +0.191 A 
ATOM      5  N   UNL     1       1.902  -4.249  -0.042  0.00  0.00    -0.253 N 
ATOM      6  N   UNL     1       2.327  -2.911  -0.043  0.00  0.00    -0.151 NA
ENDROOT
BRANCH   1  11
ATOM      7  C   UNL     1      -0.017   1.376   0.010  0.00  0.00    +0.001 A 
ATOM      8  C   UNL     1       1.170   2.087   0.002  0.00  0.00    +0.003 A 
ATOM      9  C   UNL     1       2.382   1.422  -0.013  0.00  0.00    +0.039 A 
ATOM     10  C   UNL     1       2.413   0.040  -0.021  0.00  0.00    +0.134 A 
ATOM     11  C   UNL     1       1.219  -0.682  -0.013  0.00  0.00    +0.056 A 
ATOM     12  C   UNL     1       0.002  -0.004   0.002  0.00  0.00    +0.014 A 
ATOM     13  F   UNL     1       3.598  -0.611  -0.037  0.00  0.00    -0.205 F 
ENDBRANCH   1  11
BRANCH   4  14
ATOM     14  S   UNL     1      -0.512  -5.627  -0.024  0.00  0.00    -0.029 S 
BRANCH  14  15
ATOM     15  C   UNL     1      -2.132  -4.936  -0.003  0.00  0.00    +0.127 A 
ATOM     16  C   UNL     1      -3.252  -5.787   0.010  0.00  0.00    +0.041 A 
ATOM     17  C   UNL     1      -4.507  -5.264   0.027  0.00  0.00    +0.054 A 
ATOM     18  C   UNL     1      -4.667  -3.866   0.031  0.00  0.00    +0.200 A 
ATOM     19  N   UNL     1      -5.719  -3.059   0.045  0.00  0.00    -0.107 NA
ATOM     20  N   UNL     1      -5.336  -1.831   0.043  0.00  0.00    -0.021 NA
ATOM     21  N   UNL     1      -4.048  -1.753   0.027  0.00  0.00    -0.021 NA
ATOM     22  N   UNL     1      -3.558  -3.065   0.019  0.00  0.00    -0.109 N 
ATOM     23  N   UNL     1      -2.282  -3.629   0.006  0.00  0.00    -0.139 NA
ENDBRANCH  14  15
ENDBRANCH   4  14
TORSDOF 3
