REMARK  Name = ZINC36005687
REMARK  8 active torsions:
REMARK  status: ('A' for Active; 'I' for Inactive)
REMARK    1  A    between atoms: C_1  and  C_2
REMARK    2  A    between atoms: C_2  and  N_3
REMARK    3  A    between atoms: N_6  and  C_7
REMARK    4  A    between atoms: N_6  and  C_8
REMARK    5  A    between atoms: C_8  and  C_9
REMARK    6  A    between atoms: C_11  and  C_14
REMARK    7  A    between atoms: C_16  and  C_21
REMARK    8  A    between atoms: C_19  and  C_20
REMARK                            x       y       z     vdW  Elec       q    Type
REMARK                         _______ _______ _______ _____ _____    ______ ____
ROOT
ATOM      1  C   UNL     1      -3.185  -4.253   1.431  0.00  0.00    +0.101 A 
ATOM      2  C   UNL     1      -4.356  -4.432   2.180  0.00  0.00    +0.077 A 
ATOM      3  C   UNL     1      -4.002  -4.899   3.408  0.00  0.00    +0.168 A 
ATOM      4  O   UNL     1      -2.660  -5.010   3.433  0.00  0.00    -0.354 OA
ATOM      5  N   UNL     1      -2.168  -4.601   2.170  0.00  0.00    -0.081 NA
ENDROOT
BRANCH   3   6
ATOM      6  C   UNL     1      -4.924  -5.226   4.517  0.00  0.00    +0.023 A 
ATOM      7  C   UNL     1      -5.903  -4.311   4.907  0.00  0.00    +0.015 A 
ATOM      8  C   UNL     1      -6.760  -4.622   5.942  0.00  0.00    -0.050 A 
ATOM      9  C   UNL     1      -6.651  -5.838   6.593  0.00  0.00    +0.003 A 
ATOM     10  C   UNL     1      -5.684  -6.750   6.210  0.00  0.00    +0.004 A 
ATOM     11  C   UNL     1      -4.824  -6.454   5.173  0.00  0.00    -0.040 A 
ATOM     12  C   UNL     1      -3.774  -7.450   4.753  0.00  0.00    +0.044 C 
ATOM     13  C   UNL     1      -7.817  -3.635   6.365  0.00  0.00    +0.044 C 
ENDBRANCH   3   6
BRANCH   1  14
ATOM     14  C   UNL     1      -3.113  -3.750   0.012  0.00  0.00    +0.167 C 
BRANCH  14  18
ATOM     15  N   UNL     1      -1.372  -0.511   0.012  0.00  0.00    -0.300 N 
ATOM     16  C   UNL     1      -1.601  -1.839   0.007  0.00  0.00    +0.302 C 
ATOM     17  O   UNL     1      -0.666  -2.617  -0.006  0.00  0.00    -0.253 OA
ATOM     18  N   UNL     1      -2.865  -2.306   0.017  0.00  0.00    -0.283 N 
ATOM     19  C   UNL     1      -3.991  -1.369   0.033  0.00  0.00    +0.134 C 
ATOM     20  H   UNL     1      -2.118   0.109   0.023  0.00  0.00    +0.150 HD
BRANCH  15  22
ATOM     21  C   UNL     1      -0.019   1.526   0.010  0.00  0.00    +0.024 C 
ATOM     22  C   UNL     1       0.002  -0.004   0.002  0.00  0.00    +0.102 C 
ENDBRANCH  15  22
ENDBRANCH  14  18
ENDBRANCH   1  14
TORSDOF 4
