REMARK  Name = ZINC37725355
REMARK  9 active torsions:
REMARK  status: ('A' for Active; 'I' for Inactive)
REMARK    1  A    between atoms: C_1  and  C_2
REMARK    2  A    between atoms: C_2  and  C_4
REMARK    3  A    between atoms: C_2  and  N_20
REMARK    4  A    between atoms: C_4  and  C_5
REMARK    5  A    between atoms: C_10  and  O_11
REMARK    6  A    between atoms: O_11  and  C_12
REMARK    7  A    between atoms: C_12  and  C_13
REMARK    8  A    between atoms: C_13  and  C_15
REMARK    9  A    between atoms: C_13  and  C_16
REMARK                            x       y       z     vdW  Elec       q    Type
REMARK                         _______ _______ _______ _____ _____    ______ ____
ROOT
ATOM      1  C   UNL     1       0.657  -2.014   1.298  0.00  0.00    -0.006 A 
ATOM      2  C   UNL     1      -0.336  -2.623   2.041  0.00  0.00    +0.022 A 
ATOM      3  C   UNL     1      -0.415  -4.003   2.093  0.00  0.00    +0.018 A 
ATOM      4  C   UNL     1       0.500  -4.777   1.401  0.00  0.00    +0.019 A 
ATOM      5  C   UNL     1       1.494  -4.172   0.657  0.00  0.00    +0.047 A 
ATOM      6  C   UNL     1       1.572  -2.788   0.599  0.00  0.00    +0.124 A 
ATOM      7 BR   UNL     1      -1.775  -4.834   3.111  0.00  0.00    -0.050 Br
ENDROOT
BRANCH   1   8
ATOM      8  C   UNL     1       0.742  -0.511   1.242  0.00  0.00    +0.022 C 
BRANCH   8  10
ATOM      9  C   UNL     1      -0.019   1.526   0.010  0.00  0.00    -0.014 C 
ATOM     10  C   UNL     1       0.002  -0.004   0.002  0.00  0.00    -0.074 C 
BRANCH  10  11
ATOM     11  N   UNL     1       0.690  -0.478  -1.207  0.00  0.00    +0.380 N 
ATOM     12  H   UNL     1       1.636  -0.129  -1.214  0.00  0.00    -0.090 HD
ATOM     13  H   UNL     1       0.703  -1.487  -1.212  0.00  0.00    -0.090 HD
ATOM     14  H   UNL     1       0.202  -0.144  -2.024  0.00  0.00    -0.090 HD
ENDBRANCH  10  11
ENDBRANCH   8  10
ENDBRANCH   1   8
BRANCH   6  15
ATOM     15  O   UNL     1       2.546  -2.191  -0.137  0.00  0.00    -0.491 OA
BRANCH  15  16
ATOM     16  C   UNL     1       3.454  -3.050  -0.830  0.00  0.00    +0.241 C 
BRANCH  16  17
ATOM     17  C   UNL     1       4.471  -2.204  -1.597  0.00  0.00    +0.109 C 
ATOM     18  C   UNL     1       3.753  -1.408  -2.689  0.00  0.00    +0.020 C 
BRANCH  17  19
ATOM     19  C   UNL     1       5.501  -3.106  -2.228  0.00  0.00    +0.217 C 
ATOM     20  O   UNL     1       5.427  -4.307  -2.079  0.00  0.00    -0.276 OA
ATOM     21  N   UNL     1       6.503  -2.578  -2.958  0.00  0.00    -0.329 N 
ATOM     22  H   UNL     1       6.562  -1.617  -3.078  0.00  0.00    +0.145 HD
ATOM     23  H   UNL     1       7.165  -3.158  -3.365  0.00  0.00    +0.145 HD
ENDBRANCH  17  19
ENDBRANCH  16  17
ENDBRANCH  15  16
ENDBRANCH   6  15
TORSDOF 7
