REMARK  Name = ZINC38826380
REMARK  7 active torsions:
REMARK  status: ('A' for Active; 'I' for Inactive)
REMARK    1  A    between atoms: C_1  and  O_2
REMARK    2  A    between atoms: O_2  and  C_3
REMARK    3  A    between atoms: C_5  and  C_10
REMARK    4  A    between atoms: C_8  and  O_9
REMARK    5  A    between atoms: N_11  and  N_12
REMARK    6  A    between atoms: C_13  and  C_15
REMARK    7  A    between atoms: C_18  and  C_20
REMARK                            x       y       z     vdW  Elec       q    Type
REMARK                         _______ _______ _______ _____ _____    ______ ____
ROOT
ATOM      1  N   UNL     1       3.544   0.537  -6.245  0.00  0.00    -0.202 N 
ATOM      2  C   UNL     1       4.141  -0.066  -7.291  0.00  0.00    +0.280 C 
ATOM      3  O   UNL     1       4.182  -1.282  -7.351  0.00  0.00    -0.267 OA
ATOM      4  H   UNL     1       3.511   1.506  -6.197  0.00  0.00    +0.178 HD
ENDROOT
BRANCH   2   5
ATOM      5  C   UNL     1       4.722   0.715  -8.323  0.00  0.00    +0.132 C 
ATOM      6  N   UNL     1       4.766   2.023  -8.404  0.00  0.00    -0.148 NA
ATOM      7  N   UNL     1       5.353   2.466  -9.445  0.00  0.00    -0.152 NA
ATOM      8  C   UNL     1       5.808   1.524 -10.250  0.00  0.00    +0.083 C 
ATOM      9  C   UNL     1       5.432   0.217  -9.570  0.00  0.00    +0.121 C 
BRANCH   8  10
ATOM     10  C   UNL     1       6.493   1.692 -11.467  0.00  0.00    +0.037 A 
ATOM     11  C   UNL     1       6.863   2.873 -12.113  0.00  0.00    +0.018 A 
ATOM     12  C   UNL     1       7.530   2.716 -13.299  0.00  0.00    +0.023 A 
ATOM     13  C   UNL     1       7.781   1.458 -13.755  0.00  0.00    +0.055 A 
ATOM     14  S   UNL     1       7.123   0.452 -12.582  0.00  0.00    -0.080 S 
ATOM     15 BR   UNL     1       8.674   0.958 -15.345  0.00  0.00    -0.043 Br
ENDBRANCH   8  10
ENDBRANCH   2   5
BRANCH   1  17
ATOM     16  C   UNL     1       2.394   0.347  -4.217  0.00  0.00    +0.138 C 
ATOM     17  N   UNL     1       2.970  -0.234  -5.226  0.00  0.00    -0.187 NA
BRANCH  16  20
ATOM     18  C   UNL     1       0.606  -0.608  -1.056  0.00  0.00    +0.162 A 
ATOM     19  C   UNL     1       1.171   0.159  -2.059  0.00  0.00    +0.058 A 
ATOM     20  C   UNL     1       1.791  -0.465  -3.145  0.00  0.00    -0.002 A 
ATOM     21  C   UNL     1       1.837  -1.860  -3.212  0.00  0.00    +0.013 A 
ATOM     22  C   UNL     1       1.271  -2.617  -2.208  0.00  0.00    +0.050 A 
ATOM     23  C   UNL     1       0.661  -1.998  -1.127  0.00  0.00    +0.158 A 
BRANCH  18  25
ATOM     24  C   UNL     1      -0.017   1.425   0.010  0.00  0.00    +0.277 C 
ATOM     25  O   UNL     1       0.002  -0.004   0.002  0.00  0.00    -0.491 OA
ENDBRANCH  18  25
BRANCH  23  26
ATOM     26  O   UNL     1       0.110  -2.749  -0.138  0.00  0.00    -0.503 OA
ATOM     27  H   UNL     1      -0.819  -2.975  -0.285  0.00  0.00    +0.292 HD
ENDBRANCH  23  26
ENDBRANCH  16  20
ENDBRANCH   1  17
TORSDOF 6
