REMARK  Name = ZINC06370593
REMARK  6 active torsions:
REMARK  status: ('A' for Active; 'I' for Inactive)
REMARK    1  A    between atoms: C_1  and  C_2
REMARK    2  A    between atoms: C_2  and  C_4
REMARK    3  A    between atoms: C_2  and  O_16
REMARK    4  A    between atoms: O_16  and  C_17
REMARK    5  A    between atoms: C_17  and  C_19
REMARK    6  A    between atoms: C_24  and  N_25
REMARK                            x       y       z     vdW  Elec       q    Type
REMARK                         _______ _______ _______ _____ _____    ______ ____
ROOT
ATOM      1  C   UNL     1       2.105   1.222   0.476  0.00  0.00    +0.060 C 
ATOM      2  C   UNL     1       1.387  -0.056   0.037  0.00  0.00    +0.239 C 
ENDROOT
BRANCH   2   3
ATOM      3  C   UNL     1      -0.102   0.178   0.040  0.00  0.00    +0.151 A 
ATOM      4  N   UNL     1      -0.924  -0.902  -0.016  0.00  0.00    -0.307 N 
ATOM      5  H   UNL     1      -0.532  -1.822  -0.053  0.00  0.00    +0.170 HD
ATOM      6  C   UNL     1      -2.268  -0.746  -0.022  0.00  0.00    +0.259 A 
ATOM      7  O   UNL     1      -3.016  -1.704  -0.077  0.00  0.00    -0.267 OA
ATOM      8  C   UNL     1      -2.789   0.628   0.045  0.00  0.00    +0.065 A 
ATOM      9  C   UNL     1      -4.157   0.898   0.050  0.00  0.00    +0.015 A 
ATOM     10  C   UNL     1      -4.590   2.204   0.109  0.00  0.00    +0.001 A 
ATOM     11  C   UNL     1      -3.677   3.249   0.165  0.00  0.00    +0.002 A 
ATOM     12  C   UNL     1      -2.323   3.004   0.161  0.00  0.00    +0.028 A 
ATOM     13  C   UNL     1      -1.859   1.688   0.101  0.00  0.00    +0.078 A 
ATOM     14  N   UNL     1      -0.533   1.401   0.096  0.00  0.00    -0.230 NA
ENDBRANCH   2   3
BRANCH   2  15
ATOM     15  O   UNL     1       1.818  -0.419  -1.301  0.00  0.00    -0.450 OA
BRANCH  15  16
ATOM     16  C   UNL     1       2.889  -1.230  -1.400  0.00  0.00    +0.342 C 
ATOM     17  O   UNL     1       3.447  -1.624  -0.396  0.00  0.00    -0.245 OA
BRANCH  16  18
ATOM     18  C   UNL     1       3.384  -1.641  -2.730  0.00  0.00    +0.090 A 
ATOM     19  C   UNL     1       2.834  -1.083  -3.886  0.00  0.00    +0.037 A 
ATOM     20  C   UNL     1       3.305  -1.467  -5.125  0.00  0.00    +0.042 A 
ATOM     21  C   UNL     1       4.313  -2.412  -5.223  0.00  0.00    +0.022 A 
ATOM     22  C   UNL     1       4.858  -2.972  -4.082  0.00  0.00    +0.035 A 
ATOM     23  C   UNL     1       4.399  -2.593  -2.837  0.00  0.00    +0.140 A 
ATOM     24 CL   UNL     1       2.628  -0.770  -6.564  0.00  0.00    -0.084 Cl
BRANCH  23  25
ATOM     25  N   UNL     1       4.984  -3.193  -1.617  0.00  0.00    +0.057 N 
ATOM     26  O   UNL     1       6.192  -3.211  -1.465  0.00  0.00    -0.126 OA
ATOM     27  O   UNL     1       4.256  -3.670  -0.764  0.00  0.00    -0.126 OA
ENDBRANCH  23  25
ENDBRANCH  16  18
ENDBRANCH  15  16
ENDBRANCH   2  15
TORSDOF 5
