REMARK  Name = ZINC39677967
REMARK  10 active torsions:
REMARK  status: ('A' for Active; 'I' for Inactive)
REMARK    1  A    between atoms: C_1  and  C_2
REMARK    2  A    between atoms: C_2  and  C_3
REMARK    3  A    between atoms: C_3  and  C_5
REMARK    4  A    between atoms: C_3  and  C_6
REMARK    5  A    between atoms: C_6  and  C_7
REMARK    6  A    between atoms: C_11  and  C_20
REMARK    7  A    between atoms: N_22  and  C_23
REMARK    8  A    between atoms: C_23  and  C_24
REMARK    9  A    between atoms: N_27  and  C_31
REMARK   10  A    between atoms: C_31  and  C_32
REMARK                            x       y       z     vdW  Elec       q    Type
REMARK                         _______ _______ _______ _____ _____    ______ ____
ROOT
ATOM      1  C   UNL     1       1.599  -2.525  -2.074  0.00  0.00    +0.216 C 
ATOM      2  O   UNL     1       2.018  -1.650  -2.802  0.00  0.00    -0.276 OA
ATOM      3  N   UNL     1       1.869  -3.816  -2.349  0.00  0.00    -0.300 N 
ATOM      4  C   UNL     1       1.444  -5.015  -1.587  0.00  0.00    +0.121 C 
ATOM      5  C   UNL     1       1.094  -6.061  -2.670  0.00  0.00    +0.100 C 
ATOM      6  C   UNL     1       1.895  -5.626  -3.909  0.00  0.00    -0.004 C 
ATOM      7  C   UNL     1       2.652  -4.360  -3.485  0.00  0.00    +0.115 C 
ATOM      8  C   UNL     1       2.878  -6.721  -4.313  0.00  0.00    -0.010 C 
ATOM      9  C   UNL     1       3.620  -6.290  -5.581  0.00  0.00    -0.082 C 
ATOM     10  N   UNL     1       2.654  -6.050  -6.659  0.00  0.00    +0.379 N 
ATOM     11  C   UNL     1       1.770  -4.934  -6.301  0.00  0.00    -0.082 C 
ATOM     12  C   UNL     1       0.949  -5.307  -5.063  0.00  0.00    -0.010 C 
ATOM     13  H   UNL     1       3.149  -5.826  -7.509  0.00  0.00    -0.086 HD
ATOM     14  H   UNL     1       2.101  -6.882  -6.804  0.00  0.00    -0.086 HD
ENDROOT
BRANCH   5  15
ATOM     15  C   UNL     1      -0.384  -6.038  -2.962  0.00  0.00    +0.218 C 
ATOM     16  O   UNL     1      -1.011  -5.007  -2.841  0.00  0.00    -0.275 OA
ATOM     17  N   UNL     1      -1.010  -7.164  -3.359  0.00  0.00    -0.313 N 
ATOM     18  H   UNL     1      -0.509  -7.989  -3.456  0.00  0.00    +0.149 HD
BRANCH  17  19
ATOM     19  C   UNL     1      -2.447  -7.142  -3.644  0.00  0.00    +0.137 C 
BRANCH  19  20
ATOM     20  C   UNL     1      -2.903  -8.539  -4.071  0.00  0.00    +0.149 C 
ATOM     21  C   UNL     1      -4.376  -8.490  -4.486  0.00  0.00    +0.118 C 
ATOM     22  N   UNL     1      -4.830  -9.847  -4.822  0.00  0.00    -0.293 NA
ATOM     23  C   UNL     1      -4.659 -10.752  -3.676  0.00  0.00    +0.113 C 
ATOM     24  C   UNL     1      -3.183 -10.778  -3.269  0.00  0.00    +0.175 C 
ATOM     25  O   UNL     1      -2.751  -9.447  -2.977  0.00  0.00    -0.372 OA
BRANCH  22  26
ATOM     26  C   UNL     1      -6.226  -9.837  -5.281  0.00  0.00    +0.119 C 
BRANCH  26  27
ATOM     27  C   UNL     1      -6.579 -11.190  -5.844  0.00  0.00    -0.033 A 
ATOM     28  C   UNL     1      -6.376 -11.454  -7.186  0.00  0.00    +0.005 A 
ATOM     29  C   UNL     1      -6.700 -12.694  -7.703  0.00  0.00    +0.000 A 
ATOM     30  C   UNL     1      -7.227 -13.670  -6.878  0.00  0.00    +0.000 A 
ATOM     31  C   UNL     1      -7.428 -13.407  -5.536  0.00  0.00    +0.000 A 
ATOM     32  C   UNL     1      -7.100 -12.168  -5.018  0.00  0.00    +0.005 A 
ENDBRANCH  26  27
ENDBRANCH  22  26
ENDBRANCH  19  20
ENDBRANCH  17  19
ENDBRANCH   5  15
BRANCH   1  33
ATOM     33  C   UNL     1       0.779  -2.168  -0.861  0.00  0.00    +0.099 C 
BRANCH  33  34
ATOM     34  C   UNL     1       0.622  -0.648  -0.781  0.00  0.00    -0.006 C 
ATOM     35  C   UNL     1      -0.192  -0.156  -1.980  0.00  0.00    +0.008 C 
BRANCH  34  37
ATOM     36  C   UNL     1      -0.151   1.245   0.654  0.00  0.00    +0.004 C 
ATOM     37  C   UNL     1      -0.103  -0.278   0.514  0.00  0.00    +0.000 C 
ENDBRANCH  34  37
ENDBRANCH  33  34
ENDBRANCH   1  33
TORSDOF 8
