REMARK  Name = ZINC49204988
REMARK  3 active torsions:
REMARK  status: ('A' for Active; 'I' for Inactive)
REMARK    1  A    between atoms: C_2  and  C_3
REMARK    2  A    between atoms: C_3  and  N_4
REMARK    3  A    between atoms: N_7  and  C_8
REMARK                            x       y       z     vdW  Elec       q    Type
REMARK                         _______ _______ _______ _____ _____    ______ ____
ROOT
ATOM      1  C   UNL     1       3.139   5.138  -0.091  0.00  0.00    +0.036 A 
ATOM      2  C   UNL     1       2.104   6.070  -0.064  0.00  0.00    +0.027 A 
ATOM      3  C   UNL     1       2.372   7.419  -0.148  0.00  0.00    +0.049 A 
ATOM      4  C   UNL     1       3.684   7.862  -0.260  0.00  0.00    +0.139 A 
ATOM      5  C   UNL     1       4.732   6.925  -0.287  0.00  0.00    +0.019 A 
ATOM      6  C   UNL     1       4.452   5.559  -0.196  0.00  0.00    +0.035 A 
ATOM      7  C   UNL     1       6.112   7.405  -0.407  0.00  0.00    +0.018 A 
ATOM      8  C   UNL     1       6.321   8.744  -0.486  0.00  0.00    +0.092 A 
ATOM      9  C   UNL     1       5.221   9.628  -0.453  0.00  0.00    +0.337 A 
ATOM     10  O   UNL     1       5.421  10.827  -0.526  0.00  0.00    -0.245 OA
ATOM     11  O   UNL     1       3.960   9.181  -0.344  0.00  0.00    -0.422 OA
ENDROOT
BRANCH   1  15
ATOM     12  N   UNL     1       1.502   1.952  -0.580  0.00  0.00    -0.288 N 
ATOM     13  C   UNL     1       1.734   3.280  -0.582  0.00  0.00    +0.305 C 
ATOM     14  O   UNL     1       0.938   4.035  -1.105  0.00  0.00    -0.252 OA
ATOM     15  N   UNL     1       2.849   3.770  -0.005  0.00  0.00    -0.269 N 
ATOM     16  H   UNL     1       2.138   1.349  -0.163  0.00  0.00    +0.151 HD
ATOM     17  H   UNL     1       3.451   3.175   0.470  0.00  0.00    +0.156 HD
BRANCH  12  18
ATOM     18  C   UNL     1       0.291   1.419  -1.208  0.00  0.00    +0.195 C 
BRANCH  18  20
ATOM     19  C   UNL     1       0.257  -1.216  -0.965  0.00  0.00    +0.005 C 
ATOM     20  C   UNL     1       0.272  -0.047  -1.072  0.00  0.00    -0.087 C 
ENDBRANCH  18  20
ENDBRANCH  12  18
ENDBRANCH   1  15
TORSDOF 3
