REMARK  Name = ZINC66079128
REMARK  5 active torsions:
REMARK  status: ('A' for Active; 'I' for Inactive)
REMARK    1  A    between atoms: C_1  and  C_2
REMARK    2  A    between atoms: N_11  and  C_13
REMARK    3  A    between atoms: C_13  and  N_14
REMARK    4  A    between atoms: N_14  and  C_15
REMARK    5  A    between atoms: C_15  and  C_20
REMARK                            x       y       z     vdW  Elec       q    Type
REMARK                         _______ _______ _______ _____ _____    ______ ____
ROOT
ATOM      1  N   UNL     1       3.130  -2.578  -1.509  0.00  0.00    +0.398 N 
ATOM      2  H   UNL     1       2.661  -3.117  -2.222  0.00  0.00    -0.082 HD
ATOM      3  H   UNL     1       3.154  -1.607  -1.782  0.00  0.00    -0.082 HD
ENDROOT
BRANCH   1   4
ATOM      4  C   UNL     1       4.503  -3.075  -1.345  0.00  0.00    -0.040 C 
ATOM      5  C   UNL     1       5.215  -2.295  -0.221  0.00  0.00    -0.008 C 
ATOM      6  C   UNL     1       6.672  -2.148  -0.725  0.00  0.00    -0.001 C 
ATOM      7  C   UNL     1       6.485  -1.907  -2.244  0.00  0.00    -0.001 C 
ATOM      8  C   UNL     1       5.310  -2.828  -2.631  0.00  0.00    -0.008 C 
BRANCH   4   9
ATOM      9  C   UNL     1       4.483  -4.546  -1.021  0.00  0.00    -0.058 A 
ATOM     10  C   UNL     1       3.453  -5.342  -1.484  0.00  0.00    +0.004 A 
ATOM     11  C   UNL     1       3.434  -6.692  -1.188  0.00  0.00    +0.020 A 
ATOM     12  C   UNL     1       4.448  -7.247  -0.428  0.00  0.00    +0.041 A 
ATOM     13  C   UNL     1       5.480  -6.450   0.036  0.00  0.00    +0.020 A 
ATOM     14  C   UNL     1       5.500  -5.101  -0.266  0.00  0.00    +0.004 A 
ATOM     15 CL   UNL     1       4.426  -8.942  -0.054  0.00  0.00    -0.084 Cl
ENDBRANCH   4   9
ENDBRANCH   1   4
BRANCH   1  16
ATOM     16  C   UNL     1       2.405  -2.712  -0.238  0.00  0.00    +0.070 C 
BRANCH  16  27
ATOM     17  C   UNL     1      -0.291   1.361  -0.511  0.00  0.00    +0.068 C 
ATOM     18  C   UNL     1      -0.216  -0.144  -0.504  0.00  0.00    +0.066 A 
ATOM     19  C   UNL     1      -1.439  -0.938  -0.629  0.00  0.00    +0.010 A 
ATOM     20  C   UNL     1      -2.695  -0.342  -0.757  0.00  0.00    +0.010 A 
ATOM     21  C   UNL     1      -3.808  -1.127  -0.872  0.00  0.00    +0.001 A 
ATOM     22  C   UNL     1      -3.709  -2.512  -0.862  0.00  0.00    +0.001 A 
ATOM     23  C   UNL     1      -2.483  -3.128  -0.736  0.00  0.00    +0.014 A 
ATOM     24  C   UNL     1      -1.333  -2.348  -0.619  0.00  0.00    +0.050 A 
ATOM     25  C   UNL     1       0.002  -2.944  -0.483  0.00  0.00    +0.273 A 
ATOM     26  O   UNL     1       0.142  -4.154  -0.470  0.00  0.00    -0.266 OA
ATOM     27  N   UNL     1       1.069  -2.126  -0.374  0.00  0.00    -0.246 N 
ATOM     28  N   UNL     1       0.935  -0.737  -0.393  0.00  0.00    -0.175 NA
ENDBRANCH  16  27
ENDBRANCH   1  16
TORSDOF 4
