REMARK  Name = ZINC39210339
REMARK  9 active torsions:
REMARK  status: ('A' for Active; 'I' for Inactive)
REMARK    1  A    between atoms: C_1  and  O_2
REMARK    2  A    between atoms: O_2  and  C_3
REMARK    3  A    between atoms: C_6  and  C_11
REMARK    4  A    between atoms: C_8  and  O_9
REMARK    5  A    between atoms: O_9  and  C_10
REMARK    6  A    between atoms: C_17  and  C_25
REMARK    7  A    between atoms: C_19  and  C_23
REMARK    8  A    between atoms: C_20  and  N_22
REMARK    9  A    between atoms: C_30  and  C_31
REMARK                            x       y       z     vdW  Elec       q    Type
REMARK                         _______ _______ _______ _____ _____    ______ ____
ROOT
ATOM      1  C   UNL     1      -6.052  -1.196   0.694  0.00  0.00    +0.084 C 
ATOM      2  N   UNL     1      -7.109  -1.952   0.836  0.00  0.00    -0.150 NA
ATOM      3  N   UNL     1      -8.279  -1.302   0.443  0.00  0.00    -0.115 NA
ATOM      4  C   UNL     1      -8.046  -0.128  -0.022  0.00  0.00    +0.227 C 
ATOM      5  C   UNL     1      -6.555   0.135   0.186  0.00  0.00    +0.137 C 
ATOM      6  C   UNL     1      -5.989   0.439  -1.206  0.00  0.00    +0.067 C 
ATOM      7  C   UNL     1      -6.950   1.332  -1.943  0.00  0.00    +0.091 C 
ATOM      8  C   UNL     1      -8.258   1.460  -1.638  0.00  0.00    +0.200 C 
ATOM      9  O   UNL     1      -8.841   0.790  -0.614  0.00  0.00    -0.425 OA
ENDROOT
BRANCH   1  13
ATOM     10  C   UNL     1      -2.023  -2.254   1.513  0.00  0.00    +0.162 A 
ATOM     11  C   UNL     1      -2.350  -0.935   1.232  0.00  0.00    +0.050 A 
ATOM     12  C   UNL     1      -3.657  -0.587   0.965  0.00  0.00    +0.013 A 
ATOM     13  C   UNL     1      -4.657  -1.565   0.978  0.00  0.00    +0.002 A 
ATOM     14  C   UNL     1      -4.326  -2.894   1.262  0.00  0.00    +0.059 A 
ATOM     15  C   UNL     1      -3.013  -3.235   1.523  0.00  0.00    +0.162 A 
BRANCH  10  17
ATOM     16  C   UNL     1       0.231  -1.537   1.749  0.00  0.00    +0.277 C 
ATOM     17  O   UNL     1      -0.733  -2.591   1.775  0.00  0.00    -0.491 OA
ENDBRANCH  10  17
BRANCH  15  18
ATOM     18  O   UNL     1      -2.687  -4.527   1.793  0.00  0.00    -0.491 OA
ATOM     19  C   UNL     1      -3.752  -5.480   1.786  0.00  0.00    +0.277 C 
ENDBRANCH  15  18
ENDBRANCH   1  13
BRANCH   6  20
ATOM     20  C   UNL     1      -5.805  -0.868  -1.980  0.00  0.00    +0.092 C 
ATOM     21  C   UNL     1      -4.359  -1.319  -1.932  0.00  0.00    +0.118 C 
ATOM     22  N   UNL     1      -3.946  -1.332  -3.158  0.00  0.00    -0.161 NA
ATOM     23  N   UNL     1      -4.934  -0.943  -4.057  0.00  0.00    -0.153 NA
ATOM     24  C   UNL     1      -6.061  -0.653  -3.459  0.00  0.00    +0.080 C 
BRANCH  24  25
ATOM     25  C   UNL     1      -7.315  -0.211  -4.088  0.00  0.00    -0.001 A 
ATOM     26  C   UNL     1      -8.546  -0.591  -3.543  0.00  0.00    +0.012 A 
ATOM     27  C   UNL     1      -9.717  -0.172  -4.136  0.00  0.00    +0.039 A 
ATOM     28  C   UNL     1      -9.677   0.623  -5.271  0.00  0.00    +0.123 A 
ATOM     29  C   UNL     1      -8.460   1.004  -5.816  0.00  0.00    +0.039 A 
ATOM     30  C   UNL     1      -7.282   0.597  -5.229  0.00  0.00    +0.012 A 
ATOM     31  F   UNL     1     -10.829   1.029  -5.849  0.00  0.00    -0.205 F 
ENDBRANCH  24  25
ENDBRANCH   6  20
BRANCH   8  32
ATOM     32  N   UNL     1      -9.032   2.297  -2.401  0.00  0.00    -0.328 N 
ATOM     33  H   UNL     1      -8.637   2.783  -3.142  0.00  0.00    +0.145 HD
ATOM     34  H   UNL     1      -9.975   2.404  -2.200  0.00  0.00    +0.145 HD
ENDBRANCH   8  32
BRANCH   7  35
ATOM     35  C   UNL     1      -6.442   2.098  -3.042  0.00  0.00    +0.100 C 
ATOM     36  N   UNL     1      -6.040   2.706  -3.913  0.00  0.00    -0.191 NA
ENDBRANCH   7  35
TORSDOF 7
