REMARK  Name = ZINC43876258
REMARK  7 active torsions:
REMARK  status: ('A' for Active; 'I' for Inactive)
REMARK    1  A    between atoms: C_1  and  C_2
REMARK    2  A    between atoms: C_2  and  C_4
REMARK    3  A    between atoms: C_2  and  N_13
REMARK    4  A    between atoms: N_16  and  N_17
REMARK    5  A    between atoms: C_18  and  C_20
REMARK    6  A    between atoms: C_20  and  O_21
REMARK    7  A    between atoms: O_21  and  C_22
REMARK                            x       y       z     vdW  Elec       q    Type
REMARK                         _______ _______ _______ _____ _____    ______ ____
ROOT
ATOM      1  N   UNL     1       0.711  -0.489   1.189  0.00  0.00    -0.289 N 
ATOM      2  C   UNL     1       2.054  -0.600   1.174  0.00  0.00    +0.316 C 
ATOM      3  O   UNL     1       2.677  -0.297   0.175  0.00  0.00    -0.251 OA
ATOM      4  N   UNL     1       2.706  -1.046   2.266  0.00  0.00    -0.218 N 
ATOM      5  H   UNL     1       0.213  -0.731   1.986  0.00  0.00    +0.151 HD
ATOM      6  H   UNL     1       3.672  -1.126   2.255  0.00  0.00    +0.174 HD
ENDROOT
BRANCH   4   7
ATOM      7  N   UNL     1       1.987  -1.396   3.416  0.00  0.00    -0.230 N 
ATOM      8  C   UNL     1       2.639  -1.842   4.508  0.00  0.00    +0.267 C 
ATOM      9  O   UNL     1       3.848  -1.941   4.495  0.00  0.00    -0.271 OA
ATOM     10  H   UNL     1       1.020  -1.316   3.427  0.00  0.00    +0.173 HD
BRANCH   8  11
ATOM     11  C   UNL     1       1.866  -2.218   5.746  0.00  0.00    +0.326 C 
BRANCH  11  12
ATOM     12  O   UNL     1       2.773  -2.658   6.759  0.00  0.00    -0.483 OA
BRANCH  12  13
ATOM     13  C   UNL     1       2.234  -3.037   7.948  0.00  0.00    +0.121 A 
ATOM     14  C   UNL     1       0.860  -2.990   8.134  0.00  0.00    +0.048 A 
ATOM     15  C   UNL     1       0.314  -3.375   9.343  0.00  0.00    +0.042 A 
ATOM     16  C   UNL     1       1.137  -3.807  10.369  0.00  0.00    +0.124 A 
ATOM     17  C   UNL     1       2.508  -3.853  10.185  0.00  0.00    +0.042 A 
ATOM     18  C   UNL     1       3.057  -3.474   8.975  0.00  0.00    +0.048 A 
ATOM     19  F   UNL     1       0.601  -4.182  11.551  0.00  0.00    -0.205 F 
ENDBRANCH  12  13
ENDBRANCH  11  12
ENDBRANCH   8  11
ENDBRANCH   4   7
BRANCH   1  21
ATOM     20  C   UNL     1      -0.019   1.526   0.010  0.00  0.00    +0.036 C 
ATOM     21  C   UNL     1       0.002  -0.004   0.002  0.00  0.00    +0.137 C 
BRANCH  21  22
ATOM     22  C   UNL     1      -1.412  -0.526   0.013  0.00  0.00    +0.126 A 
ATOM     23  C   UNL     1      -2.074  -0.969  -1.064  0.00  0.00    +0.055 A 
ATOM     24  C   UNL     1      -3.402  -1.375  -0.590  0.00  0.00    +0.020 A 
ATOM     25  C   UNL     1      -4.536  -1.907  -1.202  0.00  0.00    +0.011 A 
ATOM     26  C   UNL     1      -5.646  -2.180  -0.453  0.00  0.00    +0.001 A 
ATOM     27  C   UNL     1      -5.651  -1.931   0.912  0.00  0.00    +0.004 A 
ATOM     28  C   UNL     1      -4.540  -1.404   1.535  0.00  0.00    +0.047 A 
ATOM     29  C   UNL     1      -3.401  -1.120   0.792  0.00  0.00    +0.135 A 
ATOM     30  O   UNL     1      -2.189  -0.619   1.105  0.00  0.00    -0.458 OA
ENDBRANCH  21  22
ENDBRANCH   1  21
TORSDOF 6
