REMARK  Name = ZINC15954336
REMARK  9 active torsions:
REMARK  status: ('A' for Active; 'I' for Inactive)
REMARK    1  A    between atoms: C_1  and  C_2
REMARK    2  A    between atoms: C_6  and  O_8
REMARK    3  A    between atoms: O_8  and  C_9
REMARK    4  A    between atoms: C_9  and  C_10
REMARK    5  A    between atoms: N_12  and  C_13
REMARK    6  A    between atoms: C_13  and  C_14
REMARK    7  A    between atoms: N_16  and  C_17
REMARK    8  A    between atoms: C_17  and  C_18
REMARK    9  A    between atoms: C_23  and  O_31
REMARK                            x       y       z     vdW  Elec       q    Type
REMARK                         _______ _______ _______ _____ _____    ______ ____
ROOT
ATOM      1  C   UNL     1       0.063  -2.891   4.781  0.00  0.00    +0.251 C 
ATOM      2  O   UNL     1       0.079  -4.094   4.623  0.00  0.00    -0.272 OA
ATOM      3  N   UNL     1       0.061  -2.374   6.026  0.00  0.00    -0.304 N 
ATOM      4  H   UNL     1       0.048  -1.413   6.151  0.00  0.00    +0.149 HD
ENDROOT
BRANCH   1   5
ATOM      5  C   UNL     1       0.045  -1.975   3.584  0.00  0.00    +0.324 C 
BRANCH   5   6
ATOM      6  O   UNL     1       0.051  -2.755   2.387  0.00  0.00    -0.482 OA
BRANCH   6  12
ATOM      7  C   UNL     1      -0.018   1.503   0.010  0.00  0.00    +0.044 C 
ATOM      8  C   UNL     1       0.002  -0.004   0.002  0.00  0.00    -0.043 A 
ATOM      9  C   UNL     1       0.005  -0.680  -1.202  0.00  0.00    +0.050 A 
ATOM     10  C   UNL     1       0.025  -2.067  -1.221  0.00  0.00    +0.143 A 
ATOM     11  C   UNL     1       0.042  -2.776  -0.007  0.00  0.00    +0.063 A 
ATOM     12  C   UNL     1       0.037  -2.079   1.211  0.00  0.00    +0.132 A 
ATOM     13  C   UNL     1       0.023  -0.695   1.202  0.00  0.00    +0.050 A 
ATOM     14  C   UNL     1       0.065  -4.239  -0.038  0.00  0.00    -0.023 A 
ATOM     15  C   UNL     1       0.073  -4.859  -1.245  0.00  0.00    +0.041 A 
ATOM     16  C   UNL     1       0.057  -4.083  -2.426  0.00  0.00    +0.341 A 
ATOM     17  O   UNL     1       0.068  -4.646  -3.505  0.00  0.00    -0.245 OA
ATOM     18  O   UNL     1       0.029  -2.742  -2.391  0.00  0.00    -0.422 OA
ATOM     19  C   UNL     1       0.098  -6.361  -1.056  0.00  0.00    +0.043 C 
ATOM     20  C   UNL     1       0.540  -6.575   0.408  0.00  0.00    +0.010 C 
ATOM     21  C   UNL     1       0.084  -5.259   1.077  0.00  0.00    +0.037 C 
ENDBRANCH   6  12
ENDBRANCH   5   6
ENDBRANCH   1   5
BRANCH   3  22
ATOM     22  C   UNL     1       0.078  -3.265   7.189  0.00  0.00    +0.200 C 
BRANCH  22  23
ATOM     23  C   UNL     1       0.071  -2.443   8.451  0.00  0.00    +0.231 C 
ATOM     24  O   UNL     1       0.054  -1.232   8.386  0.00  0.00    -0.274 OA
ATOM     25  N   UNL     1       0.085  -3.053   9.653  0.00  0.00    -0.305 N 
ATOM     26  H   UNL     1       0.098  -4.021   9.705  0.00  0.00    +0.149 HD
BRANCH  25  27
ATOM     27  C   UNL     1       0.079  -2.253  10.880  0.00  0.00    +0.200 C 
BRANCH  27  28
ATOM     28  C   UNL     1       0.096  -3.169  12.077  0.00  0.00    +0.233 C 
ATOM     29  O   UNL     1       0.112  -4.372  11.920  0.00  0.00    -0.274 OA
ATOM     30  N   UNL     1       0.094  -2.652  13.322  0.00  0.00    -0.300 N 
ATOM     31  C   UNL     1       0.069  -1.198  13.529  0.00  0.00    +0.110 C 
ATOM     32  C   UNL     1      -1.103  -0.854  14.454  0.00  0.00    +0.054 C 
ATOM     33  C   UNL     1      -0.988  -1.669  15.745  0.00  0.00    +0.072 C 
ATOM     34  C   UNL     1      -2.143  -1.299  16.678  0.00  0.00    +0.035 C 
ATOM     35  C   UNL     1      -2.039  -2.113  17.969  0.00  0.00    +0.003 C 
ATOM     36  C   UNL     1      -2.111  -3.605  17.637  0.00  0.00    +0.001 C 
ATOM     37  C   UNL     1      -0.954  -3.975  16.708  0.00  0.00    +0.008 C 
ATOM     38  C   UNL     1      -1.054  -3.162  15.415  0.00  0.00    +0.038 C 
ATOM     39  C   UNL     1       0.111  -3.532  14.498  0.00  0.00    +0.114 C 
BRANCH  33  40
ATOM     40  O   UNL     1       0.257  -1.376  16.384  0.00  0.00    -0.388 OA
ATOM     41  H   UNL     1       0.366  -0.446  16.623  0.00  0.00    +0.210 HD
ENDBRANCH  33  40
ENDBRANCH  27  28
ENDBRANCH  25  27
ENDBRANCH  22  23
ENDBRANCH   3  22
TORSDOF 8
