REMARK  Name = ZINC21238531
REMARK  10 active torsions:
REMARK  status: ('A' for Active; 'I' for Inactive)
REMARK    1  A    between atoms: C_1  and  C_2
REMARK    2  A    between atoms: C_2  and  C_4
REMARK    3  A    between atoms: C_2  and  N_12
REMARK    4  A    between atoms: C_13  and  C_15
REMARK    5  A    between atoms: C_15  and  O_16
REMARK    6  A    between atoms: O_16  and  C_17
REMARK    7  A    between atoms: C_17  and  C_19
REMARK    8  A    between atoms: C_19  and  C_20
REMARK    9  A    between atoms: C_20  and  C_22
REMARK   10  A    between atoms: C_20  and  N_29
REMARK                            x       y       z     vdW  Elec       q    Type
REMARK                         _______ _______ _______ _____ _____    ______ ____
ROOT
ATOM      1  C   UNL     1       0.439   1.890  -0.288  0.00  0.00    +0.310 C 
ATOM      2  O   UNL     1      -0.155   2.781   0.272  0.00  0.00    -0.251 OA
ENDROOT
BRANCH   1   3
ATOM      3  O   UNL     1       0.283   1.707  -1.609  0.00  0.00    -0.455 OA
BRANCH   3   4
ATOM      4  C   UNL     1      -0.615   2.616  -2.299  0.00  0.00    +0.327 C 
BRANCH   4   6
ATOM      5  N   UNL     1      -1.438   2.972  -4.604  0.00  0.00    -0.306 N 
ATOM      6  C   UNL     1      -0.664   2.259  -3.762  0.00  0.00    +0.251 C 
ATOM      7  O   UNL     1      -0.006   1.331  -4.182  0.00  0.00    -0.272 OA
ATOM      8  H   UNL     1      -2.034   3.814  -4.223  0.00  0.00    +0.149 HD
BRANCH   5  10
ATOM      9  C   UNL     1      -2.494   1.496  -6.243  0.00  0.00    +0.033 C 
ATOM     10  C   UNL     1      -1.485   2.626  -6.027  0.00  0.00    +0.102 C 
BRANCH  10  11
ATOM     11  C   UNL     1      -1.905   3.833  -6.824  0.00  0.00    -0.009 A 
ATOM     12  C   UNL     1      -2.693   4.808  -6.240  0.00  0.00    +0.008 A 
ATOM     13  C   UNL     1      -3.078   5.916  -6.971  0.00  0.00    +0.020 A 
ATOM     14  C   UNL     1      -2.677   6.050  -8.288  0.00  0.00    +0.042 A 
ATOM     15  C   UNL     1      -1.889   5.075  -8.873  0.00  0.00    +0.040 A 
ATOM     16  C   UNL     1      -1.498   3.970  -8.139  0.00  0.00    +0.047 A 
ATOM     17 CL   UNL     1      -0.503   2.749  -8.871  0.00  0.00    -0.083 Cl
ATOM     18 CL   UNL     1      -3.162   7.441  -9.206  0.00  0.00    -0.083 Cl
ENDBRANCH  10  11
ENDBRANCH   5  10
ENDBRANCH   4   6
ENDBRANCH   3   4
ENDBRANCH   1   3
BRANCH   1  19
ATOM     19  C   UNL     1       1.355   0.986   0.495  0.00  0.00    +0.147 C 
BRANCH  19  20
ATOM     20  C   UNL     1       1.353   1.407   1.966  0.00  0.00    +0.117 C 
BRANCH  20  21
ATOM     21  C   UNL     1       2.171   0.430   2.769  0.00  0.00    -0.008 A 
ATOM     22  C   UNL     1       3.023  -0.450   2.128  0.00  0.00    +0.007 A 
ATOM     23  C   UNL     1       3.777  -1.344   2.866  0.00  0.00    +0.000 A 
ATOM     24  C   UNL     1       3.672  -1.365   4.244  0.00  0.00    +0.001 A 
ATOM     25  C   UNL     1       2.817  -0.489   4.886  0.00  0.00    +0.020 A 
ATOM     26  C   UNL     1       2.066   0.409   4.149  0.00  0.00    +0.046 A 
ATOM     27 CL   UNL     1       0.991   1.509   4.954  0.00  0.00    -0.083 Cl
ENDBRANCH  20  21
BRANCH  20  28
ATOM     28  N   UNL     1       1.931   2.747   2.091  0.00  0.00    -0.292 N 
ATOM     29  C   UNL     1       3.228   2.953   1.785  0.00  0.00    +0.298 C 
ATOM     30  O   UNL     1       3.894   2.048   1.320  0.00  0.00    -0.253 OA
ATOM     31  N   UNL     1       3.786   4.161   1.995  0.00  0.00    -0.313 N 
ATOM     32  H   UNL     1       1.308   3.586   2.434  0.00  0.00    +0.151 HD
ATOM     33  H   UNL     1       4.845   4.329   1.746  0.00  0.00    +0.146 HD
ATOM     34  H   UNL     1       3.184   4.980   2.416  0.00  0.00    +0.146 HD
ENDBRANCH  20  28
ENDBRANCH  19  20
ENDBRANCH   1  19
TORSDOF 9
