REMARK  Name = ZINC65769062
REMARK  4 active torsions:
REMARK  status: ('A' for Active; 'I' for Inactive)
REMARK    1  A    between atoms: C_1  and  C_2
REMARK    2  A    between atoms: C_10  and  C_11
REMARK    3  A    between atoms: N_13  and  N_14
REMARK    4  A    between atoms: C_15  and  C_17
REMARK                            x       y       z     vdW  Elec       q    Type
REMARK                         _______ _______ _______ _____ _____    ______ ____
ROOT
ATOM      1  C   UNL     1       0.212  -0.414   2.478  0.00  0.00    +0.296 C 
ATOM      2  O   UNL     1       0.542   0.729   2.731  0.00  0.00    -0.265 OA
ATOM      3  N   UNL     1      -0.006  -1.290   3.480  0.00  0.00    -0.228 N 
ATOM      4  H   UNL     1      -0.268  -2.201   3.278  0.00  0.00    +0.173 HD
ENDROOT
BRANCH   1  14
ATOM      5  C   UNL     1       0.653   1.401  -0.007  0.00  0.00    +0.048 C 
ATOM      6  C   UNL     1       0.244  -0.049  -0.005  0.00  0.00    +0.008 A 
ATOM      7  C   UNL     1      -0.020  -0.890  -1.172  0.00  0.00    +0.024 A 
ATOM      8  C   UNL     1       0.007  -0.677  -2.552  0.00  0.00    +0.012 A 
ATOM      9  C   UNL     1      -0.302  -1.701  -3.402  0.00  0.00    +0.001 A 
ATOM     10  C   UNL     1      -0.642  -2.951  -2.902  0.00  0.00    +0.004 A 
ATOM     11  C   UNL     1      -0.675  -3.182  -1.544  0.00  0.00    +0.047 A 
ATOM     12  C   UNL     1      -0.365  -2.155  -0.660  0.00  0.00    +0.136 A 
ATOM     13  O   UNL     1      -0.311  -2.079   0.684  0.00  0.00    -0.450 OA
ATOM     14  C   UNL     1       0.052  -0.841   1.081  0.00  0.00    +0.195 A 
ENDBRANCH   1  14
BRANCH   3  15
ATOM     15  N   UNL     1       0.147  -0.883   4.812  0.00  0.00    -0.231 N 
ATOM     16  C   UNL     1      -0.071  -1.758   5.813  0.00  0.00    +0.253 C 
ATOM     17  O   UNL     1      -0.400  -2.901   5.560  0.00  0.00    -0.269 OA
ATOM     18  H   UNL     1       0.410   0.029   5.013  0.00  0.00    +0.173 HD
BRANCH  16  19
ATOM     19  C   UNL     1       0.089  -1.331   7.211  0.00  0.00    +0.068 C 
ATOM     20  C   UNL     1       0.011  -2.225   8.193  0.00  0.00    -0.065 C 
ATOM     21  C   UNL     1       0.033  -3.708   7.895  0.00  0.00    +0.031 C 
ATOM     22  C   UNL     1       1.101  -4.365   8.775  0.00  0.00    +0.004 C 
ATOM     23  C   UNL     1       0.835  -4.021  10.241  0.00  0.00    +0.001 C 
ATOM     24  C   UNL     1       0.971  -2.512  10.453  0.00  0.00    +0.004 C 
ATOM     25  C   UNL     1      -0.097  -1.785   9.636  0.00  0.00    +0.031 C 
ENDBRANCH  16  19
ENDBRANCH   3  15
TORSDOF 3
