REMARK  Name = ZINC35697435
REMARK  6 active torsions:
REMARK  status: ('A' for Active; 'I' for Inactive)
REMARK    1  A    between atoms: C_1  and  C_2
REMARK    2  A    between atoms: C_2  and  C_3
REMARK    3  A    between atoms: C_3  and  C_5
REMARK    4  A    between atoms: C_3  and  N_19
REMARK    5  A    between atoms: C_7  and  C_10
REMARK    6  A    between atoms: C_14  and  N_16
REMARK                            x       y       z     vdW  Elec       q    Type
REMARK                         _______ _______ _______ _____ _____    ______ ____
ROOT
ATOM      1  C   UNL     1       0.632  -2.000  -1.327  0.00  0.00    +0.213 A 
ATOM      2  N   UNL     1      -0.139  -2.682  -2.127  0.00  0.00    -0.193 NA
ATOM      3  C   UNL     1       0.038  -3.999  -1.924  0.00  0.00    +0.202 A 
ATOM      4  N   UNL     1       0.934  -4.162  -0.983  0.00  0.00    -0.056 NA
ATOM      5  O   UNL     1       1.338  -2.861  -0.583  0.00  0.00    -0.339 OA
ENDROOT
BRANCH   3   6
ATOM      6  C   UNL     1      -0.666  -5.088  -2.647  0.00  0.00    +0.025 A 
ATOM      7  C   UNL     1      -1.598  -4.782  -3.636  0.00  0.00    +0.012 A 
ATOM      8  C   UNL     1      -2.249  -5.799  -4.305  0.00  0.00    +0.003 A 
ATOM      9  C   UNL     1      -1.978  -7.119  -3.995  0.00  0.00    +0.033 A 
ATOM     10  C   UNL     1      -1.053  -7.429  -3.014  0.00  0.00    +0.127 A 
ATOM     11  C   UNL     1      -0.392  -6.420  -2.343  0.00  0.00    +0.044 A 
BRANCH  10  12
ATOM     12  N   UNL     1      -0.768  -8.844  -2.687  0.00  0.00    +0.056 N 
ATOM     13  O   UNL     1      -1.344  -9.728  -3.278  0.00  0.00    -0.126 OA
ATOM     14  O   UNL     1       0.039  -9.116  -1.830  0.00  0.00    -0.126 OA
ENDBRANCH  10  12
ENDBRANCH   3   6
BRANCH   1  15
ATOM     15  C   UNL     1       0.718  -0.497  -1.257  0.00  0.00    +0.015 C 
BRANCH  15  16
ATOM     16  N   UNL     1       2.129  -0.090  -1.209  0.00  0.00    +0.386 N 
ATOM     17  H   UNL     1       2.567  -0.491  -0.394  0.00  0.00    -0.089 HD
ATOM     18  H   UNL     1       2.601  -0.415  -2.039  0.00  0.00    -0.089 HD
ATOM     19  H   UNL     1       2.187   0.916  -1.162  0.00  0.00    -0.089 HD
ENDBRANCH  15  16
BRANCH  15  21
ATOM     20  C   UNL     1      -0.019   1.526   0.010  0.00  0.00    +0.002 C 
ATOM     21  C   UNL     1       0.002  -0.004   0.002  0.00  0.00    -0.010 C 
ENDBRANCH  15  21
ENDBRANCH   1  15
TORSDOF 5
