REMARK  Name = ZINC55006329
REMARK  5 active torsions:
REMARK  status: ('A' for Active; 'I' for Inactive)
REMARK    1  A    between atoms: C_1  and  C_2
REMARK    2  A    between atoms: C_5  and  N_8
REMARK    3  A    between atoms: C_18  and  N_19
REMARK    4  A    between atoms: N_19  and  N_20
REMARK    5  A    between atoms: C_21  and  C_23
REMARK                            x       y       z     vdW  Elec       q    Type
REMARK                         _______ _______ _______ _____ _____    ______ ____
ROOT
ATOM      1  N   UNL     1       0.152  -4.171  -0.028  0.00  0.00    -0.202 N 
ATOM      2  C   UNL     1      -0.003  -4.806  -1.201  0.00  0.00    +0.258 C 
ATOM      3  O   UNL     1      -0.090  -4.156  -2.226  0.00  0.00    -0.269 OA
ATOM      4  C   UNL     1      -0.068  -6.271  -1.268  0.00  0.00    +0.046 A 
ATOM      5  C   UNL     1      -0.228  -6.938  -2.483  0.00  0.00    +0.014 A 
ATOM      6  C   UNL     1      -0.285  -8.314  -2.504  0.00  0.00    +0.001 A 
ATOM      7  C   UNL     1      -0.185  -9.046  -1.329  0.00  0.00    +0.001 A 
ATOM      8  C   UNL     1      -0.026  -8.406  -0.117  0.00  0.00    +0.009 A 
ATOM      9  C   UNL     1       0.033  -7.018  -0.076  0.00  0.00    +0.000 A 
ATOM     10  C   UNL     1       0.203  -6.284   1.196  0.00  0.00    +0.060 C 
ATOM     11  C   UNL     1       0.308  -6.955   2.394  0.00  0.00    +0.101 C 
ATOM     12  C   UNL     1       0.261  -4.819   1.143  0.00  0.00    +0.259 C 
ATOM     13  O   UNL     1       0.405  -4.184   2.172  0.00  0.00    -0.269 OA
ENDROOT
BRANCH   1  18
ATOM     14  C   UNL     1       0.382   1.499  -0.021  0.00  0.00    +0.044 C 
ATOM     15  C   UNL     1       0.321  -0.006  -0.023  0.00  0.00    -0.050 A 
ATOM     16  C   UNL     1      -0.792  -0.651  -0.530  0.00  0.00    +0.005 A 
ATOM     17  C   UNL     1      -0.851  -2.031  -0.533  0.00  0.00    +0.024 A 
ATOM     18  C   UNL     1       0.209  -2.771  -0.027  0.00  0.00    +0.045 A 
ATOM     19  C   UNL     1       1.326  -2.120   0.481  0.00  0.00    +0.024 A 
ATOM     20  C   UNL     1       1.381  -0.741   0.477  0.00  0.00    +0.005 A 
ENDBRANCH   1  18
BRANCH  11  21
ATOM     21  N   UNL     1       0.298  -6.264   3.563  0.00  0.00    -0.271 N 
ATOM     22  H   UNL     1       0.138  -5.307   3.559  0.00  0.00    +0.169 HD
BRANCH  21  23
ATOM     23  N   UNL     1       0.520  -6.932   4.774  0.00  0.00    -0.235 N 
ATOM     24  C   UNL     1       0.510  -6.246   5.934  0.00  0.00    +0.258 C 
ATOM     25  O   UNL     1       0.309  -5.050   5.930  0.00  0.00    -0.271 OA
ATOM     26  H   UNL     1       0.680  -7.889   4.778  0.00  0.00    +0.173 HD
BRANCH  24  27
ATOM     27  C   UNL     1       0.748  -6.965   7.237  0.00  0.00    +0.205 C 
ATOM     28  C   UNL     1      -0.404  -7.958   7.505  0.00  0.00    +0.043 C 
ATOM     29  C   UNL     1      -0.616  -7.810   9.037  0.00  0.00    +0.031 C 
ATOM     30  C   UNL     1      -0.301  -6.305   9.233  0.00  0.00    +0.161 C 
ATOM     31  O   UNL     1       0.770  -6.023   8.316  0.00  0.00    -0.367 OA
ENDBRANCH  24  27
ENDBRANCH  21  23
ENDBRANCH  11  21
TORSDOF 4
