REMARK  Name = ZINC67557253
REMARK  13 active torsions:
REMARK  status: ('A' for Active; 'I' for Inactive)
REMARK    1  A    between atoms: C_1  and  C_2
REMARK    2  A    between atoms: C_6  and  C_28
REMARK    3  A    between atoms: C_7  and  O_8
REMARK    4  A    between atoms: O_8  and  C_9
REMARK    5  A    between atoms: C_9  and  C_10
REMARK    6  A    between atoms: C_10  and  C_12
REMARK    7  A    between atoms: C_10  and  O_27
REMARK    8  A    between atoms: C_12  and  N_13
REMARK    9  A    between atoms: N_16  and  C_17
REMARK   10  A    between atoms: C_20  and  O_25
REMARK   11  A    between atoms: C_21  and  O_23
REMARK   12  A    between atoms: O_23  and  C_24
REMARK   13  A    between atoms: O_25  and  C_26
REMARK                            x       y       z     vdW  Elec       q    Type
REMARK                         _______ _______ _______ _____ _____    ______ ____
ROOT
ATOM      1  N   UNL     1      -2.202   1.953   6.216  0.00  0.00    -0.297 N 
ATOM      2  C   UNL     1      -3.264   2.262   6.987  0.00  0.00    +0.304 C 
ATOM      3  O   UNL     1      -4.383   1.945   6.634  0.00  0.00    -0.253 OA
ATOM      4  N   UNL     1      -3.085   2.923   8.147  0.00  0.00    -0.269 N 
ATOM      5  H   UNL     1      -1.309   2.206   6.497  0.00  0.00    +0.150 HD
ATOM      6  H   UNL     1      -2.188   3.117   8.461  0.00  0.00    +0.156 HD
ENDROOT
BRANCH   4   7
ATOM      7  C   UNL     1      -4.194   3.330   8.900  0.00  0.00    +0.038 A 
ATOM      8  C   UNL     1      -5.332   2.536   8.945  0.00  0.00    +0.027 A 
ATOM      9  C   UNL     1      -6.427   2.935   9.687  0.00  0.00    +0.051 A 
ATOM     10  C   UNL     1      -6.392   4.130  10.388  0.00  0.00    +0.162 A 
ATOM     11  C   UNL     1      -5.253   4.929  10.345  0.00  0.00    +0.163 A 
ATOM     12  C   UNL     1      -4.154   4.525   9.606  0.00  0.00    +0.072 A 
BRANCH  11  13
ATOM     13  O   UNL     1      -5.218   6.102  11.032  0.00  0.00    -0.491 OA
ATOM     14  C   UNL     1      -4.017   6.870  10.943  0.00  0.00    +0.277 C 
ENDBRANCH  11  13
BRANCH  10  15
ATOM     15  O   UNL     1      -7.471   4.523  11.118  0.00  0.00    -0.491 OA
ATOM     16  C   UNL     1      -8.606   3.654  11.116  0.00  0.00    +0.277 C 
ENDBRANCH  10  15
ENDBRANCH   4   7
BRANCH   1  17
ATOM     17  C   UNL     1      -2.397   1.234   4.955  0.00  0.00    +0.140 C 
BRANCH  17  18
ATOM     18  C   UNL     1      -1.041   1.010   4.281  0.00  0.00    +0.169 C 
BRANCH  18  19
ATOM     19  O   UNL     1      -0.425   2.273   4.020  0.00  0.00    -0.387 OA
ATOM     20  H   UNL     1      -0.940   2.849   3.439  0.00  0.00    +0.210 HD
ENDBRANCH  18  19
BRANCH  18  21
ATOM     21  C   UNL     1      -1.245   0.260   2.963  0.00  0.00    +0.261 C 
BRANCH  21  22
ATOM     22  O   UNL     1       0.027  -0.052   2.391  0.00  0.00    -0.489 OA
BRANCH  22  29
ATOM     23  C   UNL     1       0.002   1.485   0.021  0.00  0.00    +0.047 C 
ATOM     24  C   UNL     1       0.013  -0.022   0.013  0.00  0.00    -0.009 A 
ATOM     25  C   UNL     1       0.016  -0.707  -1.187  0.00  0.00    +0.007 A 
ATOM     26  C   UNL     1       0.026  -2.089  -1.196  0.00  0.00    +0.001 A 
ATOM     27  C   UNL     1       0.033  -2.790  -0.004  0.00  0.00    +0.007 A 
ATOM     28  C   UNL     1       0.029  -2.110   1.198  0.00  0.00    -0.009 A 
ATOM     29  C   UNL     1       0.025  -0.723   1.210  0.00  0.00    +0.126 A 
ATOM     30  C   UNL     1       0.036  -2.875   2.497  0.00  0.00    +0.047 C 
ENDBRANCH  22  29
ENDBRANCH  21  22
ENDBRANCH  18  21
ENDBRANCH  17  18
ENDBRANCH   1  17
TORSDOF 9
