REMARK  Name = ZINC06233915
REMARK  6 active torsions:
REMARK  status: ('A' for Active; 'I' for Inactive)
REMARK    1  A    between atoms: C_1  and  C_2
REMARK    2  A    between atoms: C_5  and  N_8
REMARK    3  A    between atoms: N_8  and  N_9
REMARK    4  A    between atoms: C_12  and  C_19
REMARK    5  A    between atoms: C_14  and  C_17
REMARK    6  A    between atoms: C_15  and  N_16
REMARK                            x       y       z     vdW  Elec       q    Type
REMARK                         _______ _______ _______ _____ _____    ______ ____
ROOT
ATOM      1  N   UNL     1      -1.234   1.650   0.017  0.00  0.00    -0.211 N 
ATOM      2  C   UNL     1      -1.981   1.718  -1.127  0.00  0.00    +0.039 C 
ATOM      3  C   UNL     1      -3.297   2.015  -1.073  0.00  0.00    +0.026 C 
ATOM      4  C   UNL     1      -3.983   2.257   0.247  0.00  0.00    +0.097 C 
ATOM      5  C   UNL     1      -2.985   2.558   1.327  0.00  0.00    +0.078 C 
ATOM      6  C   UNL     1      -1.675   2.241   1.177  0.00  0.00    +0.119 C 
ATOM      7  C   UNL     1      -4.068   2.105  -2.245  0.00  0.00    +0.162 C 
ATOM      8  O   UNL     1      -5.252   2.366  -2.161  0.00  0.00    -0.292 OA
ATOM      9  C   UNL     1      -3.456   1.884  -3.601  0.00  0.00    +0.080 C 
ATOM     10  C   UNL     1      -1.974   2.269  -3.549  0.00  0.00    +0.014 C 
ATOM     11  C   UNL     1      -1.299   1.451  -2.447  0.00  0.00    +0.053 C 
ENDROOT
BRANCH   4  12
ATOM     12  C   UNL     1      -4.768   1.029   0.629  0.00  0.00    -0.035 A 
ATOM     13  C   UNL     1      -4.120  -0.181   0.795  0.00  0.00    +0.006 A 
ATOM     14  C   UNL     1      -4.838  -1.307   1.150  0.00  0.00    +0.020 A 
ATOM     15  C   UNL     1      -6.208  -1.226   1.329  0.00  0.00    +0.041 A 
ATOM     16  C   UNL     1      -6.856  -0.016   1.158  0.00  0.00    +0.020 A 
ATOM     17  C   UNL     1      -6.136   1.111   0.808  0.00  0.00    +0.006 A 
ATOM     18 CL   UNL     1      -7.112  -2.641   1.768  0.00  0.00    -0.084 Cl
ENDBRANCH   4  12
BRANCH   6  19
ATOM     19  N   UNL     1      -0.784   2.517   2.187  0.00  0.00    -0.344 N 
ATOM     20  H   UNL     1       0.154   2.294   2.081  0.00  0.00    +0.144 HD
ATOM     21  H   UNL     1      -1.094   2.934   3.006  0.00  0.00    +0.144 HD
ENDBRANCH   6  19
BRANCH   1  22
ATOM     22  N   UNL     1      -0.011   0.966   0.007  0.00  0.00    -0.259 N 
ATOM     23  H   UNL     1       0.002  -0.004   0.002  0.00  0.00    +0.171 HD
BRANCH  22  28
ATOM     24  C   UNL     1       4.861   3.868  -0.023  0.00  0.00    +0.044 C 
ATOM     25  C   UNL     1       3.566   3.097  -0.015  0.00  0.00    -0.050 A 
ATOM     26  C   UNL     1       3.587   1.714  -0.023  0.00  0.00    +0.005 A 
ATOM     27  C   UNL     1       2.402   1.004  -0.015  0.00  0.00    +0.025 A 
ATOM     28  C   UNL     1       1.189   1.681  -0.000  0.00  0.00    +0.045 A 
ATOM     29  C   UNL     1       1.172   3.070   0.002  0.00  0.00    +0.025 A 
ATOM     30  C   UNL     1       2.360   3.773  -0.000  0.00  0.00    +0.005 A 
ENDBRANCH  22  28
ENDBRANCH   1  22
BRANCH   5  31
ATOM     31  C   UNL     1      -3.425   3.185   2.538  0.00  0.00    +0.099 C 
ATOM     32  N   UNL     1      -3.774   3.682   3.498  0.00  0.00    -0.191 NA
ENDBRANCH   5  31
TORSDOF 5
