REMARK  Name = ZINC18234985
REMARK  6 active torsions:
REMARK  status: ('A' for Active; 'I' for Inactive)
REMARK    1  A    between atoms: C_6  and  C_7
REMARK    2  A    between atoms: C_7  and  C_12
REMARK    3  A    between atoms: C_12  and  N_13
REMARK    4  A    between atoms: C_14  and  C_16
REMARK    5  A    between atoms: C_16  and  C_17
REMARK    6  A    between atoms: C_17  and  N_18
REMARK                            x       y       z     vdW  Elec       q    Type
REMARK                         _______ _______ _______ _____ _____    ______ ____
ROOT
ATOM      1  N   UNL     1      -0.108  -2.630   1.072  0.00  0.00    -0.314 N 
ATOM      2  C   UNL     1       0.051  -3.660   1.927  0.00  0.00    +0.215 C 
ATOM      3  O   UNL     1      -0.793  -3.884   2.769  0.00  0.00    -0.276 OA
ATOM      4  H   UNL     1       0.567  -2.451   0.398  0.00  0.00    +0.149 HD
ENDROOT
BRANCH   1   5
ATOM      5  C   UNL     1      -1.298  -1.781   1.161  0.00  0.00    +0.115 C 
BRANCH   5   6
ATOM      6  C   UNL     1      -1.291  -0.771   0.011  0.00  0.00    +0.011 C 
ATOM      7  C   UNL     1      -1.224  -1.509  -1.342  0.00  0.00    +0.013 C 
ATOM      8  C   UNL     1      -2.701  -1.606  -1.796  0.00  0.00    +0.001 C 
ATOM      9  C   UNL     1      -3.287  -0.244  -1.347  0.00  0.00    +0.001 C 
ATOM     10  C   UNL     1      -2.603   0.033   0.008  0.00  0.00    +0.013 C 
BRANCH   6  16
ATOM     11  C   UNL     1       0.695   0.087   1.268  0.00  0.00    +0.008 A 
ATOM     12  C   UNL     1       1.774   0.941   1.400  0.00  0.00    +0.050 A 
ATOM     13  C   UNL     1       2.047   1.873   0.411  0.00  0.00    +0.162 A 
ATOM     14  C   UNL     1       1.234   1.946  -0.714  0.00  0.00    +0.162 A 
ATOM     15  C   UNL     1       0.153   1.087  -0.840  0.00  0.00    +0.053 A 
ATOM     16  C   UNL     1      -0.115   0.161   0.150  0.00  0.00    -0.036 A 
ATOM     17  O   UNL     1       1.489   2.849  -1.700  0.00  0.00    -0.485 OA
ATOM     18  C   UNL     1       2.356   3.938  -1.367  0.00  0.00    +0.270 C 
ATOM     19  C   UNL     1       3.574   3.374  -0.624  0.00  0.00    +0.270 C 
ATOM     20  O   UNL     1       3.111   2.710   0.557  0.00  0.00    -0.485 OA
ENDBRANCH   6  16
ENDBRANCH   5   6
ENDBRANCH   1   5
BRANCH   2  21
ATOM     21  C   UNL     1       1.275  -4.533   1.836  0.00  0.00    +0.115 C 
BRANCH  21  22
ATOM     22  C   UNL     1       1.208  -5.619   2.912  0.00  0.00    +0.125 C 
BRANCH  22  23
ATOM     23  N   UNL     1       2.399  -6.468   2.823  0.00  0.00    -0.241 N 
ATOM     24  C   UNL     1       2.465  -7.584   2.047  0.00  0.00    +0.226 C 
ATOM     25  O   UNL     1       1.540  -8.153   1.507  0.00  0.00    -0.275 OA
ATOM     26  C   UNL     1       3.910  -7.965   1.995  0.00  0.00    +0.087 C 
ATOM     27  C   UNL     1       4.297  -9.423   1.909  0.00  0.00    +0.013 C 
ATOM     28  C   UNL     1       5.836  -9.474   1.931  0.00  0.00    +0.001 C 
ATOM     29  C   UNL     1       6.416  -8.786   3.162  0.00  0.00    +0.001 C 
ATOM     30  C   UNL     1       5.880  -7.349   3.324  0.00  0.00    +0.013 C 
ATOM     31  C   UNL     1       4.376  -7.458   3.393  0.00  0.00    +0.087 C 
ATOM     32  C   UNL     1       3.549  -6.215   3.504  0.00  0.00    +0.226 C 
ATOM     33  O   UNL     1       3.843  -5.192   4.084  0.00  0.00    -0.275 OA
ENDBRANCH  22  23
ENDBRANCH  21  22
ENDBRANCH   2  21
TORSDOF 6
