REMARK  Name = ZINC08402578
REMARK  5 active torsions:
REMARK  status: ('A' for Active; 'I' for Inactive)
REMARK    1  A    between atoms: C_1  and  C_2
REMARK    2  A    between atoms: N_6  and  N_7
REMARK    3  A    between atoms: N_8  and  N_9
REMARK    4  A    between atoms: C_10  and  C_11
REMARK    5  A    between atoms: C_16  and  O_17
REMARK                            x       y       z     vdW  Elec       q    Type
REMARK                         _______ _______ _______ _____ _____    ______ ____
ROOT
ATOM      1  N   UNL     1       0.069  -4.505   0.712  0.00  0.00    -0.187 NA
ATOM      2  C   UNL     1       0.088  -5.599   1.412  0.00  0.00    +0.142 C 
ENDROOT
BRANCH   1   9
ATOM      3  C   UNL     1      -0.018   1.503   0.010  0.00  0.00    +0.090 C 
ATOM      4  C   UNL     1       0.002  -0.004   0.002  0.00  0.00    +0.149 A 
ATOM      5  N   UNL     1       0.008  -0.771  -1.052  0.00  0.00    -0.131 NA
ATOM      6  N   UNL     1       0.027  -2.006  -0.699  0.00  0.00    -0.110 NA
ATOM      7  C   UNL     1       0.034  -2.095   0.611  0.00  0.00    +0.254 A 
ATOM      8  N   UNL     1       0.024  -0.820   1.098  0.00  0.00    -0.220 N 
ATOM      9  N   UNL     1       0.054  -3.262   1.357  0.00  0.00    -0.204 N 
ATOM     10  H   UNL     1       0.057  -3.218   2.326  0.00  0.00    +0.177 HD
BRANCH   8  11
ATOM     11  N   UNL     1       0.031  -0.438   2.410  0.00  0.00    -0.294 N 
ATOM     12  H   UNL     1      -0.909  -0.350   2.766  0.00  0.00    +0.163 HD
ATOM     13  H   UNL     1       0.571  -1.080   2.970  0.00  0.00    +0.163 HD
ENDBRANCH   8  11
ENDBRANCH   1   9
BRANCH   2  14
ATOM     14  C   UNL     1       0.104  -6.907   0.733  0.00  0.00    +0.038 A 
ATOM     15  C   UNL     1       0.118  -8.086   1.482  0.00  0.00    +0.027 A 
ATOM     16  C   UNL     1       0.132  -9.308   0.841  0.00  0.00    +0.015 A 
ATOM     17  C   UNL     1       0.133  -9.371  -0.542  0.00  0.00    +0.032 A 
ATOM     18  C   UNL     1       0.119  -8.210  -1.294  0.00  0.00    +0.056 A 
ATOM     19  C   UNL     1       0.099  -6.976  -0.666  0.00  0.00    +0.139 A 
ATOM     20  I   UNL     1       0.121  -8.320  -3.386  0.00  0.00    -0.040 I 
ATOM     21  I   UNL     1       0.153 -11.076   1.965  0.00  0.00    -0.044 I 
BRANCH  19  22
ATOM     22  O   UNL     1       0.080  -5.835  -1.404  0.00  0.00    -0.505 OA
ATOM     23  H   UNL     1       0.958  -5.492  -1.622  0.00  0.00    +0.292 HD
ENDBRANCH  19  22
ENDBRANCH   2  14
TORSDOF 4
