REMARK  Name = ZINC23444486
REMARK  7 active torsions:
REMARK  status: ('A' for Active; 'I' for Inactive)
REMARK    1  A    between atoms: C_1  and  C_2
REMARK    2  A    between atoms: C_2  and  C_21
REMARK    3  A    between atoms: C_3  and  C_4
REMARK    4  A    between atoms: C_6  and  C_11
REMARK    5  A    between atoms: C_8  and  C_9
REMARK    6  A    between atoms: C_8  and  C_10
REMARK    7  A    between atoms: N_13  and  C_14
REMARK                            x       y       z     vdW  Elec       q    Type
REMARK                         _______ _______ _______ _____ _____    ______ ____
ROOT
ATOM      1  C   UNL     1      -1.424   5.796   0.034  0.00  0.00    +0.223 C 
ATOM      2  O   UNL     1      -1.202   5.212  -1.006  0.00  0.00    -0.275 OA
ATOM      3  N   UNL     1      -1.591   5.099   1.175  0.00  0.00    -0.269 N 
ATOM      4  H   UNL     1      -1.792   5.628   2.118  0.00  0.00    +0.156 HD
ENDROOT
BRANCH   3   5
ATOM      5  C   UNL     1      -1.508   3.706   1.161  0.00  0.00    +0.150 A 
ATOM      6  C   UNL     1      -1.682   2.990   2.346  0.00  0.00    +0.217 A 
ATOM      7  C   UNL     1      -1.596   1.606   2.315  0.00  0.00    +0.056 A 
ATOM      8  C   UNL     1      -1.340   0.986   1.099  0.00  0.00    +0.021 A 
ATOM      9  C   UNL     1      -1.173   1.759  -0.032  0.00  0.00    +0.084 A 
ATOM     10  N   UNL     1      -1.266   3.075   0.025  0.00  0.00    -0.346 N 
ATOM     11  O   UNL     1      -1.931   3.640   3.514  0.00  0.00    -0.284 OA
ATOM     12  H   UNL     1      -1.136   3.647  -0.906  0.00  0.00    +0.167 HD
ENDBRANCH   3   5
BRANCH   1  14
ATOM     13  C   UNL     1      -1.954   7.995  -1.241  0.00  0.00    +0.030 C 
ATOM     14  C   UNL     1      -1.513   7.300   0.049  0.00  0.00    +0.089 C 
ATOM     15  C   UNL     1      -2.906   7.926  -0.046  0.00  0.00    -0.016 C 
ATOM     16  C   UNL     1      -4.102   6.977  -0.149  0.00  0.00    +0.012 C 
ATOM     17  C   UNL     1      -3.155   9.218   0.735  0.00  0.00    +0.012 C 
BRANCH  13  20
ATOM     18  C   UNL     1      -2.405   9.197  -3.748  0.00  0.00    +0.038 C 
ATOM     19  C   UNL     1      -1.542   9.889  -2.725  0.00  0.00    -0.079 C 
ATOM     20  C   UNL     1      -1.332   9.330  -1.560  0.00  0.00    -0.023 C 
ATOM     21  C   UNL     1      -0.920  11.224  -3.044  0.00  0.00    +0.038 C 
ENDBRANCH  13  20
ENDBRANCH   1  14
TORSDOF 3
