REMARK  Name = ZINC48664590
REMARK  7 active torsions:
REMARK  status: ('A' for Active; 'I' for Inactive)
REMARK    1  A    between atoms: C_1  and  C_2
REMARK    2  A    between atoms: C_8  and  N_10
REMARK    3  A    between atoms: N_10  and  S_11
REMARK    4  A    between atoms: S_11  and  C_14
REMARK    5  A    between atoms: C_17  and  C_19
REMARK    6  A    between atoms: C_19  and  O_21
REMARK    7  A    between atoms: O_21  and  C_22
REMARK                            x       y       z     vdW  Elec       q    Type
REMARK                         _______ _______ _______ _____ _____    ______ ____
ROOT
ATOM      1  S   UNL     1       2.864   0.392   2.655  0.00  0.00    +0.065 S 
ATOM      2  O   UNL     1       4.176   0.820   2.319  0.00  0.00    -0.153 OA
ATOM      3  O   UNL     1       1.955   1.214   3.375  0.00  0.00    -0.153 OA
ENDROOT
BRANCH   1   4
ATOM      4  C   UNL     1       3.041  -1.095   3.582  0.00  0.00    +0.143 A 
ATOM      5  C   UNL     1       4.081  -1.966   3.571  0.00  0.00    +0.037 A 
ATOM      6  C   UNL     1       4.030  -3.079   4.374  0.00  0.00    +0.024 A 
ATOM      7  C   UNL     1       2.884  -3.213   5.145  0.00  0.00    +0.098 A 
ATOM      8  S   UNL     1       1.962  -1.757   4.688  0.00  0.00    -0.062 S 
BRANCH   7   9
ATOM      9  C   UNL     1       2.527  -4.272   6.091  0.00  0.00    +0.346 C 
ATOM     10  O   UNL     1       3.291  -5.199   6.283  0.00  0.00    -0.244 OA
BRANCH   9  11
ATOM     11  O   UNL     1       1.351  -4.219   6.750  0.00  0.00    -0.464 OA
ATOM     12  C   UNL     1       1.068  -5.286   7.658  0.00  0.00    +0.280 C 
ENDBRANCH   9  11
ENDBRANCH   7   9
ENDBRANCH   1   4
BRANCH   1  13
ATOM     13  N   UNL     1       2.116  -0.004   1.231  0.00  0.00    -0.186 NA
ATOM     14  H   UNL     1       2.589   0.100   0.390  0.00  0.00    +0.148 HD
BRANCH  13  21
ATOM     15  C   UNL     1      -0.019   1.526   0.010  0.00  0.00    +0.009 C 
ATOM     16  C   UNL     1       0.002  -0.004   0.002  0.00  0.00    +0.005 C 
ATOM     17  C   UNL     1       0.718  -0.497  -1.257  0.00  0.00    +0.005 C 
ATOM     18  C   UNL     1       0.739  -2.027  -1.265  0.00  0.00    +0.000 C 
ATOM     19  C   UNL     1       1.479  -2.534  -0.026  0.00  0.00    +0.002 C 
ATOM     20  C   UNL     1       0.763  -2.041   1.233  0.00  0.00    +0.020 C 
ATOM     21  C   UNL     1       0.742  -0.511   1.242  0.00  0.00    +0.079 C 
ENDBRANCH  13  21
ENDBRANCH   1  13
TORSDOF 5
