REMARK  Name = ZINC43219071
REMARK  7 active torsions:
REMARK  status: ('A' for Active; 'I' for Inactive)
REMARK    1  A    between atoms: C_1  and  C_2
REMARK    2  A    between atoms: C_2  and  C_3
REMARK    3  A    between atoms: C_2  and  C_4
REMARK    4  A    between atoms: C_2  and  N_5
REMARK    5  A    between atoms: C_10  and  C_27
REMARK    6  A    between atoms: C_13  and  C_18
REMARK    7  A    between atoms: C_13  and  C_24
REMARK                            x       y       z     vdW  Elec       q    Type
REMARK                         _______ _______ _______ _____ _____    ______ ____
ROOT
ATOM      1  N   UNL     1       1.093   0.188  -1.071  0.00  0.00    -0.236 N 
ATOM      2  C   UNL     1       0.282  -0.572  -1.877  0.00  0.00    +0.225 C 
ATOM      3  O   UNL     1      -0.930  -0.617  -1.876  0.00  0.00    -0.275 OA
ATOM      4  C   UNL     1       1.189  -1.304  -2.726  0.00  0.00    +0.078 C 
ATOM      5  C   UNL     1       1.214  -2.020  -4.013  0.00  0.00    -0.019 C 
ATOM      6  N   UNL     1       2.686  -2.256  -4.213  0.00  0.00    +0.399 N 
ATOM      7  C   UNL     1       3.425  -1.236  -3.412  0.00  0.00    +0.074 C 
ATOM      8  C   UNL     1       2.347  -0.250  -2.937  0.00  0.00    +0.090 C 
ATOM      9  C   UNL     1       2.384   0.232  -1.513  0.00  0.00    +0.226 C 
ATOM     10  O   UNL     1       3.361   0.584  -0.887  0.00  0.00    -0.275 OA
ATOM     11  H   UNL     1       2.929  -3.182  -3.896  0.00  0.00    -0.083 HD
ATOM     12  H   UNL     1       2.918  -2.157  -5.190  0.00  0.00    -0.083 HD
ENDROOT
BRANCH   7  13
ATOM     13  C   UNL     1       4.118  -1.891  -2.245  0.00  0.00    -0.047 A 
ATOM     14  C   UNL     1       5.199  -1.272  -1.647  0.00  0.00    +0.003 A 
ATOM     15  C   UNL     1       5.835  -1.873  -0.576  0.00  0.00    +0.000 A 
ATOM     16  C   UNL     1       5.389  -3.093  -0.104  0.00  0.00    +0.000 A 
ATOM     17  C   UNL     1       4.307  -3.712  -0.702  0.00  0.00    +0.000 A 
ATOM     18  C   UNL     1       3.669  -3.109  -1.769  0.00  0.00    +0.003 A 
ENDBRANCH   7  13
BRANCH   5  19
ATOM     19  C   UNL     1       0.467  -3.326  -3.917  0.00  0.00    -0.022 A 
ATOM     20  C   UNL     1      -0.790  -3.622  -4.328  0.00  0.00    +0.011 A 
ATOM     21  C   UNL     1      -1.274  -4.902  -4.135  0.00  0.00    +0.028 A 
ATOM     22  C   UNL     1      -0.476  -5.824  -3.542  0.00  0.00    +0.078 A 
ATOM     23  S   UNL     1       1.013  -4.886  -3.242  0.00  0.00    -0.083 S 
ATOM     24 CL   UNL     1      -0.812  -7.488  -3.175  0.00  0.00    -0.076 Cl
ENDBRANCH   5  19
BRANCH   1  26
ATOM     25  C   UNL     1       0.853   2.385  -0.025  0.00  0.00    +0.031 C 
ATOM     26  C   UNL     1       0.622   0.881   0.131  0.00  0.00    +0.036 C 
ATOM     27  C   UNL     1       1.393   0.370   1.349  0.00  0.00    +0.031 C 
ATOM     28  C   UNL     1      -0.872   0.612   0.323  0.00  0.00    +0.031 C 
ENDBRANCH   1  26
BRANCH   7  29
ATOM     29  C   UNL     1       4.427  -0.517  -4.278  0.00  0.00    +0.350 C 
ATOM     30  O   UNL     1       4.553  -0.828  -5.451  0.00  0.00    -0.248 OA
ATOM     31  O   UNL     1       5.112   0.375  -3.807  0.00  0.00    -0.248 OA
ENDBRANCH   7  29
TORSDOF 4
