REMARK  Name = ZINC67310882
REMARK  5 active torsions:
REMARK  status: ('A' for Active; 'I' for Inactive)
REMARK    1  A    between atoms: C_1  and  C_2
REMARK    2  A    between atoms: C_5  and  N_11
REMARK    3  A    between atoms: C_7  and  C_8
REMARK    4  A    between atoms: N_14  and  C_15
REMARK    5  A    between atoms: C_15  and  C_16
REMARK                            x       y       z     vdW  Elec       q    Type
REMARK                         _______ _______ _______ _____ _____    ______ ____
ROOT
ATOM      1  N   UNL     1       0.167  -4.358   0.201  0.00  0.00    -0.269 N 
ATOM      2  C   UNL     1       0.250  -5.164  -0.876  0.00  0.00    +0.304 C 
ATOM      3  O   UNL     1       0.184  -4.691  -1.995  0.00  0.00    -0.252 OA
ATOM      4  N   UNL     1       0.407  -6.492  -0.714  0.00  0.00    -0.292 N 
ATOM      5  H   UNL     1       0.147  -4.741   1.093  0.00  0.00    +0.156 HD
ATOM      6  H   UNL     1       0.460  -6.869   0.178  0.00  0.00    +0.151 HD
ENDROOT
BRANCH   1  11
ATOM      7  C   UNL     1      -0.048   1.283  -0.452  0.00  0.00    +0.044 C 
ATOM      8  C   UNL     1       0.007  -0.213  -0.281  0.00  0.00    -0.038 A 
ATOM      9  C   UNL     1       0.676  -0.761   0.794  0.00  0.00    +0.006 A 
ATOM     10  C   UNL     1       0.730  -2.133   0.955  0.00  0.00    +0.023 A 
ATOM     11  C   UNL     1       0.110  -2.970   0.035  0.00  0.00    +0.035 A 
ATOM     12  C   UNL     1      -0.565  -2.429  -1.049  0.00  0.00    +0.036 A 
ATOM     13  C   UNL     1      -0.623  -1.045  -1.208  0.00  0.00    +0.041 A 
BRANCH  13  14
ATOM     14  C   UNL     1      -1.346  -0.460  -2.358  0.00  0.00    +0.242 C 
ATOM     15  O   UNL     1      -1.338   0.743  -2.533  0.00  0.00    -0.270 OA
ATOM     16  N   UNL     1      -2.013  -1.261  -3.212  0.00  0.00    -0.325 N 
ATOM     17  H   UNL     1      -2.020  -2.221  -3.072  0.00  0.00    +0.145 HD
ATOM     18  H   UNL     1      -2.488  -0.877  -3.966  0.00  0.00    +0.145 HD
ENDBRANCH  13  14
ENDBRANCH   1  11
BRANCH   4  19
ATOM     19  C   UNL     1       0.497  -7.368  -1.885  0.00  0.00    +0.182 C 
BRANCH  19  20
ATOM     20  C   UNL     1       0.669  -8.795  -1.433  0.00  0.00    +0.151 A 
ATOM     21  N   UNL     1       1.802  -9.408  -1.206  0.00  0.00    -0.133 NA
ATOM     22  N   UNL     1       1.574 -10.621  -0.833  0.00  0.00    -0.134 NA
ATOM     23  C   UNL     1       0.293 -10.832  -0.807  0.00  0.00    +0.134 A 
ATOM     24  N   UNL     1      -0.316  -9.679  -1.183  0.00  0.00    -0.314 N 
ATOM     25  C   UNL     1      -1.764  -9.493  -1.282  0.00  0.00    +0.125 C 
ATOM     26  C   UNL     1      -2.436 -10.870  -1.315  0.00  0.00    +0.022 C 
ATOM     27  C   UNL     1      -1.910 -11.726  -0.159  0.00  0.00    +0.009 C 
ATOM     28  C   UNL     1      -0.443 -12.094  -0.433  0.00  0.00    +0.076 C 
ENDBRANCH  19  20
ENDBRANCH   4  19
TORSDOF 4
