REMARK  Name = ZINC14597884
REMARK  5 active torsions:
REMARK  status: ('A' for Active; 'I' for Inactive)
REMARK    1  A    between atoms: C_3  and  S_13
REMARK    2  A    between atoms: C_4  and  N_10
REMARK    3  A    between atoms: C_6  and  C_7
REMARK    4  A    between atoms: S_13  and  C_14
REMARK    5  A    between atoms: C_14  and  C_15
REMARK                            x       y       z     vdW  Elec       q    Type
REMARK                         _______ _______ _______ _____ _____    ______ ____
ROOT
ATOM      1  C   UNL     1       9.977   3.441   1.412  0.00  0.00    +0.014 A 
ATOM      2  C   UNL     1       8.768   2.784   1.416  0.00  0.00    +0.018 A 
ATOM      3  C   UNL     1       8.732   1.396   1.525  0.00  0.00    +0.039 A 
ATOM      4  C   UNL     1       9.917   0.672   1.635  0.00  0.00    +0.140 A 
ATOM      5  C   UNL     1      11.120   1.318   1.626  0.00  0.00    +0.047 A 
ATOM      6  C   UNL     1      11.165   2.712   1.517  0.00  0.00    +0.039 A 
ENDROOT
BRANCH   6   7
ATOM      7  C   UNL     1      12.464   3.410   1.513  0.00  0.00    +0.242 C 
ATOM      8  O   UNL     1      13.497   2.775   1.604  0.00  0.00    -0.270 OA
ATOM      9  N   UNL     1      12.506   4.754   1.408  0.00  0.00    -0.325 N 
ATOM     10  H   UNL     1      11.682   5.261   1.335  0.00  0.00    +0.145 HD
ATOM     11  H   UNL     1      13.361   5.213   1.406  0.00  0.00    +0.145 HD
ENDBRANCH   6   7
BRANCH   4  12
ATOM     12  N   UNL     1       9.873  -0.803   1.756  0.00  0.00    +0.058 N 
ATOM     13  O   UNL     1      10.908  -1.437   1.852  0.00  0.00    -0.126 OA
ATOM     14  O   UNL     1       8.801  -1.381   1.760  0.00  0.00    -0.126 OA
ENDBRANCH   4  12
BRANCH   3  15
ATOM     15  S   UNL     1       7.184   0.554   1.532  0.00  0.00    -0.114 S 
BRANCH  15  16
ATOM     16  C   UNL     1       5.960   1.885   1.378  0.00  0.00    +0.170 C 
BRANCH  16  17
ATOM     17  C   UNL     1       4.574   1.294   1.371  0.00  0.00    +0.226 C 
ATOM     18  O   UNL     1       4.426   0.094   1.460  0.00  0.00    -0.275 OA
ATOM     19  N   UNL     1       3.499   2.100   1.265  0.00  0.00    -0.297 N 
ATOM     20  C   UNL     1       3.655   3.558   1.155  0.00  0.00    +0.108 C 
ATOM     21  C   UNL     1       2.896   4.052  -0.080  0.00  0.00    +0.019 C 
ATOM     22  C   UNL     1       1.443   3.572  -0.019  0.00  0.00    +0.007 C 
ATOM     23  C   UNL     1       1.419   2.045  -0.001  0.00  0.00    +0.010 C 
ATOM     24  C   UNL     1       2.140   1.546   1.256  0.00  0.00    +0.079 C 
ATOM     25  C   UNL     1       2.183   0.019   1.234  0.00  0.00    +0.023 C 
ATOM     26  C   UNL     1       0.750  -0.520   1.232  0.00  0.00    +0.002 C 
ATOM     27  C   UNL     1       0.002  -0.004   0.002  0.00  0.00    +0.000 C 
ATOM     28  C   UNL     1      -0.019   1.527   0.010  0.00  0.00    +0.005 C 
ENDBRANCH  16  17
ENDBRANCH  15  16
ENDBRANCH   3  15
TORSDOF 5
