REMARK  Name = ZINC64732590
REMARK  15 active torsions:
REMARK  status: ('A' for Active; 'I' for Inactive)
REMARK    1  A    between atoms: C_1  and  C_2
REMARK    2  A    between atoms: C_2  and  O_3
REMARK    3  A    between atoms: O_3  and  C_4
REMARK    4  A    between atoms: C_4  and  C_6
REMARK    5  A    between atoms: C_8  and  C_35
REMARK    6  A    between atoms: C_9  and  C_13
REMARK    7  A    between atoms: C_10  and  C_12
REMARK    8  A    between atoms: C_13  and  C_14
REMARK    9  A    between atoms: C_14  and  C_15
REMARK   10  A    between atoms: C_20  and  C_23
REMARK   11  A    between atoms: N_25  and  C_26
REMARK   12  A    between atoms: C_26  and  C_27
REMARK   13  A    between atoms: C_27  and  C_28
REMARK   14  A    between atoms: C_29  and  C_34
REMARK   15  A    between atoms: C_32  and  C_33
REMARK                            x       y       z     vdW  Elec       q    Type
REMARK                         _______ _______ _______ _____ _____    ______ ____
ROOT
ATOM      1  C   UNL     1      -0.424  -4.785  -7.630  0.00  0.00    +0.216 C 
ATOM      2  O   UNL     1      -1.604  -5.007  -7.458  0.00  0.00    -0.276 OA
ATOM      3  N   UNL     1       0.130  -4.989  -8.841  0.00  0.00    -0.301 N 
ATOM      4  C   UNL     1       1.560  -4.731  -9.063  0.00  0.00    +0.108 C 
ATOM      5  C   UNL     1       1.710  -3.783 -10.257  0.00  0.00    +0.032 C 
ATOM      6  C   UNL     1       0.983  -4.373 -11.467  0.00  0.00    +0.078 C 
ATOM      7  C   UNL     1      -0.507  -4.517 -11.149  0.00  0.00    +0.032 C 
ATOM      8  C   UNL     1      -0.682  -5.478  -9.964  0.00  0.00    +0.108 C 
ENDROOT
BRANCH   6   9
ATOM      9  C   UNL     1       1.157  -3.460 -12.653  0.00  0.00    +0.216 C 
ATOM     10  O   UNL     1       1.800  -2.437 -12.541  0.00  0.00    -0.276 OA
ATOM     11  N   UNL     1       0.599  -3.779 -13.837  0.00  0.00    -0.315 N 
ATOM     12  H   UNL     1       0.086  -4.597 -13.927  0.00  0.00    +0.149 HD
BRANCH  11  13
ATOM     13  C   UNL     1       0.769  -2.891 -14.990  0.00  0.00    +0.109 C 
BRANCH  13  14
ATOM     14  C   UNL     1       0.042  -3.482 -16.200  0.00  0.00    +0.059 C 
BRANCH  14  15
ATOM     15  C   UNL     1       0.217  -2.568 -17.386  0.00  0.00    +0.019 A 
ATOM     16  C   UNL     1      -0.630  -1.502 -17.738  0.00  0.00    +0.084 A 
ATOM     17  N   UNL     1      -0.155  -0.949 -18.818  0.00  0.00    -0.083 NA
ATOM     18  O   UNL     1       1.017  -1.651 -19.189  0.00  0.00    -0.359 OA
ATOM     19  C   UNL     1       1.214  -2.627 -18.289  0.00  0.00    +0.138 A 
ATOM     20  C   UNL     1       2.349  -3.618 -18.292  0.00  0.00    +0.089 C 
ATOM     21  C   UNL     1      -1.870  -1.074 -16.996  0.00  0.00    +0.069 C 
ENDBRANCH  14  15
ENDBRANCH  13  14
ENDBRANCH  11  13
ENDBRANCH   6   9
BRANCH   1  22
ATOM     22  C   UNL     1       0.422  -4.283  -6.489  0.00  0.00    +0.100 C 
BRANCH  22  23
ATOM     23  C   UNL     1      -0.445  -4.139  -5.236  0.00  0.00    +0.046 C 
BRANCH  23  26
ATOM     24  C   UNL     1       1.468  -2.353  -2.550  0.00  0.00    +0.240 C 
ATOM     25  C   UNL     1       0.525  -2.360  -3.733  0.00  0.00    -0.033 C 
ATOM     26  C   UNL     1       0.401  -3.636  -4.095  0.00  0.00    -0.025 C 
ATOM     27  C   UNL     1       1.214  -4.475  -3.212  0.00  0.00    +0.037 C 
ATOM     28  N   UNL     1       1.829  -3.759  -2.327  0.00  0.00    -0.269 NA
ATOM     29  C   UNL     1       1.320  -5.974  -3.320  0.00  0.00    +0.065 C 
ATOM     30  C   UNL     1      -0.138  -1.168  -4.372  0.00  0.00    +0.042 C 
BRANCH  24  31
ATOM     31  C   UNL     1       0.775  -1.794  -1.334  0.00  0.00    +0.336 C 
ATOM     32  O   UNL     1       0.314  -2.540  -0.504  0.00  0.00    -0.248 OA
BRANCH  31  33
ATOM     33  O   UNL     1       0.671  -0.465  -1.174  0.00  0.00    -0.463 OA
BRANCH  33  35
ATOM     34  C   UNL     1      -0.019   1.526   0.010  0.00  0.00    +0.048 C 
ATOM     35  C   UNL     1       0.002  -0.004   0.002  0.00  0.00    +0.229 C 
ENDBRANCH  33  35
ENDBRANCH  31  33
ENDBRANCH  24  31
ENDBRANCH  23  26
ENDBRANCH  22  23
ENDBRANCH   1  22
TORSDOF 10
