REMARK  Name = ZINC00846346
REMARK  4 active torsions:
REMARK  status: ('A' for Active; 'I' for Inactive)
REMARK    1  A    between atoms: C_6  and  C_7
REMARK    2  A    between atoms: C_10  and  C_21
REMARK    3  A    between atoms: C_16  and  N_20
REMARK    4  A    between atoms: C_17  and  C_18
REMARK                            x       y       z     vdW  Elec       q    Type
REMARK                         _______ _______ _______ _____ _____    ______ ____
ROOT
ATOM      1  C   UNL     1      -1.423  -0.788   0.004  0.00  0.00    +0.102 C 
ATOM      2  C   UNL     1      -1.353  -1.756   1.156  0.00  0.00    +0.054 A 
ATOM      3  C   UNL     1      -1.422  -1.504   2.529  0.00  0.00    +0.100 A 
ATOM      4  N   UNL     1      -1.315  -2.658   3.160  0.00  0.00    -0.171 NA
ATOM      5  N   UNL     1      -1.174  -3.674   2.202  0.00  0.00    -0.246 N 
ATOM      6  H   UNL     1      -1.075  -4.622   2.385  0.00  0.00    +0.192 HD
ATOM      7  C   UNL     1      -1.200  -3.102   0.980  0.00  0.00    +0.223 A 
ATOM      8  O   UNL     1      -1.103  -3.674  -0.246  0.00  0.00    -0.423 OA
ATOM      9  C   UNL     1      -1.433  -2.921  -1.315  0.00  0.00    +0.200 C 
ATOM     10  C   UNL     1      -1.600  -1.579  -1.268  0.00  0.00    +0.098 C 
ENDROOT
BRANCH   3  11
ATOM     11  C   UNL     1      -1.588  -0.174   3.165  0.00  0.00    +0.006 A 
ATOM     12  C   UNL     1      -2.490   0.746   2.635  0.00  0.00    +0.014 A 
ATOM     13  C   UNL     1      -2.644   1.983   3.228  0.00  0.00    +0.050 A 
ATOM     14  C   UNL     1      -1.902   2.315   4.351  0.00  0.00    +0.166 A 
ATOM     15  C   UNL     1      -0.998   1.399   4.885  0.00  0.00    +0.167 A 
ATOM     16  C   UNL     1      -0.845   0.156   4.297  0.00  0.00    +0.059 A 
ATOM     17  O   UNL     1      -0.400   1.961   5.976  0.00  0.00    -0.453 OA
ATOM     18  C   UNL     1      -0.646   3.375   5.863  0.00  0.00    +0.466 C 
ATOM     19  O   UNL     1      -1.870   3.450   5.108  0.00  0.00    -0.453 OA
ENDBRANCH   3  11
BRANCH   1  25
ATOM     20  C   UNL     1      -0.194   1.392  -0.034  0.00  0.00    +0.006 A 
ATOM     21  C   UNL     1       0.977   2.125  -0.099  0.00  0.00    +0.020 A 
ATOM     22  C   UNL     1       2.194   1.476  -0.198  0.00  0.00    +0.041 A 
ATOM     23  C   UNL     1       2.240   0.094  -0.232  0.00  0.00    +0.020 A 
ATOM     24  C   UNL     1       1.070  -0.638  -0.167  0.00  0.00    +0.006 A 
ATOM     25  C   UNL     1      -0.147   0.011  -0.068  0.00  0.00    -0.034 A 
ATOM     26 CL   UNL     1       3.664   2.396  -0.281  0.00  0.00    -0.084 Cl
ENDBRANCH   1  25
BRANCH   9  27
ATOM     27  N   UNL     1      -1.611  -3.552  -2.520  0.00  0.00    -0.328 N 
ATOM     28  H   UNL     1      -1.499  -4.513  -2.586  0.00  0.00    +0.145 HD
ATOM     29  H   UNL     1      -1.849  -3.037  -3.307  0.00  0.00    +0.145 HD
ENDBRANCH   9  27
BRANCH  10  30
ATOM     30  C   UNL     1      -1.957  -0.885  -2.469  0.00  0.00    +0.101 C 
ATOM     31  N   UNL     1      -2.240  -0.334  -3.421  0.00  0.00    -0.191 NA
ENDBRANCH  10  30
TORSDOF 4
