REMARK  Name = ZINC35840358
REMARK  3 active torsions:
REMARK  status: ('A' for Active; 'I' for Inactive)
REMARK    1  A    between atoms: C_1  and  C_2
REMARK    2  A    between atoms: C_5  and  N_9
REMARK    3  A    between atoms: C_6  and  C_8
REMARK                            x       y       z     vdW  Elec       q    Type
REMARK                         _______ _______ _______ _____ _____    ______ ____
ROOT
ATOM      1  N   UNL     1       0.059  -4.172  -0.021  0.00  0.00    -0.210 N 
ATOM      2  C   UNL     1      -1.057  -4.911  -0.025  0.00  0.00    +0.228 C 
ATOM      3  O   UNL     1      -2.187  -4.472  -0.023  0.00  0.00    -0.275 OA
ATOM      4  C   UNL     1      -0.689  -6.377  -0.032  0.00  0.00    +0.074 C 
ATOM      5  C   UNL     1      -1.102  -7.001  -1.378  0.00  0.00    -0.054 C 
ATOM      6  C   UNL     1      -2.249  -6.175  -1.989  0.00  0.00    -0.016 C 
ATOM      7  C   UNL     1      -1.566  -5.112  -2.873  0.00  0.00    -0.020 C 
ATOM      8  C   UNL     1      -0.054  -5.362  -2.706  0.00  0.00    -0.076 C 
ATOM      9  N   UNL     1       0.072  -6.802  -2.280  0.00  0.00    +0.395 N 
ATOM     10  C   UNL     1       1.244  -6.969  -1.405  0.00  0.00    +0.053 C 
ATOM     11  C   UNL     1       0.864  -6.357  -0.035  0.00  0.00    +0.089 C 
ATOM     12  C   UNL     1       1.194  -4.881  -0.031  0.00  0.00    +0.229 C 
ATOM     13  O   UNL     1       2.312  -4.413  -0.033  0.00  0.00    -0.275 OA
ATOM     14  C   UNL     1       1.630  -8.415  -1.266  0.00  0.00    -0.026 A 
ATOM     15  C   UNL     1       0.969  -9.532  -0.805  0.00  0.00    +0.019 A 
ATOM     16  C   UNL     1       1.606 -10.761  -0.801  0.00  0.00    +0.018 A 
ATOM     17  C   UNL     1       2.906 -10.864  -1.262  0.00  0.00    +0.017 A 
ATOM     18  C   UNL     1       3.571  -9.748  -1.724  0.00  0.00    +0.024 A 
ATOM     19  C   UNL     1       2.938  -8.507  -1.732  0.00  0.00    +0.036 A 
ATOM     20  N   UNL     1       3.394  -7.253  -2.144  0.00  0.00    -0.286 N 
ATOM     21  C   UNL     1       2.460  -6.296  -1.985  0.00  0.00    +0.212 C 
ATOM     22  O   UNL     1       2.575  -5.119  -2.256  0.00  0.00    -0.277 OA
ATOM     23 BR   UNL     1       0.700 -12.295  -0.167  0.00  0.00    -0.050 Br
ATOM     24  H   UNL     1       4.280  -7.090  -2.503  0.00  0.00    +0.155 HD
ATOM     25  H   UNL     1       0.072  -7.440  -3.062  0.00  0.00    -0.079 HD
ENDROOT
BRANCH   1  30
ATOM     26  C   UNL     1      -0.018   1.503   0.010  0.00  0.00    +0.044 C 
ATOM     27  C   UNL     1       0.002  -0.004   0.002  0.00  0.00    -0.050 A 
ATOM     28  C   UNL     1       0.006  -0.688  -1.200  0.00  0.00    +0.005 A 
ATOM     29  C   UNL     1       0.025  -2.068  -1.211  0.00  0.00    +0.024 A 
ATOM     30  C   UNL     1       0.040  -2.771  -0.013  0.00  0.00    +0.047 A 
ATOM     31  C   UNL     1       0.037  -2.082   1.192  0.00  0.00    -0.028 A 
ATOM     32  C   UNL     1       0.023  -0.700   1.196  0.00  0.00    +0.008 A 
ATOM     33  C   UNL     1       0.053  -2.840   2.494  0.00  0.00    +0.046 C 
ENDBRANCH   1  30
TORSDOF 1
