REMARK  Name = ZINC19733964
REMARK  4 active torsions:
REMARK  status: ('A' for Active; 'I' for Inactive)
REMARK    1  A    between atoms: C_1  and  C_2
REMARK    2  A    between atoms: C_3  and  C_12
REMARK    3  A    between atoms: C_10  and  N_11
REMARK    4  A    between atoms: C_21  and  C_24
REMARK                            x       y       z     vdW  Elec       q    Type
REMARK                         _______ _______ _______ _____ _____    ______ ____
ROOT
ATOM      1  C   UNL     1      -0.832  -4.640   2.318  0.00  0.00    +0.066 C 
ATOM      2  C   UNL     1      -0.296  -5.076   0.979  0.00  0.00    +0.048 A 
ATOM      3  C   UNL     1       0.095  -4.261  -0.041  0.00  0.00    +0.093 A 
ATOM      4  N   UNL     1       0.505  -5.030  -1.061  0.00  0.00    -0.226 NA
ATOM      5  C   UNL     1       0.395  -6.304  -0.714  0.00  0.00    +0.159 A 
ATOM      6  N   UNL     1      -0.108  -6.362   0.559  0.00  0.00    -0.302 N 
ATOM      7  C   UNL     1      -0.327  -7.570   1.163  0.00  0.00    +0.093 A 
ATOM      8  C   UNL     1      -0.054  -8.723   0.518  0.00  0.00    +0.020 A 
ATOM      9  C   UNL     1       0.463  -8.702  -0.787  0.00  0.00    +0.028 A 
ATOM     10  C   UNL     1       0.688  -7.505  -1.405  0.00  0.00    +0.068 A 
ENDROOT
BRANCH   3  11
ATOM     11  C   UNL     1       0.066  -2.777  -0.029  0.00  0.00    +0.004 A 
ATOM     12  C   UNL     1      -0.955  -2.105   0.641  0.00  0.00    +0.014 A 
ATOM     13  C   UNL     1      -0.984  -0.725   0.655  0.00  0.00    +0.048 A 
ATOM     14  C   UNL     1       0.002  -0.004   0.002  0.00  0.00    +0.143 A 
ATOM     15  C   UNL     1       1.026  -0.671  -0.671  0.00  0.00    +0.076 A 
ATOM     16  C   UNL     1       1.059  -2.054  -0.686  0.00  0.00    +0.037 A 
ATOM     17  N   UNL     1       2.015   0.075  -1.328  0.00  0.00    -0.280 N 
ATOM     18  C   UNL     1       2.143   1.389  -1.041  0.00  0.00    +0.258 C 
ATOM     19  O   UNL     1       2.971   2.060  -1.618  0.00  0.00    -0.271 OA
ATOM     20  C   UNL     1       1.252   2.016   0.001  0.00  0.00    +0.256 C 
ATOM     21  O   UNL     1      -0.016   1.356   0.009  0.00  0.00    -0.478 OA
ATOM     22  C   UNL     1       1.905   1.882   1.378  0.00  0.00    +0.062 C 
ATOM     23  H   UNL     1       2.671  -0.411  -2.065  0.00  0.00    +0.155 HD
ENDBRANCH   3  11
BRANCH  10  24
ATOM     24  N   UNL     1       1.201  -7.465  -2.704  0.00  0.00    -0.355 N 
ATOM     25  H   UNL     1       1.426  -8.402  -3.235  0.00  0.00    +0.142 HD
ATOM     26  H   UNL     1       1.380  -6.497  -3.195  0.00  0.00    +0.142 HD
ENDBRANCH  10  24
TORSDOF 2
