REMARK  Name = ZINC62497926
REMARK  7 active torsions:
REMARK  status: ('A' for Active; 'I' for Inactive)
REMARK    1  A    between atoms: C_1  and  C_2
REMARK    2  A    between atoms: C_6  and  C_8
REMARK    3  A    between atoms: C_8  and  C_9
REMARK    4  A    between atoms: N_12  and  C_21
REMARK    5  A    between atoms: C_16  and  O_20
REMARK    6  A    between atoms: C_21  and  C_22
REMARK    7  A    between atoms: C_21  and  C_23
REMARK                            x       y       z     vdW  Elec       q    Type
REMARK                         _______ _______ _______ _____ _____    ______ ____
ROOT
ATOM      1  C   UNL     1       2.055  -2.941   2.663  0.00  0.00    +0.195 C 
ATOM      2  C   UNL     1       1.843  -3.739   3.958  0.00  0.00    +0.150 C 
ATOM      3  N   UNL     1       3.173  -4.085   4.489  0.00  0.00    -0.321 N 
ATOM      4  C   UNL     1       4.171  -3.094   4.449  0.00  0.00    +0.073 A 
ATOM      5  C   UNL     1       5.336  -3.254   5.181  0.00  0.00    +0.030 A 
ATOM      6  C   UNL     1       6.318  -2.281   5.138  0.00  0.00    +0.047 A 
ATOM      7  C   UNL     1       6.135  -1.146   4.362  0.00  0.00    +0.120 A 
ATOM      8  C   UNL     1       4.969  -0.982   3.631  0.00  0.00    +0.093 A 
ATOM      9  C   UNL     1       3.981  -1.955   3.672  0.00  0.00    +0.145 A 
ATOM     10  O   UNL     1       2.839  -1.782   2.954  0.00  0.00    -0.485 OA
ENDROOT
BRANCH   3  11
ATOM     11  C   UNL     1       3.446  -5.414   5.040  0.00  0.00    +0.068 C 
ATOM     12  C   UNL     1       2.545  -5.659   6.253  0.00  0.00    +0.027 C 
ATOM     13  C   UNL     1       3.166  -6.476   3.975  0.00  0.00    +0.027 C 
ENDBRANCH   3  11
BRANCH   7  14
ATOM     14  O   UNL     1       7.102  -0.191   4.319  0.00  0.00    -0.507 OA
ATOM     15  H   UNL     1       7.756  -0.324   3.620  0.00  0.00    +0.292 HD
ENDBRANCH   7  14
BRANCH   1  16
ATOM     16  C   UNL     1       0.699  -2.514   2.096  0.00  0.00    +0.081 C 
BRANCH  16  22
ATOM     17  C   UNL     1       1.490   1.650  -0.564  0.00  0.00    +0.044 C 
ATOM     18  C   UNL     1       1.280   0.159  -0.506  0.00  0.00    -0.050 A 
ATOM     19  C   UNL     1       1.273  -0.584  -1.671  0.00  0.00    +0.003 A 
ATOM     20  C   UNL     1       1.081  -1.952  -1.618  0.00  0.00    +0.001 A 
ATOM     21  C   UNL     1       0.895  -2.576  -0.398  0.00  0.00    +0.004 A 
ATOM     22  C   UNL     1       0.902  -1.833   0.767  0.00  0.00    -0.044 A 
ATOM     23  C   UNL     1       1.099  -0.466   0.714  0.00  0.00    +0.007 A 
ENDBRANCH  16  22
ENDBRANCH   1  16
TORSDOF 4
