REMARK  Name = ZINC49253310
REMARK  6 active torsions:
REMARK  status: ('A' for Active; 'I' for Inactive)
REMARK    1  A    between atoms: C_1  and  C_2
REMARK    2  A    between atoms: C_2  and  C_3
REMARK    3  A    between atoms: C_3  and  C_5
REMARK    4  A    between atoms: C_3  and  N_10
REMARK    5  A    between atoms: C_11  and  C_13
REMARK    6  A    between atoms: C_15  and  N_18
REMARK                            x       y       z     vdW  Elec       q    Type
REMARK                         _______ _______ _______ _____ _____    ______ ____
ROOT
ATOM      1  N   UNL     1      -0.055  -0.114  -2.441  0.00  0.00    -0.304 N 
ATOM      2  C   UNL     1       0.107   1.109  -2.984  0.00  0.00    +0.245 C 
ATOM      3  O   UNL     1       0.895   1.894  -2.492  0.00  0.00    -0.270 OA
ATOM      4  H   UNL     1      -0.683  -0.740  -2.833  0.00  0.00    +0.150 HD
ENDROOT
BRANCH   2   5
ATOM      5  C   UNL     1      -0.670   1.494  -4.173  0.00  0.00    +0.046 A 
ATOM      6  C   UNL     1      -0.519   2.792  -4.786  0.00  0.00    +0.053 A 
ATOM      7  C   UNL     1      -1.288   3.021  -5.869  0.00  0.00    +0.164 A 
ATOM      8  S   UNL     1      -2.196   1.501  -6.048  0.00  0.00    -0.072 S 
ATOM      9  C   UNL     1      -1.570   0.631  -4.757  0.00  0.00    +0.060 A 
BRANCH   7  10
ATOM     10  N   UNL     1      -1.360   4.240  -6.706  0.00  0.00    +0.063 N 
ATOM     11  O   UNL     1      -0.668   5.195  -6.443  0.00  0.00    -0.126 OA
ATOM     12  O   UNL     1      -2.112   4.280  -7.652  0.00  0.00    -0.126 OA
ENDBRANCH   7  10
ENDBRANCH   2   5
BRANCH   1  13
ATOM     13  C   UNL     1       0.718  -0.497  -1.257  0.00  0.00    +0.110 C 
BRANCH  13  14
ATOM     14  C   UNL     1       0.847  -1.998  -1.206  0.00  0.00    +0.010 A 
ATOM     15  C   UNL     1       1.917  -2.751  -0.851  0.00  0.00    +0.013 A 
ATOM     16  C   UNL     1       1.806  -4.129  -0.879  0.00  0.00    +0.008 A 
ATOM     17  C   UNL     1       0.630  -4.686  -1.260  0.00  0.00    +0.045 A 
ATOM     18  S   UNL     1      -0.371  -3.245  -1.589  0.00  0.00    -0.100 S 
ENDBRANCH  13  14
BRANCH  13  20
ATOM     19  C   UNL     1      -0.019   1.526   0.010  0.00  0.00    +0.006 C 
ATOM     20  C   UNL     1       0.002  -0.004   0.002  0.00  0.00    +0.024 C 
ENDBRANCH  13  20
ENDBRANCH   1  13
TORSDOF 5
