REMARK  Name = ZINC39449357
REMARK  5 active torsions:
REMARK  status: ('A' for Active; 'I' for Inactive)
REMARK    1  A    between atoms: C_1  and  S_2
REMARK    2  A    between atoms: S_2  and  N_3
REMARK    3  A    between atoms: C_11  and  O_14
REMARK    4  A    between atoms: C_16  and  C_21
REMARK    5  A    between atoms: C_26  and  O_27
REMARK                            x       y       z     vdW  Elec       q    Type
REMARK                         _______ _______ _______ _____ _____    ______ ____
ROOT
ATOM      1  N   UNL     1       0.316  -0.292  -1.153  0.00  0.00    -0.245 N 
ATOM      2  C   UNL     1      -0.263  -0.484  -2.401  0.00  0.00    +0.122 A 
ATOM      3  C   UNL     1       0.510  -0.820  -3.499  0.00  0.00    +0.082 A 
ATOM      4  C   UNL     1       1.961  -0.987  -3.346  0.00  0.00    +0.099 A 
ATOM      5  C   UNL     1       2.523  -0.789  -2.066  0.00  0.00    +0.071 A 
ATOM      6  C   UNL     1       1.640  -0.423  -0.949  0.00  0.00    +0.271 A 
ATOM      7  O   UNL     1       2.106  -0.241   0.161  0.00  0.00    -0.266 OA
ATOM      8  C   UNL     1       3.899  -0.942  -1.894  0.00  0.00    +0.062 A 
ATOM      9  C   UNL     1       4.659  -1.286  -3.005  0.00  0.00    +0.136 A 
ATOM     10  C   UNL     1       4.032  -1.466  -4.237  0.00  0.00    +0.156 A 
ATOM     11  N   UNL     1       2.733  -1.315  -4.374  0.00  0.00    -0.249 NA
ATOM     12  N   UNL     1      -0.086  -0.990  -4.734  0.00  0.00    -0.333 N 
ATOM     13  C   UNL     1      -1.342  -0.275  -5.006  0.00  0.00    +0.112 C 
ATOM     14  C   UNL     1      -2.326  -0.586  -3.873  0.00  0.00    +0.108 C 
ATOM     15  C   UNL     1      -1.659  -0.328  -2.547  0.00  0.00    +0.184 C 
ATOM     16  O   UNL     1      -2.328   0.018  -1.594  0.00  0.00    -0.290 OA
ATOM     17  H   UNL     1       0.314  -1.566  -5.404  0.00  0.00    +0.147 HD
ENDROOT
BRANCH  13  18
ATOM     18  C   UNL     1      -1.082   1.208  -5.062  0.00  0.00    +0.014 A 
ATOM     19  C   UNL     1       0.081   1.726  -4.525  0.00  0.00    +0.009 A 
ATOM     20  C   UNL     1       0.321   3.087  -4.575  0.00  0.00    +0.001 A 
ATOM     21  C   UNL     1      -0.602   3.933  -5.163  0.00  0.00    +0.004 A 
ATOM     22  C   UNL     1      -1.766   3.419  -5.702  0.00  0.00    +0.046 A 
ATOM     23  C   UNL     1      -2.006   2.054  -5.658  0.00  0.00    +0.122 A 
BRANCH  23  24
ATOM     24  O   UNL     1      -3.147   1.546  -6.192  0.00  0.00    -0.506 OA
ATOM     25  H   UNL     1      -3.886   1.499  -5.570  0.00  0.00    +0.292 HD
ENDBRANCH  23  24
ENDBRANCH  13  18
BRANCH   1  27
ATOM     26  C   UNL     1      -0.686   1.929   0.091  0.00  0.00    +0.110 C 
ATOM     27  S   UNL     1      -0.654   0.116   0.126  0.00  0.00    -0.044 S 
ENDBRANCH   1  27
BRANCH   9  28
ATOM     28  O   UNL     1       6.003  -1.447  -2.891  0.00  0.00    -0.505 OA
ATOM     29  H   UNL     1       6.274  -2.349  -2.673  0.00  0.00    +0.292 HD
ENDBRANCH   9  28
TORSDOF 4
