REMARK  Name = ZINC50334959
REMARK  7 active torsions:
REMARK  status: ('A' for Active; 'I' for Inactive)
REMARK    1  A    between atoms: C_1  and  C_2
REMARK    2  A    between atoms: C_6  and  O_9
REMARK    3  A    between atoms: C_7  and  C_8
REMARK    4  A    between atoms: O_9  and  C_10
REMARK    5  A    between atoms: C_11  and  N_16
REMARK    6  A    between atoms: C_17  and  C_19
REMARK    7  A    between atoms: C_20  and  C_21
REMARK                            x       y       z     vdW  Elec       q    Type
REMARK                         _______ _______ _______ _____ _____    ______ ____
ROOT
ATOM      1  C   UNL     1      -0.018  -4.140   2.305  0.00  0.00    +0.242 A 
ATOM      2  C   UNL     1      -0.126  -4.870   3.490  0.00  0.00    +0.096 A 
ATOM      3  C   UNL     1      -0.211  -6.255   3.421  0.00  0.00    +0.030 A 
ATOM      4  C   UNL     1      -0.185  -6.857   2.172  0.00  0.00    +0.022 A 
ATOM      5  C   UNL     1      -0.077  -6.070   1.043  0.00  0.00    +0.115 A 
ATOM      6  N   UNL     1      -0.003  -4.755   1.136  0.00  0.00    -0.219 NA
ENDROOT
BRANCH   2   7
ATOM      7  N   UNL     1      -0.147  -4.216   4.728  0.00  0.00    -0.278 N 
ATOM      8  C   UNL     1      -0.727  -4.807   5.792  0.00  0.00    +0.241 C 
ATOM      9  O   UNL     1      -1.321  -5.861   5.654  0.00  0.00    -0.270 OA
ATOM     10  H   UNL     1       0.255  -3.338   4.820  0.00  0.00    +0.155 HD
BRANCH   8  11
ATOM     11  C   UNL     1      -0.645  -4.201   7.070  0.00  0.00    +0.069 C 
ATOM     12  C   UNL     1      -1.227  -4.794   8.137  0.00  0.00    +0.033 C 
BRANCH  12  13
ATOM     13  C   UNL     1      -1.142  -4.166   9.461  0.00  0.00    +0.071 A 
ATOM     14  C   UNL     1      -1.716  -4.736  10.582  0.00  0.00    +0.074 A 
ATOM     15  S   UNL     1      -1.326  -3.631  11.786  0.00  0.00    -0.083 S 
ATOM     16  C   UNL     1      -0.475  -2.513  10.867  0.00  0.00    +0.156 A 
ATOM     17  N   UNL     1      -0.501  -3.010   9.660  0.00  0.00    -0.248 NA
ENDBRANCH  12  13
ENDBRANCH   8  11
ENDBRANCH   2   7
BRANCH   1  18
ATOM     18  O   UNL     1       0.066  -2.786   2.354  0.00  0.00    -0.436 OA
BRANCH  18  24
ATOM     19  C   UNL     1      -2.442  -0.904  -1.387  0.00  0.00    +0.044 C 
ATOM     20  C   UNL     1      -1.141  -1.167  -0.673  0.00  0.00    -0.044 A 
ATOM     21  C   UNL     1       0.048  -0.715  -1.214  0.00  0.00    +0.004 A 
ATOM     22  C   UNL     1       1.243  -0.955  -0.562  0.00  0.00    +0.004 A 
ATOM     23  C   UNL     1       1.252  -1.649   0.633  0.00  0.00    +0.046 A 
ATOM     24  C   UNL     1       0.060  -2.103   1.178  0.00  0.00    +0.134 A 
ATOM     25  C   UNL     1      -1.139  -1.856   0.524  0.00  0.00    -0.005 A 
ATOM     26  C   UNL     1      -2.436  -2.343   1.117  0.00  0.00    +0.048 C 
ENDBRANCH  18  24
ENDBRANCH   1  18
TORSDOF 5
