REMARK  Name = ZINC00803150
REMARK  4 active torsions:
REMARK  status: ('A' for Active; 'I' for Inactive)
REMARK    1  A    between atoms: C_1  and  O_2
REMARK    2  A    between atoms: O_2  and  C_3
REMARK    3  A    between atoms: C_6  and  C_9
REMARK    4  A    between atoms: C_12  and  C_21
REMARK                            x       y       z     vdW  Elec       q    Type
REMARK                         _______ _______ _______ _____ _____    ______ ____
ROOT
ATOM      1  C   UNL     1       2.501  -2.490  -4.387  0.00  0.00    +0.106 C 
ATOM      2  C   UNL     1       1.440  -2.959  -5.390  0.00  0.00    +0.058 C 
ATOM      3  C   UNL     1       2.123  -3.603  -6.603  0.00  0.00    +0.143 C 
ATOM      4  N   UNL     1       3.106  -4.576  -6.128  0.00  0.00    -0.224 N 
ATOM      5  C   UNL     1       3.618  -4.595  -4.874  0.00  0.00    +0.216 A 
ATOM      6  N   UNL     1       4.460  -5.591  -4.793  0.00  0.00    -0.180 NA
ATOM      7  C   UNL     1       4.514  -6.228  -5.972  0.00  0.00    +0.233 A 
ATOM      8  N   UNL     1       3.699  -5.636  -6.817  0.00  0.00    -0.132 NA
ATOM      9  N   UNL     1       5.308  -7.340  -6.256  0.00  0.00    -0.326 N 
ATOM     10  N   UNL     1       3.252  -3.666  -3.908  0.00  0.00    -0.307 N 
ATOM     11  H   UNL     1       5.882  -7.714  -5.570  0.00  0.00    +0.145 HD
ATOM     12  H   UNL     1       5.285  -7.739  -7.140  0.00  0.00    +0.145 HD
ATOM     13  H   UNL     1       3.476  -3.784  -2.972  0.00  0.00    +0.149 HD
ENDROOT
BRANCH   3  14
ATOM     14  C   UNL     1       1.091  -4.297  -7.454  0.00  0.00    -0.015 A 
ATOM     15  C   UNL     1       0.419  -5.377  -6.969  0.00  0.00    +0.006 A 
ATOM     16  C   UNL     1      -0.539  -6.032  -7.741  0.00  0.00    +0.001 A 
ATOM     17  C   UNL     1      -0.829  -5.611  -9.003  0.00  0.00    +0.008 A 
ATOM     18  C   UNL     1      -0.156  -4.500  -9.537  0.00  0.00    -0.018 A 
ATOM     19  C   UNL     1       0.814  -3.830  -8.749  0.00  0.00    -0.013 A 
ATOM     20  C   UNL     1       1.483  -2.715  -9.282  0.00  0.00    +0.009 A 
ATOM     21  C   UNL     1       1.189  -2.291 -10.541  0.00  0.00    +0.001 A 
ATOM     22  C   UNL     1       0.231  -2.946 -11.313  0.00  0.00    +0.001 A 
ATOM     23  C   UNL     1      -0.428  -4.037 -10.836  0.00  0.00    +0.008 A 
ENDBRANCH   3  14
BRANCH   1  27
ATOM     24  C   UNL     1       0.597  -0.560  -1.084  0.00  0.00    +0.120 A 
ATOM     25  C   UNL     1       1.173   0.198  -2.093  0.00  0.00    +0.046 A 
ATOM     26  C   UNL     1       1.788  -0.429  -3.160  0.00  0.00    +0.009 A 
ATOM     27  C   UNL     1       1.829  -1.809  -3.222  0.00  0.00    -0.027 A 
ATOM     28  C   UNL     1       1.255  -2.567  -2.218  0.00  0.00    +0.009 A 
ATOM     29  C   UNL     1       0.645  -1.945  -1.146  0.00  0.00    +0.046 A 
BRANCH  24  31
ATOM     30  C   UNL     1      -0.019   1.483  -0.035  0.00  0.00    +0.277 C 
ATOM     31  O   UNL     1      -0.008   0.054  -0.033  0.00  0.00    -0.495 OA
ENDBRANCH  24  31
ENDBRANCH   1  27
TORSDOF 3
