REMARK  Name = ZINC36868053
REMARK  5 active torsions:
REMARK  status: ('A' for Active; 'I' for Inactive)
REMARK    1  A    between atoms: C_1  and  C_2
REMARK    2  A    between atoms: C_3  and  C_11
REMARK    3  A    between atoms: C_4  and  C_10
REMARK    4  A    between atoms: N_5  and  C_7
REMARK    5  A    between atoms: C_7  and  C_8
REMARK                            x       y       z     vdW  Elec       q    Type
REMARK                         _______ _______ _______ _____ _____    ______ ____
ROOT
ATOM      1  C   UNL     1      -0.018   1.503   0.010  0.00  0.00    +0.068 C 
ATOM      2  C   UNL     1       0.002  -0.004   0.002  0.00  0.00    +0.070 A 
ATOM      3  C   UNL     1       0.008  -0.830  -1.148  0.00  0.00    +0.057 A 
ATOM      4  C   UNL     1       0.028  -2.142  -0.705  0.00  0.00    +0.048 A 
ATOM      5  N   UNL     1       0.034  -2.112   0.636  0.00  0.00    -0.254 N 
ATOM      6  N   UNL     1       0.023  -0.776   1.052  0.00  0.00    -0.175 NA
ATOM      7  C   UNL     1       0.041  -3.376  -1.570  0.00  0.00    +0.066 C 
ENDROOT
BRANCH   3   8
ATOM      8  C   UNL     1      -0.005  -0.381  -2.544  0.00  0.00    +0.262 C 
ATOM      9  O   UNL     1      -0.022   0.805  -2.800  0.00  0.00    -0.296 OA
ENDBRANCH   3   8
BRANCH   5  10
ATOM     10  C   UNL     1       0.053  -3.282   1.517  0.00  0.00    +0.261 C 
BRANCH  10  11
ATOM     11  C   UNL     1       1.448  -3.655   1.806  0.00  0.00    +0.086 C 
ATOM     12  N   UNL     1       2.524  -3.943   2.029  0.00  0.00    -0.195 NA
ENDBRANCH  10  11
ENDBRANCH   5  10
TORSDOF 3
