REMARK  Name = ZINC67637747
REMARK  7 active torsions:
REMARK  status: ('A' for Active; 'I' for Inactive)
REMARK    1  A    between atoms: C_1  and  C_2
REMARK    2  A    between atoms: C_7  and  N_12
REMARK    3  A    between atoms: C_9  and  C_11
REMARK    4  A    between atoms: N_12  and  C_13
REMARK    5  A    between atoms: C_13  and  N_15
REMARK    6  A    between atoms: N_15  and  N_16
REMARK    7  A    between atoms: C_17  and  C_19
REMARK                            x       y       z     vdW  Elec       q    Type
REMARK                         _______ _______ _______ _____ _____    ______ ____
ROOT
ATOM      1  N   UNL     1       2.708  -4.187   3.498  0.00  0.00    -0.246 N 
ATOM      2  H   UNL     1       3.129  -5.060   3.488  0.00  0.00    +0.172 HD
ENDROOT
BRANCH   1   3
ATOM      3  N   UNL     1       2.778  -3.389   4.647  0.00  0.00    -0.231 N 
ATOM      4  C   UNL     1       3.430  -3.835   5.739  0.00  0.00    +0.264 C 
ATOM      5  O   UNL     1       3.957  -4.930   5.727  0.00  0.00    -0.269 OA
ATOM      6  H   UNL     1       2.357  -2.515   4.657  0.00  0.00    +0.173 HD
BRANCH   4   7
ATOM      7  C   UNL     1       3.503  -2.995   6.950  0.00  0.00    +0.083 A 
ATOM      8  C   UNL     1       2.892  -1.738   6.970  0.00  0.00    +0.017 A 
ATOM      9  C   UNL     1       2.963  -0.956   8.102  0.00  0.00    +0.005 A 
ATOM     10  C   UNL     1       3.638  -1.409   9.223  0.00  0.00    +0.049 A 
ATOM     11  C   UNL     1       4.249  -2.653   9.219  0.00  0.00    +0.163 A 
ATOM     12  C   UNL     1       4.179  -3.456   8.086  0.00  0.00    +0.174 A 
ATOM     13  O   UNL     1       4.761  -4.683   8.066  0.00  0.00    -0.484 OA
ATOM     14  C   UNL     1       5.738  -4.951   9.077  0.00  0.00    +0.270 C 
ATOM     15  C   UNL     1       5.173  -4.483  10.426  0.00  0.00    +0.270 C 
ATOM     16  O   UNL     1       4.911  -3.075  10.331  0.00  0.00    -0.485 OA
ENDBRANCH   4   7
ENDBRANCH   1   3
BRANCH   1  17
ATOM     17  C   UNL     1       2.056  -3.740   2.406  0.00  0.00    +0.147 C 
ATOM     18  S   UNL     1       1.972  -4.715   1.002  0.00  0.00    -0.017 S 
BRANCH  17  19
ATOM     19  N   UNL     1       1.471  -2.526   2.420  0.00  0.00    -0.322 N 
ATOM     20  H   UNL     1       1.520  -1.974   3.216  0.00  0.00    +0.148 HD
BRANCH  19  26
ATOM     21  C   UNL     1      -0.019   1.526   0.010  0.00  0.00    +0.008 C 
ATOM     22  C   UNL     1       0.002  -0.004   0.002  0.00  0.00    -0.009 C 
ATOM     23  C   UNL     1      -1.433  -0.534   0.013  0.00  0.00    +0.003 C 
ATOM     24  C   UNL     1      -1.413  -2.063   0.004  0.00  0.00    +0.002 C 
ATOM     25  C   UNL     1      -0.673  -2.570   1.244  0.00  0.00    +0.022 C 
ATOM     26  C   UNL     1       0.763  -2.041   1.233  0.00  0.00    +0.075 C 
ATOM     27  C   UNL     1       0.742  -0.511   1.242  0.00  0.00    +0.009 C 
ATOM     28  C   UNL     1       0.026  -0.018   2.500  0.00  0.00    +0.009 C 
ENDBRANCH  19  26
ENDBRANCH  17  19
ENDBRANCH   1  17
TORSDOF 5
