REMARK  Name = ZINC04485098
REMARK  9 active torsions:
REMARK  status: ('A' for Active; 'I' for Inactive)
REMARK    1  A    between atoms: C_1  and  C_2
REMARK    2  A    between atoms: C_5  and  N_9
REMARK    3  A    between atoms: C_6  and  C_8
REMARK    4  A    between atoms: C_10  and  S_14
REMARK    5  A    between atoms: S_14  and  C_15
REMARK    6  A    between atoms: C_15  and  C_17
REMARK    7  A    between atoms: C_15  and  C_18
REMARK    8  A    between atoms: C_24  and  C_30
REMARK    9  A    between atoms: C_25  and  C_29
REMARK                            x       y       z     vdW  Elec       q    Type
REMARK                         _______ _______ _______ _____ _____    ______ ____
ROOT
ATOM      1  C   UNL     1      -1.750   5.938  -0.616  0.00  0.00    +0.117 C 
ATOM      2  C   UNL     1      -2.078   6.219   0.852  0.00  0.00    +0.027 C 
ENDROOT
BRANCH   1   3
ATOM      3  C   UNL     1      -0.498   5.104  -0.700  0.00  0.00    +0.124 A 
ATOM      4  N   UNL     1       0.700   5.717  -0.883  0.00  0.00    -0.309 N 
ATOM      5  H   UNL     1       0.734   6.713  -0.959  0.00  0.00    +0.170 HD
ATOM      6  C   UNL     1       1.843   5.010  -0.964  0.00  0.00    +0.260 A 
ATOM      7  O   UNL     1       2.910   5.576  -1.128  0.00  0.00    -0.267 OA
ATOM      8  C   UNL     1       1.785   3.583  -0.854  0.00  0.00    +0.075 A 
ATOM      9  C   UNL     1       2.861   2.611  -0.907  0.00  0.00    -0.026 A 
ATOM     10  C   UNL     1       2.573   1.306  -0.779  0.00  0.00    -0.008 A 
ATOM     11  S   UNL     1       0.802   1.293  -0.574  0.00  0.00    -0.073 S 
ATOM     12  C   UNL     1       0.501   3.039  -0.666  0.00  0.00    +0.116 A 
ATOM     13  N   UNL     1      -0.583   3.805  -0.592  0.00  0.00    -0.225 NA
ATOM     14  C   UNL     1       3.519   0.133  -0.804  0.00  0.00    +0.052 C 
ATOM     15  C   UNL     1       4.286   3.061  -1.104  0.00  0.00    +0.045 C 
ENDBRANCH   1   3
BRANCH   1  16
ATOM     16  S   UNL     1      -3.124   5.041  -1.381  0.00  0.00    -0.073 S 
BRANCH  16  18
ATOM     17  N   UNL     1      -5.664   6.149  -1.716  0.00  0.00    -0.187 N 
ATOM     18  C   UNL     1      -4.384   6.269  -1.283  0.00  0.00    +0.215 A 
ATOM     19  N   UNL     1      -4.262   7.475  -0.770  0.00  0.00    -0.101 NA
ATOM     20  N   UNL     1      -5.371   8.116  -0.861  0.00  0.00    -0.022 NA
ATOM     21  N   UNL     1      -6.271   7.381  -1.419  0.00  0.00    -0.038 NA
BRANCH  17  26
ATOM     22  C   UNL     1      -8.054   1.636  -4.194  0.00  0.00    +0.044 C 
ATOM     23  C   UNL     1      -7.419   2.834  -3.536  0.00  0.00    -0.050 A 
ATOM     24  C   UNL     1      -6.193   3.295  -3.978  0.00  0.00    +0.005 A 
ATOM     25  C   UNL     1      -5.611   4.396  -3.381  0.00  0.00    +0.028 A 
ATOM     26  C   UNL     1      -6.254   5.034  -2.329  0.00  0.00    +0.073 A 
ATOM     27  C   UNL     1      -7.486   4.569  -1.887  0.00  0.00    -0.025 A 
ATOM     28  C   UNL     1      -8.065   3.471  -2.493  0.00  0.00    +0.008 A 
ATOM     29  C   UNL     1      -8.190   5.263  -0.750  0.00  0.00    +0.046 C 
ENDBRANCH  17  26
ENDBRANCH  16  18
ENDBRANCH   1  16
TORSDOF 4
