REMARK  Name = ZINC57663316
REMARK  12 active torsions:
REMARK  status: ('A' for Active; 'I' for Inactive)
REMARK    1  A    between atoms: C_1  and  C_2
REMARK    2  A    between atoms: C_2  and  N_3
REMARK    3  A    between atoms: N_6  and  C_9
REMARK    4  A    between atoms: C_9  and  C_10
REMARK    5  A    between atoms: C_10  and  C_11
REMARK    6  A    between atoms: C_11  and  C_13
REMARK    7  A    between atoms: C_11  and  O_24
REMARK    8  A    between atoms: C_16  and  O_20
REMARK    9  A    between atoms: C_17  and  N_19
REMARK   10  A    between atoms: O_20  and  C_21
REMARK   11  A    between atoms: C_21  and  C_22
REMARK   12  A    between atoms: C_21  and  C_23
REMARK                            x       y       z     vdW  Elec       q    Type
REMARK                         _______ _______ _______ _____ _____    ______ ____
ROOT
ATOM      1  C   UNL     1       4.271  -4.562  -4.854  0.00  0.00    +0.146 C 
ENDROOT
BRANCH   1   2
ATOM      2  C   UNL     1       4.465  -6.051  -4.727  0.00  0.00    -0.017 A 
ATOM      3  C   UNL     1       3.397  -6.905  -4.934  0.00  0.00    +0.010 A 
ATOM      4  C   UNL     1       3.568  -8.272  -4.819  0.00  0.00    +0.048 A 
ATOM      5  C   UNL     1       4.812  -8.790  -4.496  0.00  0.00    +0.141 A 
ATOM      6  C   UNL     1       5.888  -7.930  -4.287  0.00  0.00    +0.067 A 
ATOM      7  C   UNL     1       5.710  -6.560  -4.409  0.00  0.00    +0.032 A 
BRANCH   6   8
ATOM      8  N   UNL     1       7.146  -8.448  -3.960  0.00  0.00    -0.355 N 
ATOM      9  H   UNL     1       7.270  -9.407  -3.878  0.00  0.00    +0.142 HD
ATOM     10  H   UNL     1       7.895  -7.848  -3.815  0.00  0.00    +0.142 HD
ENDBRANCH   6   8
BRANCH   5  11
ATOM     11  O   UNL     1       4.982 -10.135  -4.383  0.00  0.00    -0.488 OA
BRANCH  11  12
ATOM     12  C   UNL     1       3.868 -10.961  -4.727  0.00  0.00    +0.167 C 
ATOM     13  C   UNL     1       4.369 -12.345  -5.144  0.00  0.00    +0.051 C 
ATOM     14  C   UNL     1       2.940 -11.097  -3.518  0.00  0.00    +0.051 C 
ENDBRANCH  11  12
ENDBRANCH   5  11
ENDBRANCH   1   2
BRANCH   1  15
ATOM     15  O   UNL     1       3.319  -4.291  -5.884  0.00  0.00    -0.387 OA
ATOM     16  H   UNL     1       2.448  -4.679  -5.727  0.00  0.00    +0.210 HD
ENDBRANCH   1  15
BRANCH   1  17
ATOM     17  C   UNL     1       3.760  -3.999  -3.526  0.00  0.00    +0.051 C 
BRANCH  17  18
ATOM     18  C   UNL     1       3.682  -2.473  -3.615  0.00  0.00    +0.087 C 
BRANCH  18  22
ATOM     19  N   UNL     1       1.459  -0.339  -0.722  0.00  0.00    +0.381 N 
ATOM     20  C   UNL     1       2.860   0.046  -0.939  0.00  0.00    -0.063 C 
ATOM     21  C   UNL     1       3.326  -0.470  -2.302  0.00  0.00    +0.066 C 
ATOM     22  N   UNL     1       3.191  -1.933  -2.341  0.00  0.00    -0.306 NA
ATOM     23  C   UNL     1       1.798  -2.335  -2.100  0.00  0.00    +0.066 C 
ATOM     24  C   UNL     1       1.344  -1.803  -0.739  0.00  0.00    -0.063 C 
ATOM     25  H   UNL     1       0.886   0.051  -1.454  0.00  0.00    -0.082 HD
BRANCH  19  27
ATOM     26  C   UNL     1       1.008   1.702   0.554  0.00  0.00    -0.017 C 
ATOM     27  C   UNL     1       1.007   0.172   0.579  0.00  0.00    -0.082 C 
ENDBRANCH  19  27
ENDBRANCH  18  22
ENDBRANCH  17  18
ENDBRANCH   1  17
TORSDOF 9
