REMARK  Name = ZINC13521569
REMARK  8 active torsions:
REMARK  status: ('A' for Active; 'I' for Inactive)
REMARK    1  A    between atoms: C_5  and  C_7
REMARK    2  A    between atoms: N_12  and  C_29
REMARK    3  A    between atoms: C_13  and  C_20
REMARK    4  A    between atoms: C_15  and  N_17
REMARK    5  A    between atoms: C_23  and  O_28
REMARK    6  A    between atoms: C_24  and  C_26
REMARK    7  A    between atoms: C_26  and  O_27
REMARK    8  A    between atoms: C_29  and  C_30
REMARK                            x       y       z     vdW  Elec       q    Type
REMARK                         _______ _______ _______ _____ _____    ______ ____
ROOT
ATOM      1  C   UNL     1      -0.911   1.551  -1.285  0.00  0.00    +0.060 C 
ATOM      2  C   UNL     1      -0.071   1.175  -0.061  0.00  0.00    +0.106 C 
ATOM      3  C   UNL     1      -0.725   1.697   1.185  0.00  0.00    +0.217 C 
ATOM      4  O   UNL     1      -0.056   1.778   2.194  0.00  0.00    -0.276 OA
ATOM      5  N   UNL     1      -2.000   2.078   1.246  0.00  0.00    -0.288 N 
ATOM      6  C   UNL     1      -2.906   2.079   0.105  0.00  0.00    +0.136 C 
ATOM      7  C   UNL     1      -2.371   1.174  -1.005  0.00  0.00    +0.202 C 
ENDROOT
BRANCH   1  12
ATOM      8  C   UNL     1       0.033  -1.274  -3.605  0.00  0.00    +0.000 A 
ATOM      9  C   UNL     1       0.497  -0.582  -4.708  0.00  0.00    +0.001 A 
ATOM     10  C   UNL     1       0.507   0.800  -4.704  0.00  0.00    +0.015 A 
ATOM     11  C   UNL     1       0.050   1.491  -3.595  0.00  0.00    +0.021 A 
ATOM     12  C   UNL     1      -0.415   0.799  -2.492  0.00  0.00    -0.028 A 
ATOM     13  C   UNL     1      -0.419  -0.584  -2.495  0.00  0.00    +0.005 A 
ATOM     14 BR   UNL     1       0.063   3.382  -3.589  0.00  0.00    -0.050 Br
ENDBRANCH   1  12
BRANCH   6  15
ATOM     15  C   UNL     1      -4.260   1.582   0.544  0.00  0.00    -0.024 A 
ATOM     16  C   UNL     1      -4.361   0.421   1.288  0.00  0.00    +0.009 A 
ATOM     17  C   UNL     1      -5.599  -0.033   1.697  0.00  0.00    +0.046 A 
ATOM     18  C   UNL     1      -6.744   0.670   1.350  0.00  0.00    +0.122 A 
ATOM     19  C   UNL     1      -6.641   1.831   0.598  0.00  0.00    +0.020 A 
ATOM     20  C   UNL     1      -5.399   2.285   0.197  0.00  0.00    +0.015 A 
BRANCH  18  21
ATOM     21  O   UNL     1      -7.964   0.222   1.746  0.00  0.00    -0.506 OA
ATOM     22  H   UNL     1      -8.384  -0.382   1.118  0.00  0.00    +0.292 HD
ENDBRANCH  18  21
BRANCH  19  23
ATOM     23  C   UNL     1      -7.882   2.597   0.219  0.00  0.00    +0.194 C 
BRANCH  23  24
ATOM     24  O   UNL     1      -7.517   3.746  -0.548  0.00  0.00    -0.390 OA
ATOM     25  H   UNL     1      -8.268   4.287  -0.827  0.00  0.00    +0.210 HD
ENDBRANCH  23  24
ENDBRANCH  19  23
ENDBRANCH   6  15
BRANCH   7  26
ATOM     26  N   UNL     1      -3.168   1.362  -2.220  0.00  0.00    +0.028 N 
ATOM     27  O   UNL     1      -3.756   0.416  -2.715  0.00  0.00    -0.131 OA
ATOM     28  O   UNL     1      -3.244   2.463  -2.734  0.00  0.00    -0.131 OA
ENDBRANCH   7  26
BRANCH   5  29
ATOM     29  C   UNL     1      -2.523   2.523   2.540  0.00  0.00    +0.145 C 
BRANCH  29  30
ATOM     30  C   UNL     1      -2.343   4.014   2.669  0.00  0.00    -0.012 A 
ATOM     31  C   UNL     1      -1.162   4.537   3.174  0.00  0.00    +0.008 A 
ATOM     32  C   UNL     1      -1.039   5.915   3.270  0.00  0.00    +0.020 A 
ATOM     33  C   UNL     1      -2.094   6.715   2.873  0.00  0.00    +0.111 A 
ATOM     34  N   UNL     1      -3.204   6.182   2.402  0.00  0.00    -0.263 NA
ATOM     35  C   UNL     1      -3.354   4.876   2.291  0.00  0.00    +0.115 A 
ENDBRANCH  29  30
ENDBRANCH   5  29
TORSDOF 8
