REMARK  Name = ZINC39940577
REMARK  9 active torsions:
REMARK  status: ('A' for Active; 'I' for Inactive)
REMARK    1  A    between atoms: C_1  and  C_2
REMARK    2  A    between atoms: C_2  and  C_3
REMARK    3  A    between atoms: C_2  and  C_4
REMARK    4  A    between atoms: C_2  and  C_5
REMARK    5  A    between atoms: N_20  and  C_23
REMARK    6  A    between atoms: C_25  and  C_33
REMARK    7  A    between atoms: C_26  and  N_32
REMARK    8  A    between atoms: C_27  and  C_28
REMARK    9  A    between atoms: C_27  and  C_30
REMARK                            x       y       z     vdW  Elec       q    Type
REMARK                         _______ _______ _______ _____ _____    ______ ____
ROOT
ATOM      1  C   UNL     1       0.718  -0.497  -1.257  0.00  0.00    -0.001 C 
ATOM      2  C   UNL     1      -0.011   0.020  -2.503  0.00  0.00    +0.031 C 
ATOM      3  C   UNL     1       0.743  -0.454  -3.715  0.00  0.00    -0.024 C 
ATOM      4  C   UNL     1       2.024  -0.668  -3.700  0.00  0.00    -0.030 C 
ATOM      5  C   UNL     1       2.907  -0.453  -2.501  0.00  0.00    +0.042 C 
ATOM      6  C   UNL     1       2.147   0.040  -1.280  0.00  0.00    +0.014 C 
ATOM      7  C   UNL     1       3.986   0.570  -2.869  0.00  0.00    +0.117 C 
ATOM      8  C   UNL     1       5.049   0.604  -1.815  0.00  0.00    -0.004 A 
ATOM      9  C   UNL     1       5.930  -0.361  -1.378  0.00  0.00    +0.022 A 
ATOM     10  C   UNL     1       6.808  -0.000  -0.360  0.00  0.00    +0.018 A 
ATOM     11  C   UNL     1       6.793   1.269   0.184  0.00  0.00    +0.017 A 
ATOM     12  C   UNL     1       5.910   2.244  -0.251  0.00  0.00    +0.025 A 
ATOM     13  C   UNL     1       5.024   1.894  -1.271  0.00  0.00    +0.041 A 
ATOM     14  N   UNL     1       4.049   2.657  -1.889  0.00  0.00    -0.273 N 
ATOM     15  C   UNL     1       3.390   1.963  -2.840  0.00  0.00    +0.236 C 
ATOM     16  O   UNL     1       2.490   2.377  -3.540  0.00  0.00    -0.274 OA
ATOM     17  C   UNL     1       3.766   4.054  -1.551  0.00  0.00    +0.138 C 
ATOM     18 BR   UNL     1       8.045  -1.273   0.291  0.00  0.00    -0.050 Br
ATOM     19  C   UNL     1       4.572   0.288  -4.215  0.00  0.00    +0.069 C 
ATOM     20  C   UNL     1       4.000  -0.465  -5.153  0.00  0.00    +0.055 C 
ATOM     21  C   UNL     1       2.690  -1.175  -4.967  0.00  0.00    +0.202 C 
ENDROOT
BRANCH   1  23
ATOM     22  C   UNL     1      -0.019   1.526   0.010  0.00  0.00    +0.011 C 
ATOM     23  C   UNL     1       0.002  -0.004   0.002  0.00  0.00    -0.035 C 
ATOM     24  C   UNL     1       0.742  -0.511   1.242  0.00  0.00    +0.011 C 
ATOM     25  C   UNL     1      -1.433  -0.534   0.013  0.00  0.00    +0.011 C 
ENDBRANCH   1  23
BRANCH  20  26
ATOM     26  N   UNL     1       4.644  -0.599  -6.356  0.00  0.00    -0.358 N 
ATOM     27  H   UNL     1       5.492  -0.152  -6.505  0.00  0.00    +0.142 HD
ATOM     28  H   UNL     1       4.251  -1.141  -7.058  0.00  0.00    +0.142 HD
ENDBRANCH  20  26
BRANCH  21  29
ATOM     29  C   UNL     1       2.927  -2.623  -4.854  0.00  0.00    +0.095 C 
ATOM     30  N   UNL     1       3.110  -3.741  -4.766  0.00  0.00    -0.194 NA
ENDBRANCH  21  29
BRANCH  21  31
ATOM     31  C   UNL     1       1.818  -0.907  -6.122  0.00  0.00    +0.095 C 
ATOM     32  N   UNL     1       1.144  -0.700  -7.013  0.00  0.00    -0.194 NA
ENDBRANCH  21  31
BRANCH  19  33
ATOM     33  C   UNL     1       5.844   0.871  -4.519  0.00  0.00    +0.098 C 
ATOM     34  N   UNL     1       6.854   1.334  -4.760  0.00  0.00    -0.191 NA
ENDBRANCH  19  33
TORSDOF 5
