REMARK  Name = ZINC04685913
REMARK  7 active torsions:
REMARK  status: ('A' for Active; 'I' for Inactive)
REMARK    1  A    between atoms: C_1  and  C_2
REMARK    2  A    between atoms: N_5  and  S_8
REMARK    3  A    between atoms: S_8  and  N_11
REMARK    4  A    between atoms: C_14  and  C_17
REMARK    5  A    between atoms: N_19  and  C_20
REMARK    6  A    between atoms: C_20  and  C_21
REMARK    7  A    between atoms: C_21  and  N_66
REMARK                            x       y       z     vdW  Elec       q    Type
REMARK                         _______ _______ _______ _____ _____    ______ ____
ROOT
ATOM      1  N   UNL     1      -7.755  -1.243   5.758  0.00  0.00    -0.166 NA
ATOM      2  C   UNL     1      -6.712  -1.278   6.792  0.00  0.00    +0.111 C 
ATOM      3  C   UNL     1      -5.587  -0.319   6.391  0.00  0.00    +0.030 C 
ATOM      4  C   UNL     1      -5.093  -0.677   4.988  0.00  0.00    +0.077 C 
ATOM      5  C   UNL     1      -6.239  -0.523   3.986  0.00  0.00    +0.030 C 
ATOM      6  C   UNL     1      -7.372  -1.485   4.360  0.00  0.00    +0.111 C 
ENDROOT
BRANCH   4   7
ATOM      7  C   UNL     1      -3.963   0.243   4.603  0.00  0.00    +0.216 C 
ATOM      8  O   UNL     1      -3.590   1.101   5.375  0.00  0.00    -0.276 OA
ATOM      9  N   UNL     1      -3.367   0.113   3.401  0.00  0.00    -0.317 N 
ATOM     10  H   UNL     1      -3.666  -0.573   2.784  0.00  0.00    +0.149 HD
BRANCH   9  11
ATOM     11  C   UNL     1      -2.269   1.008   3.027  0.00  0.00    +0.085 C 
BRANCH  11  12
ATOM     12  C   UNL     1      -1.775   0.650   1.624  0.00  0.00    -0.060 C 
BRANCH  12  19
ATOM     13  C   UNL     1      -0.013   1.086   0.008  0.00  0.00    -0.079 C 
ATOM     14  C   UNL     1      -0.709   1.568  -1.236  0.00  0.00    -0.019 C 
ATOM     15  C   UNL     1      -0.035   2.878  -1.696  0.00  0.00    -0.002 C 
ATOM     16  C   UNL     1      -0.471   4.027  -0.910  0.00  0.00    -0.002 C 
ATOM     17  C   UNL     1      -0.118   3.878   0.585  0.00  0.00    -0.019 C 
ATOM     18  C   UNL     1      -1.122   2.957   1.223  0.00  0.00    -0.079 C 
ATOM     19  N   UNL     1      -0.645   1.534   1.296  0.00  0.00    +0.381 N 
ATOM     20  H   UNL     1       0.057   1.466   2.042  0.00  0.00    -0.082 HD
ENDBRANCH  12  19
ENDBRANCH  11  12
ENDBRANCH   9  11
ENDBRANCH   4   7
BRANCH   1  21
ATOM     21  S   UNL     1      -9.332  -0.939   6.160  0.00  0.00    +0.100 S 
ATOM     22  O   UNL     1     -10.130  -1.505   5.130  0.00  0.00    -0.141 OA
ATOM     23  O   UNL     1      -9.480  -1.302   7.526  0.00  0.00    -0.141 OA
BRANCH  21  28
ATOM     24  C   UNL     1      -7.908   4.551   5.310  0.00  0.00    +0.007 C 
ATOM     25  C   UNL     1      -8.870   3.415   5.667  0.00  0.00    -0.012 C 
ATOM     26  C   UNL     1      -8.988   2.456   4.480  0.00  0.00    +0.020 C 
ATOM     27  C   UNL     1      -9.978   1.339   4.829  0.00  0.00    +0.111 C 
ATOM     28  N   UNL     1      -9.549   0.701   6.081  0.00  0.00    -0.166 NA
ATOM     29  C   UNL     1      -9.323   1.545   7.262  0.00  0.00    +0.111 C 
ATOM     30  C   UNL     1      -8.336   2.659   6.885  0.00  0.00    +0.020 C 
ENDBRANCH  21  28
ENDBRANCH   1  21
TORSDOF 6
