REMARK  Name = ZINC39521726
REMARK  6 active torsions:
REMARK  status: ('A' for Active; 'I' for Inactive)
REMARK    1  A    between atoms: C_1  and  O_2
REMARK    2  A    between atoms: O_2  and  C_3
REMARK    3  A    between atoms: N_9  and  O_10
REMARK    4  A    between atoms: O_10  and  C_11
REMARK    5  A    between atoms: C_15  and  C_18
REMARK    6  A    between atoms: C_23  and  O_24
REMARK                            x       y       z     vdW  Elec       q    Type
REMARK                         _______ _______ _______ _____ _____    ______ ____
ROOT
ATOM      1  C   UNL     1      -1.289  -0.604   0.125  0.00  0.00    +0.213 C 
ATOM      2  C   UNL     1      -1.163  -2.122  -0.021  0.00  0.00    +0.050 C 
ATOM      3  C   UNL     1      -2.546  -2.761   0.131  0.00  0.00    +0.006 C 
ATOM      4  C   UNL     1      -3.132  -2.371   1.491  0.00  0.00    +0.025 C 
ATOM      5  C   UNL     1      -3.202  -0.846   1.593  0.00  0.00    +0.050 C 
ATOM      6  N   UNL     1      -1.854  -0.282   1.442  0.00  0.00    -0.154 NA
ATOM      7  C   UNL     1      -4.111  -0.302   0.489  0.00  0.00    +0.025 C 
ATOM      8  C   UNL     1      -5.514  -0.892   0.648  0.00  0.00    +0.002 C 
ATOM      9  C   UNL     1      -6.080  -0.501   2.014  0.00  0.00    +0.008 C 
ATOM     10  C   UNL     1      -5.171  -1.043   3.118  0.00  0.00    +0.024 C 
ATOM     11  C   UNL     1      -3.768  -0.453   2.960  0.00  0.00    +0.033 C 
ENDROOT
BRANCH  10  12
ATOM     12  C   UNL     1      -5.729  -0.657   4.464  0.00  0.00    -0.003 A 
ATOM     13  C   UNL     1      -5.895   0.676   4.787  0.00  0.00    +0.007 A 
ATOM     14  C   UNL     1      -6.406   1.031   6.021  0.00  0.00    +0.001 A 
ATOM     15  C   UNL     1      -6.754   0.053   6.935  0.00  0.00    +0.004 A 
ATOM     16  C   UNL     1      -6.591  -1.281   6.617  0.00  0.00    +0.046 A 
ATOM     17  C   UNL     1      -6.082  -1.640   5.377  0.00  0.00    +0.120 A 
BRANCH  17  18
ATOM     18  O   UNL     1      -5.926  -2.952   5.059  0.00  0.00    -0.506 OA
ATOM     19  H   UNL     1      -5.063  -3.315   5.301  0.00  0.00    +0.292 HD
ENDBRANCH  17  18
ENDBRANCH  10  12
BRANCH   1  21
ATOM     20  C   UNL     1      -0.032   1.396  -0.281  0.00  0.00    +0.196 C 
ATOM     21  O   UNL     1       0.002  -0.004   0.002  0.00  0.00    -0.363 OA
ENDBRANCH   1  21
BRANCH   6  22
ATOM     22  O   UNL     1      -1.862   1.163   1.671  0.00  0.00    -0.297 OA
ATOM     23  C   UNL     1      -1.031   1.584   2.754  0.00  0.00    +0.221 C 
ENDBRANCH   6  22
TORSDOF 4
