REMARK  Name = ZINC09885598
REMARK  10 active torsions:
REMARK  status: ('A' for Active; 'I' for Inactive)
REMARK    1  A    between atoms: C_1  and  C_2
REMARK    2  A    between atoms: C_4  and  N_11
REMARK    3  A    between atoms: C_6  and  C_8
REMARK    4  A    between atoms: C_8  and  C_9
REMARK    5  A    between atoms: C_8  and  C_10
REMARK    6  A    between atoms: C_16  and  C_18
REMARK    7  A    between atoms: C_16  and  C_19
REMARK    8  A    between atoms: C_16  and  N_67
REMARK    9  A    between atoms: N_21  and  C_22
REMARK   10  A    between atoms: C_23  and  C_32
REMARK                            x       y       z     vdW  Elec       q    Type
REMARK                         _______ _______ _______ _____ _____    ______ ____
ROOT
ATOM      1  C   UNL     1       6.647  -3.349  -1.137  0.00  0.00    +0.017 C 
ATOM      2  C   UNL     1       7.042  -2.702  -2.466  0.00  0.00    -0.004 C 
ENDROOT
BRANCH   1   8
ATOM      3  N   UNL     1       4.002  -1.101   1.270  0.00  0.00    -0.319 N 
ATOM      4  C   UNL     1       4.362  -0.560  -0.048  0.00  0.00    +0.088 C 
ATOM      5  C   UNL     1       5.652  -1.225  -0.534  0.00  0.00    -0.059 C 
ATOM      6  C   UNL     1       5.093  -3.221   0.716  0.00  0.00    -0.059 C 
ATOM      7  C   UNL     1       3.804  -2.556   1.202  0.00  0.00    +0.088 C 
ATOM      8  N   UNL     1       5.433  -2.684  -0.619  0.00  0.00    +0.389 N 
ATOM      9  H   UNL     1       4.652  -2.868  -1.261  0.00  0.00    -0.081 HD
BRANCH   3  13
ATOM     10  C   UNL     1       1.623   2.994   2.613  0.00  0.00    +0.066 C 
ATOM     11  C   UNL     1       1.704   1.500   2.433  0.00  0.00    +0.044 A 
ATOM     12  C   UNL     1       2.849   0.918   1.924  0.00  0.00    +0.066 A 
ATOM     13  C   UNL     1       2.876  -0.470   1.774  0.00  0.00    +0.125 A 
ATOM     14  N   UNL     1       1.805  -1.177   2.124  0.00  0.00    -0.217 NA
ATOM     15  C   UNL     1       0.734  -0.580   2.605  0.00  0.00    +0.134 A 
ATOM     16  N   UNL     1       0.676   0.728   2.759  0.00  0.00    -0.237 NA
BRANCH  15  17
ATOM     17  C   UNL     1      -0.460  -1.415   2.990  0.00  0.00    +0.051 C 
ATOM     18  C   UNL     1      -0.762  -1.218   4.477  0.00  0.00    +0.015 C 
ATOM     19  C   UNL     1      -1.672  -0.986   2.162  0.00  0.00    +0.015 C 
ENDBRANCH  15  17
ENDBRANCH   3  13
ENDBRANCH   1   8
BRANCH   1  20
ATOM     20  C   UNL     1       6.348  -4.809  -1.359  0.00  0.00    +0.204 C 
ATOM     21  O   UNL     1       5.210  -5.168  -1.582  0.00  0.00    -0.277 OA
ATOM     22  N   UNL     1       7.343  -5.716  -1.310  0.00  0.00    -0.280 N 
ATOM     23  H   UNL     1       8.252  -5.430  -1.133  0.00  0.00    +0.155 HD
BRANCH  22  24
ATOM     24  C   UNL     1       7.067  -7.061  -1.515  0.00  0.00    +0.090 A 
ATOM     25  C   UNL     1       7.945  -8.132  -1.504  0.00  0.00    +0.084 A 
ATOM     26  C   UNL     1       7.399  -9.460  -1.747  0.00  0.00    -0.018 A 
ATOM     27  C   UNL     1       6.067  -9.496  -1.969  0.00  0.00    -0.004 A 
ATOM     28  S   UNL     1       5.538  -7.809  -1.838  0.00  0.00    -0.077 S 
ATOM     29  C   UNL     1       5.219 -10.694  -2.261  0.00  0.00    +0.043 C 
ATOM     30  C   UNL     1       5.529 -11.794  -1.237  0.00  0.00    +0.005 C 
ATOM     31  C   UNL     1       6.669 -12.651  -1.777  0.00  0.00    +0.001 C 
ATOM     32  C   UNL     1       7.625 -11.793  -2.604  0.00  0.00    +0.005 C 
ATOM     33  C   UNL     1       8.263 -10.715  -1.734  0.00  0.00    +0.037 C 
BRANCH  25  34
ATOM     34  C   UNL     1       9.343  -7.940  -1.262  0.00  0.00    +0.102 C 
ATOM     35  N   UNL     1      10.453  -7.787  -1.070  0.00  0.00    -0.191 NA
ENDBRANCH  25  34
ENDBRANCH  22  24
ENDBRANCH   1  20
TORSDOF 6
