REMARK  Name = ZINC22452970
REMARK  8 active torsions:
REMARK  status: ('A' for Active; 'I' for Inactive)
REMARK    1  A    between atoms: C_1  and  C_2
REMARK    2  A    between atoms: C_2  and  C_3
REMARK    3  A    between atoms: C_15  and  C_21
REMARK    4  A    between atoms: C_16  and  C_18
REMARK    5  A    between atoms: C_18  and  O_19
REMARK    6  A    between atoms: O_19  and  C_20
REMARK    7  A    between atoms: C_21  and  C_22
REMARK    8  A    between atoms: C_22  and  C_23
REMARK                            x       y       z     vdW  Elec       q    Type
REMARK                         _______ _______ _______ _____ _____    ______ ____
ROOT
ATOM      1  C   UNL     1      -0.167   1.902  -1.031  0.00  0.00    +0.076 C 
ATOM      2  C   UNL     1       0.547   1.507  -2.325  0.00  0.00    +0.022 C 
ATOM      3  C   UNL     1      -0.449   1.558  -3.488  0.00  0.00    +0.003 C 
ATOM      4  C   UNL     1      -1.044   2.966  -3.579  0.00  0.00    +0.019 C 
ATOM      5  C   UNL     1      -1.712   3.318  -2.248  0.00  0.00    +0.108 C 
ATOM      6  N   UNL     1      -0.719   3.257  -1.168  0.00  0.00    -0.298 N 
ATOM      7  C   UNL     1      -1.252   3.691   0.015  0.00  0.00    +0.199 A 
ATOM      8  N   UNL     1      -1.580   5.004   0.158  0.00  0.00    -0.295 N 
ATOM      9  H   UNL     1      -1.415   5.706  -0.672  0.00  0.00    +0.172 HD
ATOM     10  C   UNL     1      -2.107   5.440   1.322  0.00  0.00    +0.256 A 
ATOM     11  O   UNL     1      -2.407   6.614   1.468  0.00  0.00    -0.267 OA
ATOM     12  C   UNL     1      -2.304   4.516   2.364  0.00  0.00    +0.041 A 
ATOM     13  C   UNL     1      -1.956   3.212   2.162  0.00  0.00    +0.079 A 
ATOM     14  N   UNL     1      -1.444   2.830   0.994  0.00  0.00    -0.218 NA
ENDROOT
BRANCH   1  16
ATOM     15  C   UNL     1       1.954   2.873  -0.138  0.00  0.00    +0.006 C 
ATOM     16  C   UNL     1       0.829   1.873   0.130  0.00  0.00    +0.019 C 
ENDBRANCH   1  16
BRANCH  13  17
ATOM     17  C   UNL     1      -2.157   2.201   3.262  0.00  0.00    +0.215 C 
BRANCH  17  18
ATOM     18  O   UNL     1      -3.151   1.255   2.864  0.00  0.00    -0.377 OA
ATOM     19  C   UNL     1      -3.419   0.247   3.841  0.00  0.00    +0.194 C 
ENDBRANCH  17  18
ENDBRANCH  13  17
BRANCH  12  20
ATOM     20  C   UNL     1      -2.889   4.958   3.680  0.00  0.00    +0.047 C 
BRANCH  20  21
ATOM     21  C   UNL     1      -1.772   5.483   4.584  0.00  0.00    +0.040 C 
BRANCH  21  22
ATOM     22  C   UNL     1      -2.357   5.925   5.901  0.00  0.00    -0.047 A 
ATOM     23  C   UNL     1      -2.780   7.231   6.065  0.00  0.00    +0.003 A 
ATOM     24  C   UNL     1      -3.321   7.635   7.271  0.00  0.00    +0.000 A 
ATOM     25  C   UNL     1      -3.430   6.737   8.316  0.00  0.00    +0.000 A 
ATOM     26  C   UNL     1      -3.001   5.432   8.153  0.00  0.00    +0.000 A 
ATOM     27  C   UNL     1      -2.465   5.027   6.946  0.00  0.00    +0.003 A 
ENDBRANCH  21  22
ENDBRANCH  20  21
ENDBRANCH  12  20
TORSDOF 6
