REMARK  Name = ZINC19959729
REMARK  3 active torsions:
REMARK  status: ('A' for Active; 'I' for Inactive)
REMARK    1  A    between atoms: C_1  and  C_2
REMARK    2  A    between atoms: C_7  and  C_19
REMARK    3  A    between atoms: C_13  and  C_18
REMARK                            x       y       z     vdW  Elec       q    Type
REMARK                         _______ _______ _______ _____ _____    ______ ____
ROOT
ATOM      1  C   UNL     1      -0.032   1.512   0.046  0.00  0.00    +0.090 C 
ATOM      2  C   UNL     1      -0.007   0.006   0.026  0.00  0.00    +0.150 A 
ATOM      3  N   UNL     1       0.003  -0.755  -1.073  0.00  0.00    -0.198 NA
ATOM      4  C   UNL     1       0.022  -2.014  -0.733  0.00  0.00    +0.219 A 
ATOM      5  N   UNL     1       0.032  -2.082   0.622  0.00  0.00    -0.221 N 
ATOM      6  N   UNL     1       0.015  -0.767   1.085  0.00  0.00    -0.153 NA
ATOM      7  C   UNL     1       0.064  -3.337   1.362  0.00  0.00    +0.176 C 
ATOM      8  C   UNL     1      -0.259  -4.491   0.438  0.00  0.00    +0.041 C 
ATOM      9  C   UNL     1      -0.251  -4.358  -0.906  0.00  0.00    +0.020 C 
ATOM     10  N   UNL     1       0.032  -3.158  -1.514  0.00  0.00    -0.287 N 
ATOM     11  C   UNL     1      -0.553  -5.535  -1.803  0.00  0.00    +0.055 C 
ATOM     12  C   UNL     1      -1.544  -6.470  -1.107  0.00  0.00    -0.001 C 
ATOM     13  C   UNL     1      -0.923  -6.931   0.216  0.00  0.00    +0.083 C 
ATOM     14  C   UNL     1      -0.573  -5.723   1.039  0.00  0.00    +0.163 C 
ATOM     15  O   UNL     1      -0.560  -5.813   2.251  0.00  0.00    -0.292 OA
ATOM     16  C   UNL     1      -1.820  -7.683  -1.998  0.00  0.00    +0.008 C 
ATOM     17  H   UNL     1       0.232  -3.114  -2.462  0.00  0.00    +0.155 HD
ENDROOT
BRANCH   7  18
ATOM     18  C   UNL     1       1.438  -3.537   1.948  0.00  0.00    -0.011 A 
ATOM     19  C   UNL     1       2.510  -3.720   1.130  0.00  0.00    +0.006 A 
ATOM     20  C   UNL     1       3.788  -3.907   1.654  0.00  0.00    +0.001 A 
ATOM     21  C   UNL     1       4.000  -3.912   2.998  0.00  0.00    +0.008 A 
ATOM     22  C   UNL     1       2.918  -3.726   3.874  0.00  0.00    -0.018 A 
ATOM     23  C   UNL     1       1.619  -3.530   3.341  0.00  0.00    -0.012 A 
ATOM     24  C   UNL     1       0.536  -3.338   4.217  0.00  0.00    +0.009 A 
ATOM     25  C   UNL     1       0.750  -3.337   5.561  0.00  0.00    +0.001 A 
ATOM     26  C   UNL     1       2.028  -3.524   6.085  0.00  0.00    +0.001 A 
ATOM     27  C   UNL     1       3.098  -3.726   5.268  0.00  0.00    +0.008 A 
ENDBRANCH   7  18
TORSDOF 1
