REMARK  Name = ZINC40888382
REMARK  9 active torsions:
REMARK  status: ('A' for Active; 'I' for Inactive)
REMARK    1  A    between atoms: C_1  and  C_2
REMARK    2  A    between atoms: C_4  and  C_23
REMARK    3  A    between atoms: C_5  and  C_22
REMARK    4  A    between atoms: C_6  and  O_8
REMARK    5  A    between atoms: O_8  and  C_9
REMARK    6  A    between atoms: C_9  and  C_10
REMARK    7  A    between atoms: N_12  and  N_13
REMARK    8  A    between atoms: C_14  and  C_15
REMARK    9  A    between atoms: C_19  and  O_21
REMARK                            x       y       z     vdW  Elec       q    Type
REMARK                         _______ _______ _______ _____ _____    ______ ____
ROOT
ATOM      1  C   UNL     1       0.063  -2.932   4.751  0.00  0.00    +0.270 C 
ATOM      2  O   UNL     1       0.078  -4.133   4.584  0.00  0.00    -0.270 OA
ATOM      3  N   UNL     1       0.062  -2.425   6.000  0.00  0.00    -0.204 N 
ATOM      4  H   UNL     1       0.050  -1.465   6.134  0.00  0.00    +0.177 HD
ENDROOT
BRANCH   3   5
ATOM      5  N   UNL     1       0.078  -3.286   7.105  0.00  0.00    -0.188 NA
ATOM      6  C   UNL     1       0.077  -2.799   8.307  0.00  0.00    +0.138 C 
BRANCH   6   7
ATOM      7  C   UNL     1       0.095  -3.705   9.471  0.00  0.00    -0.002 A 
ATOM      8  C   UNL     1       0.118  -5.089   9.281  0.00  0.00    +0.010 A 
ATOM      9  C   UNL     1       0.134  -5.934  10.372  0.00  0.00    +0.004 A 
ATOM     10  C   UNL     1       0.127  -5.415  11.654  0.00  0.00    +0.045 A 
ATOM     11  C   UNL     1       0.104  -4.041  11.853  0.00  0.00    +0.117 A 
ATOM     12  C   UNL     1       0.094  -3.183  10.766  0.00  0.00    +0.054 A 
BRANCH  11  13
ATOM     13  O   UNL     1       0.097  -3.538  13.115  0.00  0.00    -0.507 OA
ATOM     14  H   UNL     1       0.978  -3.377  13.479  0.00  0.00    +0.292 HD
ENDBRANCH  11  13
ENDBRANCH   6   7
ENDBRANCH   3   5
BRANCH   1  15
ATOM     15  C   UNL     1       0.045  -2.006   3.562  0.00  0.00    +0.326 C 
BRANCH  15  16
ATOM     16  O   UNL     1       0.050  -2.776   2.358  0.00  0.00    -0.482 OA
BRANCH  16  22
ATOM     17  C   UNL     1      -0.018   1.503   0.010  0.00  0.00    +0.044 C 
ATOM     18  C   UNL     1       0.002  -0.004   0.002  0.00  0.00    -0.047 A 
ATOM     19  C   UNL     1       0.006  -0.688  -1.200  0.00  0.00    +0.007 A 
ATOM     20  C   UNL     1       0.024  -2.071  -1.211  0.00  0.00    -0.044 A 
ATOM     21  C   UNL     1       0.039  -2.772  -0.020  0.00  0.00    -0.006 A 
ATOM     22  C   UNL     1       0.035  -2.088   1.186  0.00  0.00    +0.125 A 
ATOM     23  C   UNL     1       0.023  -0.700   1.195  0.00  0.00    +0.049 A 
ATOM     24  C   UNL     1       0.059  -4.279  -0.033  0.00  0.00    +0.048 C 
ATOM     25  C   UNL     1       0.028  -2.813  -2.522  0.00  0.00    +0.044 C 
ENDBRANCH  16  22
ENDBRANCH  15  16
ENDBRANCH   1  15
TORSDOF 6
