REMARK  Name = ZINC67608597
REMARK  5 active torsions:
REMARK  status: ('A' for Active; 'I' for Inactive)
REMARK    1  A    between atoms: C_1  and  C_2
REMARK    2  A    between atoms: C_4  and  C_7
REMARK    3  A    between atoms: C_7  and  N_8
REMARK    4  A    between atoms: C_13  and  C_20
REMARK    5  A    between atoms: C_16  and  C_19
REMARK                            x       y       z     vdW  Elec       q    Type
REMARK                         _______ _______ _______ _____ _____    ______ ____
ROOT
ATOM      1  N   UNL     1      -1.695  -3.829  -1.387  0.00  0.00    -0.294 N 
ATOM      2  C   UNL     1      -2.442  -4.923  -1.635  0.00  0.00    +0.303 C 
ATOM      3  O   UNL     1      -2.882  -5.581  -0.712  0.00  0.00    -0.253 OA
ATOM      4  N   UNL     1      -2.702  -5.288  -2.906  0.00  0.00    -0.285 N 
ATOM      5  C   UNL     1      -2.080  -4.576  -4.031  0.00  0.00    +0.112 C 
ATOM      6  C   UNL     1      -1.379  -5.597  -4.933  0.00  0.00    +0.004 C 
ATOM      7  C   UNL     1      -2.380  -6.677  -5.349  0.00  0.00    +0.009 C 
ATOM      8  C   UNL     1      -2.893  -7.405  -4.104  0.00  0.00    +0.004 C 
ATOM      9  C   UNL     1      -3.607  -6.409  -3.193  0.00  0.00    +0.112 C 
ATOM     10  C   UNL     1      -1.714  -8.026  -3.353  0.00  0.00    +0.009 C 
ATOM     11  C   UNL     1      -0.841  -4.892  -6.180  0.00  0.00    +0.009 C 
ATOM     12  H   UNL     1      -1.284  -3.346  -2.121  0.00  0.00    +0.151 HD
ENDROOT
BRANCH   1  13
ATOM     13  C   UNL     1      -1.503  -3.369  -0.009  0.00  0.00    +0.164 C 
BRANCH  13  17
ATOM     14  C   UNL     1      -0.041   1.511   0.013  0.00  0.00    +0.089 C 
ATOM     15  C   UNL     1      -0.015   0.004   0.004  0.00  0.00    +0.135 A 
ATOM     16  C   UNL     1      -1.091  -0.807   0.005  0.00  0.00    +0.072 A 
ATOM     17  C   UNL     1      -0.635  -2.138  -0.007  0.00  0.00    +0.101 A 
ATOM     18  N   UNL     1       0.667  -2.119  -0.015  0.00  0.00    -0.081 NA
ATOM     19  O   UNL     1       1.084  -0.766  -0.014  0.00  0.00    -0.360 OA
ENDBRANCH  13  17
ENDBRANCH   1  13
TORSDOF 2
