REMARK  Name = ZINC38571172
REMARK  10 active torsions:
REMARK  status: ('A' for Active; 'I' for Inactive)
REMARK    1  A    between atoms: C_1  and  C_2
REMARK    2  A    between atoms: C_3  and  O_33
REMARK    3  A    between atoms: C_11  and  C_16
REMARK    4  A    between atoms: C_13  and  C_15
REMARK    5  A    between atoms: C_16  and  C_17
REMARK    6  A    between atoms: N_19  and  C_20
REMARK    7  A    between atoms: C_20  and  C_21
REMARK    8  A    between atoms: C_21  and  C_22
REMARK    9  A    between atoms: C_25  and  O_31
REMARK   10  A    between atoms: O_31  and  C_32
REMARK                            x       y       z     vdW  Elec       q    Type
REMARK                         _______ _______ _______ _____ _____    ______ ____
ROOT
ATOM      1  C   UNL     1       2.537  -1.055   4.729  0.00  0.00    +0.214 C 
ATOM      2  O   UNL     1       1.746  -0.668   5.564  0.00  0.00    -0.276 OA
ATOM      3  N   UNL     1       3.849  -0.776   4.863  0.00  0.00    -0.315 N 
ATOM      4  H   UNL     1       4.481  -1.085   4.196  0.00  0.00    +0.149 HD
ENDROOT
BRANCH   1   5
ATOM      5  C   UNL     1       2.052  -1.846   3.542  0.00  0.00    +0.111 C 
BRANCH   5  16
ATOM      6  C   UNL     1      -0.018   1.503   0.010  0.00  0.00    +0.051 C 
ATOM      7  C   UNL     1       0.002  -0.004   0.002  0.00  0.00    +0.034 A 
ATOM      8  C   UNL     1       0.006  -0.688  -1.202  0.00  0.00    +0.123 A 
ATOM      9  C   UNL     1       0.024  -2.076  -1.207  0.00  0.00    +0.046 A 
ATOM     10  C   UNL     1       0.035  -2.768  -0.013  0.00  0.00    +0.011 A 
ATOM     11  C   UNL     1       0.029  -2.088   1.195  0.00  0.00    -0.001 A 
ATOM     12  C   UNL     1       0.023  -0.704   1.203  0.00  0.00    +0.141 A 
ATOM     13  O   UNL     1       0.043   0.007   2.363  0.00  0.00    -0.425 OA
ATOM     14  C   UNL     1      -0.146  -0.671   3.513  0.00  0.00    +0.317 C 
ATOM     15  O   UNL     1      -0.826  -0.225   4.407  0.00  0.00    -0.250 OA
ATOM     16  C   UNL     1       0.534  -2.020   3.631  0.00  0.00    +0.114 C 
ATOM     17  C   UNL     1       0.029  -2.891   2.471  0.00  0.00    +0.034 C 
ATOM     18  C   UNL     1      -1.390  -3.381   2.763  0.00  0.00    +0.013 C 
BRANCH   8  19
ATOM     19  O   UNL     1      -0.009  -0.003  -2.376  0.00  0.00    -0.506 OA
ATOM     20  H   UNL     1       0.870   0.207  -2.720  0.00  0.00    +0.292 HD
ENDBRANCH   8  19
ENDBRANCH   5  16
ENDBRANCH   1   5
BRANCH   3  21
ATOM     21  C   UNL     1       4.320  -0.007   6.018  0.00  0.00    +0.109 C 
BRANCH  21  22
ATOM     22  C   UNL     1       5.837   0.168   5.929  0.00  0.00    +0.056 C 
BRANCH  22  23
ATOM     23  C   UNL     1       6.322   0.959   7.116  0.00  0.00    -0.021 A 
ATOM     24  C   UNL     1       6.656   0.428   8.440  0.00  0.00    +0.006 A 
ATOM     25  C   UNL     1       6.644  -0.851   9.002  0.00  0.00    +0.056 A 
ATOM     26  C   UNL     1       7.028  -1.021  10.318  0.00  0.00    +0.121 A 
ATOM     27  C   UNL     1       7.425   0.074  11.080  0.00  0.00    +0.047 A 
ATOM     28  C   UNL     1       7.441   1.340  10.536  0.00  0.00    +0.030 A 
ATOM     29  C   UNL     1       7.058   1.532   9.213  0.00  0.00    +0.047 A 
ATOM     30  N   UNL     1       6.970   2.646   8.405  0.00  0.00    -0.360 N 
ATOM     31  C   UNL     1       6.536   2.284   7.159  0.00  0.00    +0.087 A 
ATOM     32  H   UNL     1       7.187   3.551   8.678  0.00  0.00    +0.165 HD
BRANCH  26  33
ATOM     33  O   UNL     1       7.018  -2.263  10.871  0.00  0.00    -0.495 OA
ATOM     34  C   UNL     1       7.427  -2.369  12.236  0.00  0.00    +0.277 C 
ENDBRANCH  26  33
ENDBRANCH  22  23
ENDBRANCH  21  22
ENDBRANCH   3  21
TORSDOF 7
