REMARK  Name = ZINC67330843
REMARK  9 active torsions:
REMARK  status: ('A' for Active; 'I' for Inactive)
REMARK    1  A    between atoms: C_1  and  C_2
REMARK    2  A    between atoms: C_5  and  O_8
REMARK    3  A    between atoms: O_8  and  C_9
REMARK    4  A    between atoms: C_9  and  C_10
REMARK    5  A    between atoms: C_10  and  C_12
REMARK    6  A    between atoms: C_10  and  N_13
REMARK    7  A    between atoms: C_14  and  C_16
REMARK    8  A    between atoms: C_19  and  S_21
REMARK    9  A    between atoms: S_21  and  N_24
REMARK                            x       y       z     vdW  Elec       q    Type
REMARK                         _______ _______ _______ _____ _____    ______ ____
ROOT
ATOM      1  N   UNL     1      -1.160  -6.721   0.402  0.00  0.00    -0.303 N 
ATOM      2  C   UNL     1      -1.607  -7.982   0.562  0.00  0.00    +0.280 C 
ATOM      3  O   UNL     1      -0.973  -8.771   1.237  0.00  0.00    -0.267 OA
ATOM      4  H   UNL     1      -1.665  -6.091  -0.136  0.00  0.00    +0.149 HD
ENDROOT
BRANCH   2   5
ATOM      5  C   UNL     1      -2.858  -8.402  -0.077  0.00  0.00    +0.192 A 
ATOM      6  C   UNL     1      -3.425  -9.642   0.007  0.00  0.00    +0.057 A 
ATOM      7  C   UNL     1      -4.605  -9.598  -0.752  0.00  0.00    +0.072 A 
ATOM      8  C   UNL     1      -4.706  -8.350  -1.260  0.00  0.00    +0.258 A 
ATOM      9  O   UNL     1      -3.654  -7.631  -0.847  0.00  0.00    -0.432 OA
BRANCH   8  10
ATOM     10  S   UNL     1      -6.009  -7.764  -2.291  0.00  0.00    +0.089 S 
ATOM     11  O   UNL     1      -5.482  -6.669  -3.028  0.00  0.00    -0.150 OA
ATOM     12  O   UNL     1      -6.574  -8.905  -2.921  0.00  0.00    -0.150 OA
BRANCH  10  13
ATOM     13  N   UNL     1      -7.179  -7.144  -1.296  0.00  0.00    -0.201 NA
ATOM     14  H   UNL     1      -7.742  -6.417  -1.604  0.00  0.00    +0.144 HD
ATOM     15  H   UNL     1      -7.302  -7.509  -0.406  0.00  0.00    +0.144 HD
ENDBRANCH  10  13
ENDBRANCH   8  10
ENDBRANCH   2   5
BRANCH   1  16
ATOM     16  C   UNL     1       0.090  -6.300   1.040  0.00  0.00    +0.108 C 
ATOM     17  C   UNL     1       1.272  -6.677   0.145  0.00  0.00    +0.031 C 
BRANCH  16  18
ATOM     18  C   UNL     1       0.072  -4.785   1.249  0.00  0.00    +0.251 C 
BRANCH  18  19
ATOM     19  O   UNL     1       0.057  -4.129  -0.021  0.00  0.00    -0.490 OA
BRANCH  19  24
ATOM     20  C   UNL     1      -0.018   1.503   0.010  0.00  0.00    +0.044 C 
ATOM     21  C   UNL     1       0.002  -0.004   0.002  0.00  0.00    -0.050 A 
ATOM     22  C   UNL     1       0.006  -0.688  -1.200  0.00  0.00    +0.007 A 
ATOM     23  C   UNL     1       0.024  -2.069  -1.210  0.00  0.00    +0.046 A 
ATOM     24  C   UNL     1       0.039  -2.770  -0.013  0.00  0.00    +0.121 A 
ATOM     25  C   UNL     1       0.036  -2.082   1.191  0.00  0.00    +0.046 A 
ATOM     26  C   UNL     1       0.023  -0.701   1.196  0.00  0.00    +0.007 A 
ENDBRANCH  19  24
ENDBRANCH  18  19
ENDBRANCH  16  18
ENDBRANCH   1  16
TORSDOF 7
