REMARK  Name = ZINC20708886
REMARK  5 active torsions:
REMARK  status: ('A' for Active; 'I' for Inactive)
REMARK    1  A    between atoms: C_1  and  C_2
REMARK    2  A    between atoms: C_2  and  C_4
REMARK    3  A    between atoms: C_17  and  C_20
REMARK    4  A    between atoms: C_22  and  N_27
REMARK    5  A    between atoms: C_25  and  O_26
REMARK                            x       y       z     vdW  Elec       q    Type
REMARK                         _______ _______ _______ _____ _____    ______ ____
ROOT
ATOM      1  C   UNL     1       3.572   2.131   3.495  0.00  0.00    +0.017 A 
ATOM      2  C   UNL     1       4.132   2.432   2.247  0.00  0.00    +0.013 A 
ATOM      3  C   UNL     1       3.400   2.253   1.110  0.00  0.00    +0.024 A 
ATOM      4  C   UNL     1       2.093   1.771   1.176  0.00  0.00    +0.031 A 
ATOM      5  C   UNL     1       1.537   1.457   2.426  0.00  0.00    -0.019 A 
ATOM      6  C   UNL     1       2.262   1.640   3.566  0.00  0.00    +0.017 A 
ATOM      7  C   UNL     1       0.163   0.909   2.443  0.00  0.00    +0.049 C 
ATOM      8  C   UNL     1      -0.739   1.083   3.610  0.00  0.00    -0.023 C 
ATOM      9  C   UNL     1      -1.991   1.138   3.174  0.00  0.00    -0.030 C 
ATOM     10  C   UNL     1      -2.018   1.037   1.647  0.00  0.00    +0.033 C 
ATOM     11  C   UNL     1      -0.637   1.595   1.295  0.00  0.00    +0.029 C 
ATOM     12  C   UNL     1      -0.013   1.086   0.008  0.00  0.00    +0.108 C 
ATOM     13  N   UNL     1       1.368   1.615  -0.002  0.00  0.00    -0.336 N 
ATOM     14  H   UNL     1       1.843   1.895  -0.954  0.00  0.00    +0.147 HD
ENDROOT
BRANCH  12  15
ATOM     15  C   UNL     1      -0.777   1.602  -1.184  0.00  0.00    +0.017 A 
ATOM     16  C   UNL     1      -0.321   2.710  -1.871  0.00  0.00    +0.041 A 
ATOM     17  C   UNL     1      -1.021   3.184  -2.965  0.00  0.00    +0.127 A 
ATOM     18  C   UNL     1      -2.180   2.550  -3.374  0.00  0.00    +0.036 A 
ATOM     19  C   UNL     1      -2.640   1.441  -2.691  0.00  0.00    +0.048 A 
ATOM     20  C   UNL     1      -1.936   0.961  -1.596  0.00  0.00    +0.122 A 
BRANCH  17  21
ATOM     21  N   UNL     1      -0.530   4.372  -3.698  0.00  0.00    +0.056 N 
ATOM     22  O   UNL     1       0.490   4.931  -3.339  0.00  0.00    -0.126 OA
ATOM     23  O   UNL     1      -1.147   4.790  -4.662  0.00  0.00    -0.126 OA
ENDBRANCH  17  21
BRANCH  20  24
ATOM     24  O   UNL     1      -2.384  -0.134  -0.926  0.00  0.00    -0.506 OA
ATOM     25  H   UNL     1      -3.303  -0.641  -1.253  0.00  0.00    +0.292 HD
ENDBRANCH  20  24
ENDBRANCH  12  15
BRANCH   1  27
ATOM     26  C   UNL     1       5.762   2.857   4.641  0.00  0.00    +0.091 C 
ATOM     27  C   UNL     1       4.353   2.328   4.722  0.00  0.00    +0.160 C 
ATOM     28  O   UNL     1       3.865   2.066   5.801  0.00  0.00    -0.292 OA
ENDBRANCH   1  27
TORSDOF 4
