REMARK  Name = ZINC02751426
REMARK  4 active torsions:
REMARK  status: ('A' for Active; 'I' for Inactive)
REMARK    1  A    between atoms: C_8  and  C_12
REMARK    2  A    between atoms: C_12  and  C_13
REMARK    3  A    between atoms: N_15  and  N_16
REMARK    4  A    between atoms: C_17  and  C_18
REMARK                            x       y       z     vdW  Elec       q    Type
REMARK                         _______ _______ _______ _____ _____    ______ ____
ROOT
ATOM      1  C   UNL     1      -6.040   3.904   0.086  0.00  0.00    +0.238 C 
ATOM      2  O   UNL     1      -6.020   2.691   0.084  0.00  0.00    -0.274 OA
ATOM      3  N   UNL     1      -4.885   4.597   0.080  0.00  0.00    -0.207 N 
ATOM      4  H   UNL     1      -4.901   5.567   0.083  0.00  0.00    +0.177 HD
ENDROOT
BRANCH   3   5
ATOM      5  N   UNL     1      -3.660   3.917   0.071  0.00  0.00    -0.188 NA
ATOM      6  C   UNL     1      -2.547   4.585   0.065  0.00  0.00    +0.138 C 
BRANCH   6   7
ATOM      7  C   UNL     1      -1.258   3.869   0.054  0.00  0.00    -0.004 A 
ATOM      8  C   UNL     1      -0.058   4.585   0.048  0.00  0.00    +0.011 A 
ATOM      9  C   UNL     1       1.145   3.910   0.039  0.00  0.00    +0.022 A 
ATOM     10  C   UNL     1       1.166   2.526   0.036  0.00  0.00    +0.059 A 
ATOM     11  C   UNL     1      -0.021   1.809   0.042  0.00  0.00    +0.060 A 
ATOM     12  C   UNL     1      -1.231   2.473   0.046  0.00  0.00    +0.031 A 
ATOM     13 CL   UNL     1       0.016   0.073   0.038  0.00  0.00    -0.082 Cl
ATOM     14 CL   UNL     1       2.684   1.684   0.023  0.00  0.00    -0.082 Cl
ENDBRANCH   6   7
ENDBRANCH   3   5
BRANCH   1  15
ATOM     15  C   UNL     1      -7.358   4.635   0.097  0.00  0.00    +0.158 C 
BRANCH  15  23
ATOM     16  C   UNL     1     -11.559   0.955  -2.205  0.00  0.00    +0.002 A 
ATOM     17  C   UNL     1     -12.066   0.489  -0.994  0.00  0.00    +0.002 A 
ATOM     18  C   UNL     1     -11.553   0.919   0.191  0.00  0.00    +0.028 A 
ATOM     19  C   UNL     1     -10.497   1.845   0.198  0.00  0.00    +0.068 A 
ATOM     20  C   UNL     1      -9.984   2.322  -1.033  0.00  0.00    +0.088 A 
ATOM     21  C   UNL     1     -10.536   1.851  -2.237  0.00  0.00    +0.030 A 
ATOM     22  N   UNL     1      -8.984   3.213  -1.035  0.00  0.00    -0.244 NA
ATOM     23  C   UNL     1      -8.487   3.636   0.102  0.00  0.00    +0.115 A 
ATOM     24  C   UNL     1      -8.995   3.169   1.324  0.00  0.00    +0.271 A 
ATOM     25  N   UNL     1      -9.979   2.293   1.349  0.00  0.00    -0.319 N 
ATOM     26  O   UNL     1      -8.471   3.623   2.489  0.00  0.00    -0.266 OA
ATOM     27  H   UNL     1     -10.338   1.964   2.223  0.00  0.00    +0.169 HD
ENDBRANCH  15  23
ENDBRANCH   1  15
TORSDOF 4
