REMARK  Name = ZINC28851414
REMARK  5 active torsions:
REMARK  status: ('A' for Active; 'I' for Inactive)
REMARK    1  A    between atoms: C_1  and  C_2
REMARK    2  A    between atoms: C_2  and  C_4
REMARK    3  A    between atoms: C_2  and  S_11
REMARK    4  A    between atoms: N_9  and  C_10
REMARK    5  A    between atoms: S_11  and  C_12
REMARK                            x       y       z     vdW  Elec       q    Type
REMARK                         _______ _______ _______ _____ _____    ______ ____
ROOT
ATOM      1  S   UNL     1      -2.431   0.951   1.280  0.00  0.00    -0.073 S 
ENDROOT
BRANCH   1   2
ATOM      2  C   UNL     1      -2.240  -0.795   1.417  0.00  0.00    +0.197 A 
ATOM      3  N   UNL     1      -1.103  -1.451   1.486  0.00  0.00    -0.122 NA
ATOM      4  N   UNL     1      -1.323  -2.715   1.584  0.00  0.00    -0.127 NA
ATOM      5  C   UNL     1      -2.623  -2.942   1.574  0.00  0.00    +0.180 A 
ATOM      6  N   UNL     1      -3.244  -1.716   1.467  0.00  0.00    -0.275 N 
ATOM      7  C   UNL     1      -4.609  -1.631   1.433  0.00  0.00    +0.115 A 
ATOM      8  C   UNL     1      -5.365  -2.745   1.502  0.00  0.00    +0.059 A 
ATOM      9  C   UNL     1      -4.760  -4.012   1.612  0.00  0.00    +0.045 A 
ATOM     10  C   UNL     1      -3.405  -4.114   1.648  0.00  0.00    +0.087 A 
ATOM     11 CL   UNL     1      -2.644  -5.669   1.783  0.00  0.00    -0.080 Cl
ATOM     12 CL   UNL     1      -7.096  -2.617   1.457  0.00  0.00    -0.082 Cl
ENDBRANCH   1   2
BRANCH   1  14
ATOM     13  C   UNL     1      -0.013   1.086   0.008  0.00  0.00    +0.029 C 
ATOM     14  C   UNL     1      -0.729   1.579   1.267  0.00  0.00    +0.137 C 
BRANCH  14  15
ATOM     15  C   UNL     1      -0.749   3.086   1.275  0.00  0.00    +0.233 C 
ATOM     16  O   UNL     1      -1.747   3.681   0.929  0.00  0.00    -0.274 OA
ATOM     17  N   UNL     1       0.342   3.773   1.668  0.00  0.00    -0.239 N 
ATOM     18  C   UNL     1       0.324   5.120   1.675  0.00  0.00    +0.306 C 
ATOM     19  O   UNL     1      -0.677   5.716   1.328  0.00  0.00    -0.252 OA
ATOM     20  N   UNL     1       1.415   5.807   2.067  0.00  0.00    -0.302 N 
ATOM     21  C   UNL     1       1.395   7.272   2.076  0.00  0.00    +0.129 C 
ATOM     22  H   UNL     1       1.248   3.233   1.982  0.00  0.00    +0.159 HD
ATOM     23  H   UNL     1       2.321   5.267   2.382  0.00  0.00    +0.150 HD
ENDBRANCH  14  15
ENDBRANCH   1  14
TORSDOF 3
