REMARK  Name = ZINC39667046
REMARK  10 active torsions:
REMARK  status: ('A' for Active; 'I' for Inactive)
REMARK    1  A    between atoms: C_1  and  C_2
REMARK    2  A    between atoms: C_5  and  C_9
REMARK    3  A    between atoms: C_6  and  C_8
REMARK    4  A    between atoms: C_9  and  C_10
REMARK    5  A    between atoms: C_10  and  N_11
REMARK    6  A    between atoms: C_12  and  C_14
REMARK    7  A    between atoms: C_25  and  C_27
REMARK    8  A    between atoms: C_27  and  C_29
REMARK    9  A    between atoms: C_27  and  O_30
REMARK   10  A    between atoms: O_30  and  C_31
REMARK                            x       y       z     vdW  Elec       q    Type
REMARK                         _______ _______ _______ _____ _____    ______ ____
ROOT
ATOM      1  C   UNL     1      -2.454  -8.447   0.173  0.00  0.00    +0.100 C 
ATOM      2  C   UNL     1      -2.032  -8.991  -1.210  0.00  0.00    +0.121 C 
ATOM      3  N   UNL     1      -2.870 -10.196  -1.410  0.00  0.00    -0.297 N 
ATOM      4  C   UNL     1      -4.197  -9.817  -0.867  0.00  0.00    +0.115 C 
ATOM      5  C   UNL     1      -3.876  -8.991   0.394  0.00  0.00    -0.004 C 
ATOM      6  C   UNL     1      -4.866  -7.839   0.536  0.00  0.00    -0.010 C 
ATOM      7  C   UNL     1      -6.262  -8.403   0.813  0.00  0.00    -0.082 C 
ATOM      8  N   UNL     1      -6.234  -9.204   2.042  0.00  0.00    +0.379 N 
ATOM      9  C   UNL     1      -5.350 -10.362   1.865  0.00  0.00    -0.082 C 
ATOM     10  C   UNL     1      -3.915  -9.881   1.633  0.00  0.00    -0.010 C 
ATOM     11  C   UNL     1      -2.509 -11.372  -1.961  0.00  0.00    +0.256 C 
ATOM     12  O   UNL     1      -1.353 -11.565  -2.274  0.00  0.00    -0.272 OA
ATOM     13  H   UNL     1      -5.893  -8.636   2.804  0.00  0.00    -0.086 HD
ATOM     14  H   UNL     1      -7.167  -9.524   2.256  0.00  0.00    -0.086 HD
ENDROOT
BRANCH   1  16
ATOM     15  N   UNL     1      -2.379  -6.259   1.324  0.00  0.00    -0.315 N 
ATOM     16  C   UNL     1      -2.464  -6.940   0.164  0.00  0.00    +0.218 C 
ATOM     17  O   UNL     1      -2.548  -6.341  -0.887  0.00  0.00    -0.275 OA
ATOM     18  H   UNL     1      -2.312  -6.738   2.164  0.00  0.00    +0.149 HD
BRANCH  15  19
ATOM     19  C   UNL     1      -2.389  -4.794   1.315  0.00  0.00    +0.109 C 
BRANCH  19  20
ATOM     20  C   UNL     1      -2.282  -4.274   2.750  0.00  0.00    +0.054 C 
BRANCH  20  25
ATOM     21  C   UNL     1      -2.320   1.504   2.711  0.00  0.00    +0.044 C 
ATOM     22  C   UNL     1      -2.310  -0.003   2.721  0.00  0.00    -0.050 A 
ATOM     23  C   UNL     1      -1.109  -0.686   2.740  0.00  0.00    +0.003 A 
ATOM     24  C   UNL     1      -1.100  -2.068   2.749  0.00  0.00    +0.004 A 
ATOM     25  C   UNL     1      -2.292  -2.767   2.740  0.00  0.00    -0.043 A 
ATOM     26  C   UNL     1      -3.494  -2.084   2.723  0.00  0.00    -0.047 A 
ATOM     27  C   UNL     1      -3.503  -0.702   2.717  0.00  0.00    +0.007 A 
ATOM     28  C   UNL     1      -4.794  -2.846   2.713  0.00  0.00    +0.044 C 
ENDBRANCH  20  25
ENDBRANCH  19  20
ENDBRANCH  15  19
ENDBRANCH   1  16
BRANCH  11  29
ATOM     29  C   UNL     1      -3.541 -12.446  -2.189  0.00  0.00    +0.256 C 
ATOM     30  C   UNL     1      -4.509 -11.999  -3.285  0.00  0.00    +0.062 C 
BRANCH  29  31
ATOM     31  O   UNL     1      -2.891 -13.654  -2.591  0.00  0.00    -0.480 OA
BRANCH  31  32
ATOM     32  C   UNL     1      -3.545 -14.819  -2.343  0.00  0.00    +0.122 A 
ATOM     33  C   UNL     1      -2.921 -16.032  -2.592  0.00  0.00    +0.045 A 
ATOM     34  C   UNL     1      -3.588 -17.215  -2.339  0.00  0.00    +0.004 A 
ATOM     35  C   UNL     1      -4.876 -17.191  -1.838  0.00  0.00    +0.000 A 
ATOM     36  C   UNL     1      -5.500 -15.982  -1.590  0.00  0.00    +0.004 A 
ATOM     37  C   UNL     1      -4.836 -14.796  -1.835  0.00  0.00    +0.045 A 
ENDBRANCH  31  32
ENDBRANCH  29  31
ENDBRANCH  11  29
TORSDOF 7
