REMARK  Name = ZINC44260399
REMARK  4 active torsions:
REMARK  status: ('A' for Active; 'I' for Inactive)
REMARK    1  A    between atoms: C_6  and  C_7
REMARK    2  A    between atoms: C_7  and  C_9
REMARK    3  A    between atoms: C_7  and  O_23
REMARK    4  A    between atoms: C_9  and  N_10
REMARK                            x       y       z     vdW  Elec       q    Type
REMARK                         _______ _______ _______ _____ _____    ______ ____
ROOT
ATOM      1  N   UNL     1      -2.933  -1.887  -1.423  0.00  0.00    -0.221 N 
ATOM      2  C   UNL     1      -3.134  -3.204  -1.210  0.00  0.00    +0.247 C 
ATOM      3  O   UNL     1      -2.294  -4.048  -0.980  0.00  0.00    -0.273 OA
ATOM      4  C   UNL     1      -4.627  -3.406  -1.319  0.00  0.00    +0.113 C 
ATOM      5  C   UNL     1      -4.981  -4.390  -2.397  0.00  0.00    +0.035 C 
ATOM      6  C   UNL     1      -6.288  -4.015  -3.129  0.00  0.00    +0.003 C 
ATOM      7  C   UNL     1      -7.386  -3.516  -2.169  0.00  0.00    +0.000 C 
ATOM      8  C   UNL     1      -7.455  -4.327  -0.903  0.00  0.00    +0.000 C 
ATOM      9  C   UNL     1      -6.604  -3.624   0.172  0.00  0.00    +0.003 C 
ATOM     10  C   UNL     1      -5.181  -3.907   0.030  0.00  0.00    +0.035 C 
ATOM     11  N   UNL     1      -5.150  -2.065  -1.604  0.00  0.00    -0.285 N 
ATOM     12  C   UNL     1      -4.085  -1.242  -1.643  0.00  0.00    +0.309 C 
ATOM     13  O   UNL     1      -4.160  -0.048  -1.857  0.00  0.00    -0.252 OA
ATOM     14  H   UNL     1      -6.079  -1.820  -1.735  0.00  0.00    +0.151 HD
ENDROOT
BRANCH   1  15
ATOM     15  C   UNL     1      -1.617  -1.243  -1.410  0.00  0.00    +0.154 C 
BRANCH  15  16
ATOM     16  C   UNL     1      -1.293  -0.774   0.010  0.00  0.00    +0.162 C 
BRANCH  16  22
ATOM     17  C   UNL     1      -0.017   1.378   0.010  0.00  0.00    +0.009 A 
ATOM     18  C   UNL     1       1.170   2.087   0.002  0.00  0.00    +0.041 A 
ATOM     19  C   UNL     1       2.379   1.413  -0.013  0.00  0.00    +0.158 A 
ATOM     20  C   UNL     1       2.397   0.026  -0.021  0.00  0.00    +0.159 A 
ATOM     21  C   UNL     1       1.208  -0.680  -0.013  0.00  0.00    +0.047 A 
ATOM     22  C   UNL     1       0.002  -0.004   0.002  0.00  0.00    -0.015 A 
ATOM     23  F   UNL     1       3.576  -0.634  -0.036  0.00  0.00    -0.202 F 
ATOM     24  F   UNL     1       3.539   2.105  -0.021  0.00  0.00    -0.202 F 
ENDBRANCH  16  22
BRANCH  16  25
ATOM     25  O   UNL     1      -1.167  -1.910   0.869  0.00  0.00    -0.386 OA
ATOM     26  H   UNL     1      -0.470  -2.526   0.606  0.00  0.00    +0.210 HD
ENDBRANCH  16  25
ENDBRANCH  15  16
ENDBRANCH   1  15
TORSDOF 4
