REMARK  Name = ZINC63460506
REMARK  10 active torsions:
REMARK  status: ('A' for Active; 'I' for Inactive)
REMARK    1  A    between atoms: C_1  and  C_2
REMARK    2  A    between atoms: C_2  and  C_3
REMARK    3  A    between atoms: C_2  and  N_14
REMARK    4  A    between atoms: N_5  and  N_6
REMARK    5  A    between atoms: C_7  and  O_9
REMARK    6  A    between atoms: O_9  and  C_10
REMARK    7  A    between atoms: C_10  and  C_11
REMARK    8  A    between atoms: C_10  and  C_12
REMARK    9  A    between atoms: C_10  and  C_13
REMARK   10  A    between atoms: C_15  and  C_17
REMARK                            x       y       z     vdW  Elec       q    Type
REMARK                         _______ _______ _______ _____ _____    ______ ____
ROOT
ATOM      1  C   UNL     1      -1.412  -0.526   0.013  0.00  0.00    +0.249 C 
ATOM      2  O   UNL     1      -1.790  -1.233   0.922  0.00  0.00    -0.272 OA
ATOM      3  N   UNL     1      -2.256  -0.206  -0.988  0.00  0.00    -0.230 N 
ATOM      4  H   UNL     1      -1.953   0.360  -1.716  0.00  0.00    +0.173 HD
ENDROOT
BRANCH   3   5
ATOM      5  N   UNL     1      -3.570  -0.691  -0.978  0.00  0.00    -0.200 N 
ATOM      6  C   UNL     1      -4.414  -0.371  -1.980  0.00  0.00    +0.417 C 
ATOM      7  O   UNL     1      -5.554  -0.792  -1.971  0.00  0.00    -0.225 OA
ATOM      8  H   UNL     1      -3.873  -1.257  -0.251  0.00  0.00    +0.176 HD
BRANCH   6   9
ATOM      9  O   UNL     1      -3.994   0.414  -2.989  0.00  0.00    -0.444 OA
BRANCH   9  10
ATOM     10  C   UNL     1      -4.941   0.713  -4.016  0.00  0.00    +0.107 C 
ATOM     11  C   UNL     1      -6.144   1.435  -3.407  0.00  0.00    +0.055 C 
ATOM     12  C   UNL     1      -4.287   1.610  -5.069  0.00  0.00    +0.055 C 
ATOM     13  C   UNL     1      -5.407  -0.588  -4.674  0.00  0.00    +0.055 C 
ENDBRANCH   9  10
ENDBRANCH   6   9
ENDBRANCH   3   5
BRANCH   1  15
ATOM     14  C   UNL     1      -0.019   1.526   0.010  0.00  0.00    +0.038 C 
ATOM     15  C   UNL     1       0.002  -0.004   0.002  0.00  0.00    +0.158 C 
BRANCH  15  16
ATOM     16  N   UNL     1       0.711  -0.489   1.189  0.00  0.00    -0.300 N 
ATOM     17  C   UNL     1       2.054  -0.600   1.174  0.00  0.00    +0.251 C 
ATOM     18  O   UNL     1       2.678  -0.296   0.174  0.00  0.00    -0.270 OA
ATOM     19  H   UNL     1       0.213  -0.731   1.986  0.00  0.00    +0.150 HD
BRANCH  17  20
ATOM     20  C   UNL     1       2.762  -1.085   2.361  0.00  0.00    +0.075 A 
ATOM     21  C   UNL     1       4.124  -1.265   2.553  0.00  0.00    +0.022 A 
ATOM     22  C   UNL     1       4.495  -1.740   3.787  0.00  0.00    +0.024 A 
ATOM     23  C   UNL     1       3.534  -1.995   4.712  0.00  0.00    +0.056 A 
ATOM     24  S   UNL     1       2.099  -1.591   3.936  0.00  0.00    -0.077 S 
ATOM     25 BR   UNL     1       3.759  -2.648   6.472  0.00  0.00    -0.043 Br
ENDBRANCH  17  20
ENDBRANCH  15  16
ENDBRANCH   1  15
TORSDOF 6
