REMARK  Name = ZINC59401337
REMARK  7 active torsions:
REMARK  status: ('A' for Active; 'I' for Inactive)
REMARK    1  A    between atoms: C_1  and  C_2
REMARK    2  A    between atoms: C_5  and  C_8
REMARK    3  A    between atoms: C_12  and  N_17
REMARK    4  A    between atoms: C_18  and  C_20
REMARK    5  A    between atoms: C_20  and  O_21
REMARK    6  A    between atoms: O_21  and  C_22
REMARK    7  A    between atoms: C_26  and  C_28
REMARK                            x       y       z     vdW  Elec       q    Type
REMARK                         _______ _______ _______ _____ _____    ______ ____
ROOT
ATOM      1  C   UNL     1       0.324  -4.255  -0.027  0.00  0.00    +0.228 A 
ATOM      2  N   UNL     1       0.413  -5.015   1.035  0.00  0.00    -0.209 NA
ATOM      3  C   UNL     1       0.280  -6.312   0.656  0.00  0.00    +0.112 A 
ATOM      4  C   UNL     1       0.292  -7.524   1.349  0.00  0.00    +0.055 A 
ATOM      5  C   UNL     1       0.126  -8.710   0.658  0.00  0.00    +0.036 A 
ATOM      6  C   UNL     1      -0.052  -8.699  -0.724  0.00  0.00    +0.027 A 
ATOM      7  C   UNL     1      -0.066  -7.507  -1.416  0.00  0.00    +0.050 A 
ATOM      8  C   UNL     1       0.099  -6.309  -0.737  0.00  0.00    +0.156 A 
ATOM      9  O   UNL     1       0.128  -5.013  -1.122  0.00  0.00    -0.435 OA
ENDROOT
BRANCH   1  14
ATOM     10  C   UNL     1       0.695   1.488  -0.013  0.00  0.00    +0.044 C 
ATOM     11  C   UNL     1       0.597  -0.016  -0.016  0.00  0.00    -0.050 A 
ATOM     12  C   UNL     1       0.394  -0.690  -1.207  0.00  0.00    +0.004 A 
ATOM     13  C   UNL     1       0.305  -2.067  -1.218  0.00  0.00    +0.013 A 
ATOM     14  C   UNL     1       0.420  -2.780  -0.023  0.00  0.00    +0.037 A 
ATOM     15  C   UNL     1       0.625  -2.094   1.175  0.00  0.00    +0.013 A 
ATOM     16  C   UNL     1       0.718  -0.717   1.171  0.00  0.00    +0.004 A 
ENDBRANCH   1  14
BRANCH   5  17
ATOM     17  N   UNL     1       0.138  -9.928   1.350  0.00  0.00    -0.283 N 
ATOM     18  C   UNL     1      -0.354  -9.997   2.603  0.00  0.00    +0.255 C 
ATOM     19  O   UNL     1      -0.893  -9.028   3.096  0.00  0.00    -0.272 OA
ATOM     20  H   UNL     1       0.500 -10.723   0.927  0.00  0.00    +0.155 HD
BRANCH  18  21
ATOM     21  C   UNL     1      -0.235 -11.276   3.390  0.00  0.00    +0.324 C 
BRANCH  21  22
ATOM     22  O   UNL     1      -0.826 -11.098   4.679  0.00  0.00    -0.483 OA
BRANCH  22  23
ATOM     23  C   UNL     1      -0.802 -12.165   5.521  0.00  0.00    +0.122 A 
ATOM     24  C   UNL     1      -0.216 -13.356   5.117  0.00  0.00    +0.047 A 
ATOM     25  C   UNL     1      -0.193 -14.439   5.974  0.00  0.00    +0.024 A 
ATOM     26  C   UNL     1      -0.754 -14.337   7.235  0.00  0.00    +0.044 A 
ATOM     27  C   UNL     1      -1.340 -13.151   7.639  0.00  0.00    -0.029 A 
ATOM     28  C   UNL     1      -1.359 -12.063   6.787  0.00  0.00    +0.050 A 
ATOM     29  C   UNL     1      -1.951 -13.042   9.012  0.00  0.00    +0.045 C 
ATOM     30 CL   UNL     1      -0.725 -15.700   8.310  0.00  0.00    -0.083 Cl
ENDBRANCH  22  23
ENDBRANCH  21  22
ENDBRANCH  18  21
ENDBRANCH   5  17
TORSDOF 5
