REMARK  Name = ZINC25223335
REMARK  7 active torsions:
REMARK  status: ('A' for Active; 'I' for Inactive)
REMARK    1  A    between atoms: C_1  and  O_2
REMARK    2  A    between atoms: O_2  and  C_3
REMARK    3  A    between atoms: N_15  and  C_19
REMARK    4  A    between atoms: C_19  and  C_20
REMARK    5  A    between atoms: C_20  and  C_22
REMARK    6  A    between atoms: C_20  and  O_34
REMARK    7  A    between atoms: C_22  and  N_23
REMARK                            x       y       z     vdW  Elec       q    Type
REMARK                         _______ _______ _______ _____ _____    ______ ____
ROOT
ATOM      1  C   UNL     1      -5.148   1.851   6.342  0.00  0.00    +0.120 A 
ATOM      2  C   UNL     1      -4.213   1.420   5.411  0.00  0.00    +0.046 A 
ATOM      3  C   UNL     1      -3.461   2.344   4.718  0.00  0.00    +0.010 A 
ATOM      4  C   UNL     1      -3.629   3.705   4.944  0.00  0.00    -0.012 A 
ATOM      5  C   UNL     1      -4.558   4.135   5.867  0.00  0.00    -0.038 A 
ATOM      6  C   UNL     1      -5.316   3.206   6.566  0.00  0.00    +0.049 A 
ATOM      7  C   UNL     1      -4.799   5.595   6.150  0.00  0.00    +0.036 C 
ATOM      8  C   UNL     1      -3.621   6.439   5.667  0.00  0.00    +0.008 C 
ATOM      9  C   UNL     1      -3.331   6.077   4.205  0.00  0.00    +0.040 C 
ATOM     10  C   UNL     1      -2.773   4.660   4.160  0.00  0.00    +0.138 C 
ATOM     11  C   UNL     1      -2.647   4.197   2.726  0.00  0.00    +0.251 C 
ATOM     12  O   UNL     1      -3.540   4.065   1.916  0.00  0.00    -0.272 OA
ATOM     13  N   UNL     1      -1.333   3.958   2.537  0.00  0.00    -0.221 N 
ATOM     14  C   UNL     1      -0.622   4.212   3.642  0.00  0.00    +0.310 C 
ATOM     15  O   UNL     1       0.583   4.076   3.717  0.00  0.00    -0.252 OA
ATOM     16  N   UNL     1      -1.392   4.637   4.662  0.00  0.00    -0.281 N 
ATOM     17  H   UNL     1      -1.179   4.937   5.699  0.00  0.00    +0.152 HD
ENDROOT
BRANCH   1  19
ATOM     18  C   UNL     1      -5.664  -0.435   6.745  0.00  0.00    +0.277 C 
ATOM     19  O   UNL     1      -5.893   0.947   7.030  0.00  0.00    -0.495 OA
ENDBRANCH   1  19
BRANCH  13  20
ATOM     20  C   UNL     1      -0.755   3.484   1.277  0.00  0.00    +0.151 C 
BRANCH  20  21
ATOM     21  C   UNL     1      -0.734   1.954   1.269  0.00  0.00    +0.150 C 
BRANCH  21  22
ATOM     22  O   UNL     1      -2.075   1.460   1.279  0.00  0.00    -0.389 OA
ATOM     23  H   UNL     1      -2.261   0.376   1.275  0.00  0.00    +0.210 HD
ENDBRANCH  21  22
BRANCH  21  24
ATOM     24  C   UNL     1      -0.018   1.461   0.010  0.00  0.00    +0.150 C 
BRANCH  24  25
ATOM     25  N   UNL     1       0.002  -0.004   0.002  0.00  0.00    -0.232 N 
ATOM     26  C   UNL     1       0.981  -0.755   0.538  0.00  0.00    +0.254 C 
ATOM     27  O   UNL     1       1.973  -0.333   1.097  0.00  0.00    -0.270 OA
ATOM     28  C   UNL     1       0.646  -2.180   0.335  0.00  0.00    +0.049 A 
ATOM     29  C   UNL     1       1.263  -3.376   0.667  0.00  0.00    +0.014 A 
ATOM     30  C   UNL     1       0.667  -4.577   0.314  0.00  0.00    +0.001 A 
ATOM     31  C   UNL     1      -0.536  -4.590  -0.365  0.00  0.00    +0.001 A 
ATOM     32  C   UNL     1      -1.165  -3.401  -0.703  0.00  0.00    +0.014 A 
ATOM     33  C   UNL     1      -0.582  -2.193  -0.357  0.00  0.00    +0.049 A 
ATOM     34  C   UNL     1      -0.953  -0.775  -0.548  0.00  0.00    +0.254 C 
ATOM     35  O   UNL     1      -1.954  -0.374  -1.107  0.00  0.00    -0.270 OA
ENDBRANCH  24  25
ENDBRANCH  21  24
ENDBRANCH  20  21
ENDBRANCH  13  20
TORSDOF 6
