REMARK  Name = ZINC50421087
REMARK  7 active torsions:
REMARK  status: ('A' for Active; 'I' for Inactive)
REMARK    1  A    between atoms: C_1  and  N_2
REMARK    2  A    between atoms: C_6  and  C_7
REMARK    3  A    between atoms: C_7  and  N_8
REMARK    4  A    between atoms: N_8  and  S_9
REMARK    5  A    between atoms: S_9  and  C_12
REMARK    6  A    between atoms: C_17  and  N_18
REMARK    7  A    between atoms: N_18  and  N_19
REMARK                            x       y       z     vdW  Elec       q    Type
REMARK                         _______ _______ _______ _____ _____    ______ ____
ROOT
ATOM      1  S   UNL     1      -1.696  -0.327   4.679  0.00  0.00    +0.062 S 
ATOM      2  O   UNL     1      -3.093  -0.322   4.943  0.00  0.00    -0.153 OA
ATOM      3  O   UNL     1      -0.840  -1.368   5.128  0.00  0.00    -0.153 OA
ENDROOT
BRANCH   1   4
ATOM      4  C   UNL     1      -1.054   1.175   5.341  0.00  0.00    +0.147 A 
ATOM      5  C   UNL     1       0.058   1.159   6.165  0.00  0.00    +0.048 A 
ATOM      6  C   UNL     1       0.530   2.366   6.664  0.00  0.00    +0.038 A 
ATOM      7  C   UNL     1      -0.119   3.538   6.327  0.00  0.00    +0.128 A 
ATOM      8  N   UNL     1      -1.178   3.522   5.539  0.00  0.00    -0.236 NA
ATOM      9  C   UNL     1      -1.654   2.392   5.039  0.00  0.00    +0.159 A 
ATOM     10 BR   UNL     1       2.046   2.404   7.794  0.00  0.00    -0.049 Br
BRANCH   9  11
ATOM     11  N   UNL     1      -2.768   2.423   4.207  0.00  0.00    -0.266 N 
ATOM     12  H   UNL     1      -3.070   1.612   3.770  0.00  0.00    +0.167 HD
BRANCH  11  13
ATOM     13  N   UNL     1      -3.439   3.596   4.008  0.00  0.00    -0.255 NA
ATOM     14  H   UNL     1      -2.819   4.313   3.662  0.00  0.00    +0.140 HD
ATOM     15  H   UNL     1      -4.221   3.464   3.384  0.00  0.00    +0.140 HD
ENDBRANCH  11  13
ENDBRANCH   9  11
ENDBRANCH   1   4
BRANCH   1  16
ATOM     16  N   UNL     1      -1.525  -0.249   3.034  0.00  0.00    -0.182 NA
ATOM     17  H   UNL     1      -2.311  -0.232   2.465  0.00  0.00    +0.148 HD
BRANCH  16  18
ATOM     18  C   UNL     1      -0.188  -0.206   2.438  0.00  0.00    +0.182 C 
BRANCH  18  24
ATOM     19  C   UNL     1      -0.606   1.833   0.101  0.00  0.00    +0.151 C 
ATOM     20  N   UNL     1      -0.465   0.381  -0.033  0.00  0.00    -0.319 N 
ATOM     21  C   UNL     1      -0.483  -0.337  -1.182  0.00  0.00    +0.224 A 
ATOM     22  N   UNL     1      -0.326  -1.592  -0.858  0.00  0.00    -0.138 NA
ATOM     23  N   UNL     1      -0.211  -1.698   0.418  0.00  0.00    -0.133 NA
ATOM     24  C   UNL     1      -0.284  -0.516   0.966  0.00  0.00    +0.149 A 
ENDBRANCH  18  24
ENDBRANCH  16  18
ENDBRANCH   1  16
TORSDOF 6
