REMARK  Name = ZINC34699847
REMARK  4 active torsions:
REMARK  status: ('A' for Active; 'I' for Inactive)
REMARK    1  A    between atoms: C_1  and  C_2
REMARK    2  A    between atoms: C_2  and  N_3
REMARK    3  A    between atoms: C_14  and  C_17
REMARK    4  A    between atoms: C_20  and  C_23
REMARK                            x       y       z     vdW  Elec       q    Type
REMARK                         _______ _______ _______ _____ _____    ______ ____
ROOT
ATOM      1  N   UNL     1      -0.553  -0.584  -2.276  0.00  0.00    -0.315 N 
ATOM      2  C   UNL     1      -0.217  -1.915  -2.334  0.00  0.00    +0.203 A 
ATOM      3  N   UNL     1      -0.992  -2.783  -1.737  0.00  0.00    -0.215 NA
ATOM      4  C   UNL     1      -0.727  -4.113  -1.750  0.00  0.00    +0.078 A 
ATOM      5  C   UNL     1      -1.566  -5.027  -1.107  0.00  0.00    +0.028 A 
ATOM      6  C   UNL     1      -1.267  -6.371  -1.141  0.00  0.00    +0.002 A 
ATOM      7  C   UNL     1      -0.139  -6.831  -1.806  0.00  0.00    +0.001 A 
ATOM      8  C   UNL     1       0.704  -5.950  -2.448  0.00  0.00    +0.014 A 
ATOM      9  C   UNL     1       0.420  -4.587  -2.427  0.00  0.00    +0.045 A 
ATOM     10  C   UNL     1       1.280  -3.602  -3.091  0.00  0.00    +0.173 A 
ATOM     11  N   UNL     1       0.911  -2.277  -3.018  0.00  0.00    -0.246 N 
ATOM     12  C   UNL     1       1.868  -1.591  -3.717  0.00  0.00    +0.171 A 
ATOM     13  N   UNL     1       2.731  -2.477  -4.168  0.00  0.00    -0.128 NA
ATOM     14  N   UNL     1       2.389  -3.660  -3.792  0.00  0.00    -0.128 NA
ATOM     15  H   UNL     1      -0.040   0.068  -2.779  0.00  0.00    +0.149 HD
ENDROOT
BRANCH  12  16
ATOM     16  C   UNL     1       1.923  -0.129  -3.926  0.00  0.00    +0.020 A 
ATOM     17  C   UNL     1       1.859   0.739  -2.834  0.00  0.00    +0.012 A 
ATOM     18  C   UNL     1       1.911   2.102  -3.037  0.00  0.00    +0.004 A 
ATOM     19  C   UNL     1       2.026   2.611  -4.318  0.00  0.00    -0.050 A 
ATOM     20  C   UNL     1       2.089   1.757  -5.405  0.00  0.00    +0.004 A 
ATOM     21  C   UNL     1       2.044   0.391  -5.216  0.00  0.00    +0.012 A 
ATOM     22  C   UNL     1       2.081   4.102  -4.532  0.00  0.00    +0.044 C 
ENDBRANCH  12  16
BRANCH   1  24
ATOM     23  C   UNL     1      -1.845   1.368  -1.567  0.00  0.00    +0.024 C 
ATOM     24  C   UNL     1      -1.687  -0.149  -1.456  0.00  0.00    +0.101 C 
ENDBRANCH   1  24
TORSDOF 2
