REMARK  Name = ZINC49144570
REMARK  7 active torsions:
REMARK  status: ('A' for Active; 'I' for Inactive)
REMARK    1  A    between atoms: C_1  and  C_2
REMARK    2  A    between atoms: C_2  and  C_3
REMARK    3  A    between atoms: C_2  and  C_4
REMARK    4  A    between atoms: C_2  and  C_5
REMARK    5  A    between atoms: C_8  and  C_11
REMARK    6  A    between atoms: N_13  and  N_14
REMARK    7  A    between atoms: N_17  and  C_18
REMARK                            x       y       z     vdW  Elec       q    Type
REMARK                         _______ _______ _______ _____ _____    ______ ____
ROOT
ATOM      1  C   UNL     1       2.835  -0.441  -5.006  0.00  0.00    +0.232 C 
ATOM      2  O   UNL     1       2.248  -1.141  -5.802  0.00  0.00    -0.274 OA
ATOM      3  N   UNL     1       4.119  -0.096  -5.230  0.00  0.00    -0.233 N 
ATOM      4  H   UNL     1       4.589   0.464  -4.593  0.00  0.00    +0.173 HD
ENDROOT
BRANCH   1   8
ATOM      5  C   UNL     1       0.718  -0.497  -1.257  0.00  0.00    -0.006 C 
ATOM      6  C   UNL     1      -0.022   0.009  -2.496  0.00  0.00    +0.005 C 
ATOM      7  C   UNL     1       0.694  -0.484  -3.755  0.00  0.00    +0.013 C 
ATOM      8  C   UNL     1       2.130   0.045  -3.766  0.00  0.00    +0.076 C 
ATOM      9  C   UNL     1       2.870  -0.461  -2.526  0.00  0.00    +0.013 C 
ATOM     10  C   UNL     1       2.154   0.032  -1.268  0.00  0.00    +0.005 C 
BRANCH   5  12
ATOM     11  C   UNL     1      -0.019   1.526   0.010  0.00  0.00    +0.011 C 
ATOM     12  C   UNL     1       0.002  -0.004   0.002  0.00  0.00    -0.035 C 
ATOM     13  C   UNL     1       0.742  -0.511   1.242  0.00  0.00    +0.011 C 
ATOM     14  C   UNL     1      -1.433  -0.534   0.013  0.00  0.00    +0.011 C 
ENDBRANCH   5  12
ENDBRANCH   1   8
BRANCH   3  15
ATOM     15  N   UNL     1       4.775  -0.548  -6.382  0.00  0.00    -0.218 N 
ATOM     16  C   UNL     1       6.058  -0.204  -6.606  0.00  0.00    +0.316 C 
ATOM     17  O   UNL     1       6.627  -0.596  -7.606  0.00  0.00    -0.251 OA
ATOM     18  N   UNL     1       6.711   0.575  -5.721  0.00  0.00    -0.295 N 
ATOM     19  H   UNL     1       4.305  -1.109  -7.019  0.00  0.00    +0.174 HD
ATOM     20  H   UNL     1       6.257   0.888  -4.923  0.00  0.00    +0.151 HD
BRANCH  18  21
ATOM     21  C   UNL     1       8.107   0.949  -5.964  0.00  0.00    +0.075 C 
ATOM     22  C   UNL     1       9.074   0.877  -4.781  0.00  0.00    +0.024 C 
ATOM     23  C   UNL     1       8.616   2.237  -5.313  0.00  0.00    +0.024 C 
ENDBRANCH  18  21
ENDBRANCH   3  15
TORSDOF 4
