REMARK  Name = ZINC57029429
REMARK  8 active torsions:
REMARK  status: ('A' for Active; 'I' for Inactive)
REMARK    1  A    between atoms: C_1  and  C_2
REMARK    2  A    between atoms: C_6  and  C_25
REMARK    3  A    between atoms: C_7  and  O_8
REMARK    4  A    between atoms: O_8  and  C_9
REMARK    5  A    between atoms: C_9  and  C_11
REMARK    6  A    between atoms: C_9  and  C_12
REMARK    7  A    between atoms: N_14  and  N_15
REMARK    8  A    between atoms: N_18  and  C_19
REMARK                            x       y       z     vdW  Elec       q    Type
REMARK                         _______ _______ _______ _____ _____    ______ ____
ROOT
ATOM      1  C   UNL     1      -1.535   1.219   3.514  0.00  0.00    +0.270 C 
ATOM      2  O   UNL     1      -0.645   1.993   3.798  0.00  0.00    -0.270 OA
ATOM      3  N   UNL     1      -2.780   1.420   3.988  0.00  0.00    -0.230 N 
ATOM      4  H   UNL     1      -3.491   0.801   3.760  0.00  0.00    +0.173 HD
ENDROOT
BRANCH   3   5
ATOM      5  N   UNL     1      -3.048   2.522   4.810  0.00  0.00    -0.218 N 
ATOM      6  C   UNL     1      -4.293   2.723   5.284  0.00  0.00    +0.320 C 
ATOM      7  O   UNL     1      -4.525   3.680   5.997  0.00  0.00    -0.251 OA
ATOM      8  N   UNL     1      -5.281   1.863   4.968  0.00  0.00    -0.266 N 
ATOM      9  H   UNL     1      -2.336   3.142   5.037  0.00  0.00    +0.174 HD
ATOM     10  H   UNL     1      -5.096   1.099   4.399  0.00  0.00    +0.157 HD
BRANCH   8  11
ATOM     11  C   UNL     1      -6.583   2.073   5.463  0.00  0.00    +0.072 A 
ATOM     12  C   UNL     1      -7.664   1.286   5.229  0.00  0.00    +0.128 A 
ATOM     13  N   UNL     1      -8.720   1.834   5.886  0.00  0.00    -0.283 N 
ATOM     14  H   UNL     1      -9.625   1.487   5.900  0.00  0.00    +0.188 HD
ATOM     15  N   UNL     1      -8.268   2.988   6.539  0.00  0.00    -0.180 NA
ATOM     16  C   UNL     1      -6.991   3.128   6.292  0.00  0.00    +0.157 A 
ENDBRANCH   8  11
ENDBRANCH   3   5
BRANCH   1  17
ATOM     17  C   UNL     1      -1.247   0.033   2.630  0.00  0.00    +0.257 C 
ATOM     18  C   UNL     1      -1.566  -1.257   3.388  0.00  0.00    +0.062 C 
BRANCH  17  19
ATOM     19  O   UNL     1       0.133   0.038   2.259  0.00  0.00    -0.479 OA
BRANCH  19  26
ATOM     20  C   UNL     1       0.986  -2.654   2.228  0.00  0.00    +0.047 C 
ATOM     21  C   UNL     1       0.875  -1.822   0.976  0.00  0.00    -0.007 A 
ATOM     22  C   UNL     1       1.192  -2.373  -0.251  0.00  0.00    +0.027 A 
ATOM     23  C   UNL     1       1.091  -1.610  -1.400  0.00  0.00    +0.042 A 
ATOM     24  C   UNL     1       0.672  -0.293  -1.324  0.00  0.00    +0.027 A 
ATOM     25  C   UNL     1       0.355   0.262  -0.099  0.00  0.00    -0.007 A 
ATOM     26  C   UNL     1       0.450  -0.504   1.054  0.00  0.00    +0.127 A 
ATOM     27  C   UNL     1      -0.099   1.696  -0.016  0.00  0.00    +0.047 C 
ATOM     28 CL   UNL     1       1.490  -2.305  -2.940  0.00  0.00    -0.084 Cl
ENDBRANCH  19  26
ENDBRANCH  17  19
ENDBRANCH   1  17
TORSDOF 5
