REMARK  Name = ZINC02370929
REMARK  6 active torsions:
REMARK  status: ('A' for Active; 'I' for Inactive)
REMARK    1  A    between atoms: C_7  and  C_11
REMARK    2  A    between atoms: N_12  and  N_13
REMARK    3  A    between atoms: C_14  and  N_35
REMARK    4  A    between atoms: C_15  and  C_26
REMARK    5  A    between atoms: N_28  and  C_29
REMARK    6  A    between atoms: C_29  and  C_30
REMARK                            x       y       z     vdW  Elec       q    Type
REMARK                         _______ _______ _______ _____ _____    ______ ____
ROOT
ATOM      1  N   UNL     1       3.440  -0.805  -0.034  0.00  0.00    -0.198 N 
ATOM      2  C   UNL     1       2.947  -2.075  -0.036  0.00  0.00    +0.134 A 
ATOM      3  C   UNL     1       1.555  -2.056  -0.023  0.00  0.00    +0.105 A 
ATOM      4  C   UNL     1       1.157  -0.638  -0.012  0.00  0.00    +0.124 A 
ATOM      5  C   UNL     1       2.413   0.118  -0.019  0.00  0.00    +0.183 A 
ATOM      6  N   UNL     1       2.376   1.434  -0.013  0.00  0.00    -0.224 NA
ATOM      7  C   UNL     1       1.197   2.068   0.002  0.00  0.00    +0.092 A 
ATOM      8  C   UNL     1       1.148   3.474   0.009  0.00  0.00    +0.030 A 
ATOM      9  C   UNL     1      -0.054   4.110   0.024  0.00  0.00    +0.002 A 
ATOM     10  C   UNL     1      -1.247   3.389   0.031  0.00  0.00    +0.002 A 
ATOM     11  C   UNL     1      -1.240   2.029   0.019  0.00  0.00    +0.030 A 
ATOM     12  C   UNL     1      -0.016   1.334   0.009  0.00  0.00    +0.090 A 
ATOM     13  N   UNL     1       0.002  -0.004   0.002  0.00  0.00    -0.241 NA
ENDROOT
BRANCH   3  14
ATOM     14  C   UNL     1       0.691  -3.180  -0.021  0.00  0.00    +0.250 C 
ATOM     15  O   UNL     1       0.310  -3.657  -1.075  0.00  0.00    -0.270 OA
ATOM     16  N   UNL     1       0.291  -3.720   1.147  0.00  0.00    -0.307 N 
ATOM     17  H   UNL     1       0.594  -3.340   1.986  0.00  0.00    +0.149 HD
BRANCH  16  18
ATOM     18  C   UNL     1      -0.602  -4.882   1.148  0.00  0.00    +0.147 C 
BRANCH  18  19
ATOM     19  C   UNL     1      -0.895  -5.288   2.570  0.00  0.00    +0.007 A 
ATOM     20  C   UNL     1      -1.893  -4.872   3.388  0.00  0.00    +0.013 A 
ATOM     21  C   UNL     1      -1.970  -5.389   4.668  0.00  0.00    +0.008 A 
ATOM     22  C   UNL     1      -1.040  -6.288   5.070  0.00  0.00    +0.045 A 
ATOM     23  S   UNL     1      -0.014  -6.435   3.616  0.00  0.00    -0.100 S 
ENDBRANCH  18  19
ENDBRANCH  16  18
ENDBRANCH   3  14
BRANCH   2  24
ATOM     24  N   UNL     1       3.713  -3.212  -0.049  0.00  0.00    -0.342 N 
ATOM     25  H   UNL     1       3.288  -4.084  -0.049  0.00  0.00    +0.144 HD
ATOM     26  H   UNL     1       4.681  -3.145  -0.057  0.00  0.00    +0.144 HD
ENDBRANCH   2  24
BRANCH   1  28
ATOM     27  C   UNL     1       5.425  -0.324  -1.174  0.00  0.00    +0.143 C 
ATOM     28  N   UNL     1       4.803  -0.481  -0.044  0.00  0.00    -0.171 NA
BRANCH  27  35
ATOM     29  C   UNL     1       8.564   0.398   2.226  0.00  0.00    +0.001 A 
ATOM     30  C   UNL     1       9.823   0.701   1.727  0.00  0.00    +0.002 A 
ATOM     31  C   UNL     1      10.043   0.763   0.369  0.00  0.00    +0.026 A 
ATOM     32  C   UNL     1       8.997   0.521  -0.516  0.00  0.00    +0.047 A 
ATOM     33  C   UNL     1       7.723   0.215  -0.010  0.00  0.00    +0.008 A 
ATOM     34  C   UNL     1       7.515   0.155   1.367  0.00  0.00    +0.010 A 
ATOM     35  C   UNL     1       6.856   0.017  -1.185  0.00  0.00    +0.020 A 
ATOM     36  C   UNL     1       7.639   0.206  -2.281  0.00  0.00    +0.093 A 
ATOM     37  N   UNL     1       8.908   0.511  -1.892  0.00  0.00    -0.360 N 
ATOM     38  H   UNL     1       9.646   0.690  -2.497  0.00  0.00    +0.165 HD
ENDBRANCH  27  35
ENDBRANCH   1  28
TORSDOF 6
