REMARK  Name = ZINC60309329
REMARK  6 active torsions:
REMARK  status: ('A' for Active; 'I' for Inactive)
REMARK    1  A    between atoms: C_1  and  C_2
REMARK    2  A    between atoms: C_2  and  C_3
REMARK    3  A    between atoms: C_3  and  C_4
REMARK    4  A    between atoms: C_14  and  C_16
REMARK    5  A    between atoms: C_19  and  S_22
REMARK    6  A    between atoms: S_22  and  N_25
REMARK                            x       y       z     vdW  Elec       q    Type
REMARK                         _______ _______ _______ _____ _____    ______ ____
ROOT
ATOM      1  C   UNL     1       3.108 -10.160  -0.696  0.00  0.00    +0.037 A 
ATOM      2  C   UNL     1       3.562 -10.533   0.571  0.00  0.00    +0.015 A 
ATOM      3  C   UNL     1       3.924 -11.842   0.812  0.00  0.00    +0.029 A 
ATOM      4  C   UNL     1       3.838 -12.784  -0.197  0.00  0.00    +0.106 A 
ATOM      5  C   UNL     1       3.389 -12.421  -1.454  0.00  0.00    +0.029 A 
ATOM      6  C   UNL     1       3.019 -11.117  -1.708  0.00  0.00    +0.015 A 
ENDROOT
BRANCH   1  16
ATOM      7  C   UNL     1       0.739  -2.027  -1.265  0.00  0.00    -0.006 C 
ATOM      8  C   UNL     1       1.349  -2.525  -2.579  0.00  0.00    +0.010 C 
ATOM      9  C   UNL     1       1.155  -4.037  -2.710  0.00  0.00    +0.056 C 
ATOM     10  C   UNL     1       1.677  -4.707  -1.447  0.00  0.00    +0.054 A 
ATOM     11  C   UNL     1       1.856  -3.990  -0.308  0.00  0.00    +0.015 A 
ATOM     12  S   UNL     1       2.463  -5.208   0.825  0.00  0.00    -0.057 S 
ATOM     13  C   UNL     1       2.439  -6.521  -0.232  0.00  0.00    +0.165 A 
ATOM     14  N   UNL     1       1.991  -5.996  -1.351  0.00  0.00    -0.229 NA
ATOM     15  N   UNL     1       2.806  -7.838   0.018  0.00  0.00    -0.261 N 
ATOM     16  C   UNL     1       2.718  -8.759  -0.962  0.00  0.00    +0.250 C 
ATOM     17  O   UNL     1       2.319  -8.438  -2.064  0.00  0.00    -0.270 OA
ATOM     18  C   UNL     1       1.593  -2.537  -0.093  0.00  0.00    +0.048 C 
ATOM     19  H   UNL     1       3.125  -8.094   0.898  0.00  0.00    +0.157 HD
BRANCH   7  20
ATOM     20  C   UNL     1       0.718  -0.497  -1.257  0.00  0.00    +0.003 C 
BRANCH  20  22
ATOM     21  C   UNL     1      -0.019   1.526   0.010  0.00  0.00    +0.004 C 
ATOM     22  C   UNL     1       0.002  -0.004   0.002  0.00  0.00    -0.003 C 
ENDBRANCH  20  22
ENDBRANCH   7  20
ENDBRANCH   1  16
BRANCH   4  23
ATOM     23  S   UNL     1       4.302 -14.454   0.120  0.00  0.00    +0.061 S 
ATOM     24  O   UNL     1       4.648 -15.025  -1.134  0.00  0.00    -0.153 OA
ATOM     25  O   UNL     1       5.204 -14.423   1.218  0.00  0.00    -0.153 OA
BRANCH  23  26
ATOM     26  N   UNL     1       2.946 -15.248   0.643  0.00  0.00    -0.166 NA
ATOM     27  C   UNL     1       2.596 -15.307   2.073  0.00  0.00    +0.128 C 
ATOM     28  C   UNL     1       1.241 -14.622   2.261  0.00  0.00    +0.121 C 
ATOM     29  N   UNL     1       0.287 -15.082   1.261  0.00  0.00    -0.313 N 
ATOM     30  C   UNL     1       0.621 -15.628   0.091  0.00  0.00    +0.229 C 
ATOM     31  O   UNL     1      -0.263 -15.899  -0.695  0.00  0.00    -0.274 OA
ATOM     32  C   UNL     1       2.040 -15.918  -0.301  0.00  0.00    +0.205 C 
ATOM     33  H   UNL     1      -0.657 -14.983   1.460  0.00  0.00    +0.149 HD
ENDBRANCH  23  26
ENDBRANCH   4  23
TORSDOF 5
