REMARK  Name = ZINC59310289
REMARK  6 active torsions:
REMARK  status: ('A' for Active; 'I' for Inactive)
REMARK    1  A    between atoms: C_9  and  C_17
REMARK    2  A    between atoms: N_18  and  N_19
REMARK    3  A    between atoms: C_22  and  S_25
REMARK    4  A    between atoms: S_25  and  C_26
REMARK    5  A    between atoms: C_26  and  C_27
REMARK    6  A    between atoms: N_29  and  C_30
REMARK                            x       y       z     vdW  Elec       q    Type
REMARK                         _______ _______ _______ _____ _____    ______ ____
ROOT
ATOM      1  N   UNL     1       3.869  -6.430   1.442  0.00  0.00    -0.205 N 
ATOM      2  C   UNL     1       2.683  -7.130   1.303  0.00  0.00    +0.232 A 
ATOM      3  N   UNL     1       1.473  -6.644   1.482  0.00  0.00    -0.186 NA
ATOM      4  C   UNL     1       0.567  -7.603   1.262  0.00  0.00    +0.211 A 
ATOM      5  N   UNL     1       1.189  -8.712   0.940  0.00  0.00    -0.144 NA
ATOM      6  N   UNL     1       2.564  -8.428   0.955  0.00  0.00    -0.245 N 
ATOM      7  H   UNL     1       4.716  -6.875   1.284  0.00  0.00    +0.177 HD
ATOM      8  H   UNL     1       3.287  -9.044   0.755  0.00  0.00    +0.192 HD
ENDROOT
BRANCH   1  10
ATOM      9  C   UNL     1       4.943  -4.432   1.941  0.00  0.00    +0.139 C 
ATOM     10  N   UNL     1       3.846  -5.079   1.812  0.00  0.00    -0.188 NA
BRANCH   9  19
ATOM     11  C   UNL     1       0.051   1.064   3.166  0.00  0.00    +0.001 A 
ATOM     12  C   UNL     1       1.311   1.783   3.434  0.00  0.00    +0.008 A 
ATOM     13  C   UNL     1       2.452   1.147   3.325  0.00  0.00    -0.017 A 
ATOM     14  C   UNL     1       3.748   1.801   3.579  0.00  0.00    +0.009 A 
ATOM     15  C   UNL     1       4.864   1.115   3.456  0.00  0.00    +0.009 A 
ATOM     16  C   UNL     1       4.880  -0.303   3.068  0.00  0.00    -0.017 A 
ATOM     17  C   UNL     1       6.163  -1.023   2.945  0.00  0.00    +0.009 A 
ATOM     18  C   UNL     1       6.178  -2.292   2.598  0.00  0.00    +0.010 A 
ATOM     19  C   UNL     1       4.918  -3.011   2.329  0.00  0.00    +0.002 A 
ATOM     20  C   UNL     1       3.777  -2.375   2.438  0.00  0.00    -0.008 A 
ATOM     21  C   UNL     1       3.766  -0.952   2.827  0.00  0.00    -0.002 A 
ATOM     22  C   UNL     1       2.463  -0.276   2.937  0.00  0.00    -0.002 A 
ATOM     23  C   UNL     1       1.349  -0.925   2.696  0.00  0.00    -0.017 A 
ATOM     24  C   UNL     1       0.066  -0.205   2.819  0.00  0.00    +0.008 A 
ATOM     25  C   UNL     1       1.365  -2.344   2.309  0.00  0.00    +0.009 A 
ATOM     26  C   UNL     1       2.481  -3.029   2.185  0.00  0.00    +0.010 A 
ENDBRANCH   9  19
ENDBRANCH   1  10
BRANCH   4  27
ATOM     27  S   UNL     1      -1.180  -7.409   1.386  0.00  0.00    -0.075 S 
BRANCH  27  28
ATOM     28  C   UNL     1      -1.835  -9.049   0.973  0.00  0.00    +0.173 C 
BRANCH  28  29
ATOM     29  C   UNL     1      -3.340  -9.021   1.042  0.00  0.00    +0.228 C 
ATOM     30  O   UNL     1      -3.914  -7.996   1.340  0.00  0.00    -0.275 OA
ATOM     31  N   UNL     1      -4.048 -10.136   0.772  0.00  0.00    -0.280 N 
ATOM     32  H   UNL     1      -3.587 -10.963   0.559  0.00  0.00    +0.155 HD
BRANCH  31  33
ATOM     33  C   UNL     1      -5.449 -10.101   0.798  0.00  0.00    +0.105 A 
ATOM     34  C   UNL     1      -6.164 -11.191   1.280  0.00  0.00    +0.147 A 
ATOM     35  C   UNL     1      -7.547 -11.152   1.304  0.00  0.00    +0.040 A 
ATOM     36  C   UNL     1      -8.217 -10.030   0.850  0.00  0.00    +0.006 A 
ATOM     37  C   UNL     1      -7.508  -8.944   0.371  0.00  0.00    +0.040 A 
ATOM     38  C   UNL     1      -6.125  -8.973   0.348  0.00  0.00    +0.147 A 
ATOM     39  F   UNL     1      -5.434  -7.909  -0.115  0.00  0.00    -0.203 F 
ATOM     40  F   UNL     1      -5.511 -12.287   1.723  0.00  0.00    -0.203 F 
ENDBRANCH  31  33
ENDBRANCH  28  29
ENDBRANCH  27  28
ENDBRANCH   4  27
TORSDOF 6
