REMARK  Name = ZINC05573357
REMARK  6 active torsions:
REMARK  status: ('A' for Active; 'I' for Inactive)
REMARK    1  A    between atoms: C_4  and  N_29
REMARK    2  A    between atoms: C_5  and  C_7
REMARK    3  A    between atoms: C_9  and  C_21
REMARK    4  A    between atoms: C_11  and  C_16
REMARK    5  A    between atoms: C_11  and  O_20
REMARK    6  A    between atoms: C_21  and  C_23
REMARK                            x       y       z     vdW  Elec       q    Type
REMARK                         _______ _______ _______ _____ _____    ______ ____
ROOT
ATOM      1  C   UNL     1       2.522   1.631   1.435  0.00  0.00    +0.122 C 
ATOM      2  C   UNL     1       1.333   2.489   0.989  0.00  0.00    +0.144 C 
ATOM      3  C   UNL     1       1.669   3.131  -0.361  0.00  0.00    +0.243 C 
ATOM      4  N   UNL     1       2.029   2.075  -1.314  0.00  0.00    -0.264 N 
ATOM      5  C   UNL     1       2.583   0.923  -0.906  0.00  0.00    +0.302 C 
ATOM      6  O   UNL     1       2.871   0.086  -1.740  0.00  0.00    -0.253 OA
ATOM      7  N   UNL     1       2.834   0.660   0.385  0.00  0.00    -0.292 N 
ATOM      8  H   UNL     1       1.861   2.212  -2.260  0.00  0.00    +0.153 HD
ATOM      9  H   UNL     1       3.229  -0.192   0.628  0.00  0.00    +0.151 HD
ENDROOT
BRANCH   1  14
ATOM     10  C   UNL     1       5.824   3.397   0.949  0.00  0.00    +0.000 A 
ATOM     11  C   UNL     1       5.916   4.136   2.114  0.00  0.00    +0.002 A 
ATOM     12  C   UNL     1       4.910   4.063   3.059  0.00  0.00    +0.033 A 
ATOM     13  C   UNL     1       3.812   3.252   2.840  0.00  0.00    +0.131 A 
ATOM     14  C   UNL     1       3.720   2.515   1.674  0.00  0.00    +0.004 A 
ATOM     15  C   UNL     1       4.728   2.583   0.731  0.00  0.00    +0.008 A 
BRANCH  13  16
ATOM     16  N   UNL     1       2.735   3.174   3.852  0.00  0.00    +0.057 N 
ATOM     17  O   UNL     1       2.776   3.885   4.841  0.00  0.00    -0.126 OA
ATOM     18  O   UNL     1       1.808   2.399   3.697  0.00  0.00    -0.126 OA
ENDBRANCH  13  16
ENDBRANCH   1  14
BRANCH   3  19
ATOM     19  C   UNL     1       0.452   3.901  -0.877  0.00  0.00    +0.436 C 
ATOM     20  F   UNL     1       0.034   4.818   0.093  0.00  0.00    -0.166 F 
ATOM     21  F   UNL     1       0.795   4.585  -2.048  0.00  0.00    -0.166 F 
ATOM     22  F   UNL     1      -0.587   3.004  -1.149  0.00  0.00    -0.166 F 
ENDBRANCH   3  19
BRANCH   3  23
ATOM     23  O   UNL     1       2.771   4.027  -0.203  0.00  0.00    -0.364 OA
ATOM     24  H   UNL     1       3.038   4.470  -1.020  0.00  0.00    +0.212 HD
ENDBRANCH   3  23
BRANCH   2  25
ATOM     25  C   UNL     1       0.109   1.622   0.847  0.00  0.00    +0.174 C 
ATOM     26  O   UNL     1       0.081   0.745   0.011  0.00  0.00    -0.291 OA
BRANCH  25  27
ATOM     27  C   UNL     1      -1.055   1.844   1.720  0.00  0.00    +0.036 A 
ATOM     28  C   UNL     1      -2.157   0.977   1.675  0.00  0.00    +0.014 A 
ATOM     29  C   UNL     1      -3.225   1.231   2.516  0.00  0.00    +0.020 A 
ATOM     30  C   UNL     1      -3.174   2.321   3.366  0.00  0.00    +0.111 A 
ATOM     31  N   UNL     1      -2.124   3.121   3.388  0.00  0.00    -0.263 NA
ATOM     32  C   UNL     1      -1.080   2.920   2.612  0.00  0.00    +0.122 A 
ENDBRANCH  25  27
ENDBRANCH   2  25
TORSDOF 6
