REMARK  Name = ZINC48305411
REMARK  12 active torsions:
REMARK  status: ('A' for Active; 'I' for Inactive)
REMARK    1  A    between atoms: C_1  and  C_2
REMARK    2  A    between atoms: C_2  and  C_4
REMARK    3  A    between atoms: C_2  and  N_10
REMARK    4  A    between atoms: C_4  and  N_5
REMARK    5  A    between atoms: N_13  and  C_14
REMARK    6  A    between atoms: C_14  and  C_15
REMARK    7  A    between atoms: C_20  and  C_21
REMARK    8  A    between atoms: C_21  and  S_22
REMARK    9  A    between atoms: S_22  and  N_25
REMARK   10  A    between atoms: N_25  and  C_26
REMARK   11  A    between atoms: C_26  and  C_27
REMARK   12  A    between atoms: C_26  and  C_28
REMARK                            x       y       z     vdW  Elec       q    Type
REMARK                         _______ _______ _______ _____ _____    ______ ____
ROOT
ATOM      1  C   UNL     1       4.166  -1.166   2.249  0.00  0.00    +0.141 C 
ENDROOT
BRANCH   1   5
ATOM      2  N   UNL     1       0.711  -0.489   1.189  0.00  0.00    -0.295 N 
ATOM      3  C   UNL     1       2.054  -0.600   1.174  0.00  0.00    +0.300 C 
ATOM      4  O   UNL     1       2.677  -0.297   0.175  0.00  0.00    -0.253 OA
ATOM      5  N   UNL     1       2.706  -1.046   2.266  0.00  0.00    -0.295 N 
ATOM      6  H   UNL     1       0.213  -0.731   1.986  0.00  0.00    +0.151 HD
ATOM      7  H   UNL     1       2.208  -1.288   3.062  0.00  0.00    +0.151 HD
BRANCH   2   9
ATOM      8  C   UNL     1      -0.019   1.526   0.010  0.00  0.00    +0.029 C 
ATOM      9  C   UNL     1       0.002  -0.004   0.002  0.00  0.00    +0.091 C 
BRANCH   9  10
ATOM     10  C   UNL     1      -1.433  -0.534   0.013  0.00  0.00    +0.144 C 
BRANCH  10  11
ATOM     11  N   UNL     1      -1.416  -1.993  -0.116  0.00  0.00    -0.337 N 
ATOM     12  C   UNL     1      -1.445  -2.706  -1.284  0.00  0.00    +0.104 A 
ATOM     13  C   UNL     1      -1.414  -4.009  -0.946  0.00  0.00    +0.101 A 
ATOM     14  N   UNL     1      -1.368  -4.090   0.393  0.00  0.00    -0.352 N 
ATOM     15  C   UNL     1      -1.364  -2.886   0.896  0.00  0.00    +0.173 A 
ATOM     16  H   UNL     1      -1.338  -4.913   0.905  0.00  0.00    +0.166 HD
ENDBRANCH  10  11
ENDBRANCH   9  10
ENDBRANCH   2   9
ENDBRANCH   1   5
BRANCH   1  17
ATOM     17  C   UNL     1       4.642  -1.684   3.582  0.00  0.00    -0.026 A 
ATOM     18  C   UNL     1       5.148  -0.806   4.523  0.00  0.00    +0.005 A 
ATOM     19  C   UNL     1       5.585  -1.281   5.746  0.00  0.00    +0.000 A 
ATOM     20  C   UNL     1       5.516  -2.633   6.027  0.00  0.00    +0.000 A 
ATOM     21  C   UNL     1       5.010  -3.510   5.086  0.00  0.00    +0.005 A 
ATOM     22  C   UNL     1       4.569  -3.035   3.865  0.00  0.00    -0.020 A 
BRANCH  22  23
ATOM     23  C   UNL     1       4.012  -3.990   2.841  0.00  0.00    +0.220 C 
BRANCH  23  24
ATOM     24  S   UNL     1       5.357  -4.594   1.784  0.00  0.00    +0.034 S 
ATOM     25  O   UNL     1       5.862  -3.535   0.982  0.00  0.00    -0.158 OA
ATOM     26  O   UNL     1       6.238  -5.418   2.535  0.00  0.00    -0.158 OA
BRANCH  24  27
ATOM     27  N   UNL     1       4.626  -5.623   0.712  0.00  0.00    -0.192 NA
ATOM     28  H   UNL     1       4.841  -6.569   0.724  0.00  0.00    +0.148 HD
BRANCH  27  29
ATOM     29  C   UNL     1       3.654  -5.106  -0.254  0.00  0.00    +0.070 C 
ATOM     30  C   UNL     1       4.359  -4.812  -1.579  0.00  0.00    +0.025 C 
ATOM     31  C   UNL     1       2.555  -6.147  -0.480  0.00  0.00    +0.025 C 
ENDBRANCH  27  29
ENDBRANCH  24  27
ENDBRANCH  23  24
ENDBRANCH  22  23
ENDBRANCH   1  17
TORSDOF 9
