REMARK  Name = ZINC39559525
REMARK  8 active torsions:
REMARK  status: ('A' for Active; 'I' for Inactive)
REMARK    1  A    between atoms: C_7  and  C_14
REMARK    2  A    between atoms: N_9  and  C_10
REMARK    3  A    between atoms: C_10  and  C_11
REMARK    4  A    between atoms: C_11  and  C_12
REMARK    5  A    between atoms: C_15  and  C_16
REMARK    6  A    between atoms: N_18  and  C_19
REMARK    7  A    between atoms: C_19  and  C_20
REMARK    8  A    between atoms: N_22  and  C_23
REMARK                            x       y       z     vdW  Elec       q    Type
REMARK                         _______ _______ _______ _____ _____    ______ ____
ROOT
ATOM      1  C   UNL     1       0.330  -5.622  -0.022  0.00  0.00    +0.237 C 
ATOM      2  O   UNL     1      -0.875  -5.450   0.000  0.00  0.00    -0.271 OA
ATOM      3  N   UNL     1       0.832  -6.873  -0.040  0.00  0.00    -0.303 N 
ATOM      4  H   UNL     1       1.792  -7.011  -0.058  0.00  0.00    +0.149 HD
ENDROOT
BRANCH   1   6
ATOM      5  C   UNL     1       0.700  -3.253  -0.011  0.00  0.00    +0.015 C 
ATOM      6  C   UNL     1       1.204  -4.510  -0.029  0.00  0.00    +0.068 C 
BRANCH   5  13
ATOM      7  C   UNL     1      -0.018   1.373   0.036  0.00  0.00    +0.001 A 
ATOM      8  C   UNL     1       1.170   2.090   0.021  0.00  0.00    +0.002 A 
ATOM      9  C   UNL     1       2.383   1.437  -0.005  0.00  0.00    +0.026 A 
ATOM     10  C   UNL     1       2.423   0.046  -0.016  0.00  0.00    +0.050 A 
ATOM     11  C   UNL     1       1.220  -0.677  -0.000  0.00  0.00    +0.007 A 
ATOM     12  C   UNL     1       0.001  -0.004   0.025  0.00  0.00    +0.010 A 
ATOM     13  C   UNL     1       1.603  -2.101  -0.018  0.00  0.00    +0.000 A 
ATOM     14  C   UNL     1       2.970  -2.133  -0.042  0.00  0.00    +0.094 A 
ATOM     15  N   UNL     1       3.457  -0.868  -0.041  0.00  0.00    -0.345 N 
BRANCH  15  16
ATOM     16  C   UNL     1       4.880  -0.520  -0.063  0.00  0.00    +0.136 C 
BRANCH  16  17
ATOM     17  C   UNL     1       5.370  -0.288   1.367  0.00  0.00    +0.140 C 
BRANCH  17  18
ATOM     18  C   UNL     1       6.800   0.062   1.345  0.00  0.00    +0.064 C 
ATOM     19  N   UNL     1       7.903   0.332   1.328  0.00  0.00    -0.197 NA
ENDBRANCH  17  18
ENDBRANCH  16  17
ENDBRANCH  15  16
ENDBRANCH   5  13
ENDBRANCH   1   6
BRANCH   3  20
ATOM     20  C   UNL     1      -0.073  -8.026  -0.033  0.00  0.00    +0.200 C 
BRANCH  20  21
ATOM     21  C   UNL     1       0.734  -9.298  -0.057  0.00  0.00    +0.234 C 
ATOM     22  O   UNL     1       1.946  -9.247  -0.078  0.00  0.00    -0.274 OA
ATOM     23  N   UNL     1       0.110 -10.492  -0.055  0.00  0.00    -0.284 N 
ATOM     24  H   UNL     1      -0.856 -10.535   0.029  0.00  0.00    +0.155 HD
BRANCH  23  25
ATOM     25  C   UNL     1       0.855 -11.673  -0.174  0.00  0.00    +0.036 A 
ATOM     26  C   UNL     1       0.334 -12.753  -0.878  0.00  0.00    +0.025 A 
ATOM     27  C   UNL     1       1.063 -13.919  -0.999  0.00  0.00    +0.029 A 
ATOM     28  C   UNL     1       2.319 -14.014  -0.418  0.00  0.00    +0.067 A 
ATOM     29  C   UNL     1       2.844 -12.930   0.289  0.00  0.00    +0.069 A 
ATOM     30  C   UNL     1       2.112 -11.759   0.404  0.00  0.00    +0.051 A 
ATOM     31  N   UNL     1       4.101 -13.319   0.748  0.00  0.00    -0.306 N 
ATOM     32  H   UNL     1       4.707 -12.774   1.273  0.00  0.00    +0.170 HD
ATOM     33  C   UNL     1       4.330 -14.582   0.340  0.00  0.00    +0.325 A 
ATOM     34  O   UNL     1       5.338 -15.221   0.573  0.00  0.00    -0.247 OA
ATOM     35  N   UNL     1       3.274 -15.029  -0.366  0.00  0.00    -0.306 N 
ATOM     36  H   UNL     1       3.192 -15.907  -0.769  0.00  0.00    +0.170 HD
ENDBRANCH  23  25
ENDBRANCH  20  21
ENDBRANCH   3  20
TORSDOF 8
