REMARK  Name = ZINC22527491
REMARK  7 active torsions:
REMARK  status: ('A' for Active; 'I' for Inactive)
REMARK    1  A    between atoms: C_1  and  C_2
REMARK    2  A    between atoms: C_2  and  C_4
REMARK    3  A    between atoms: C_2  and  N_11
REMARK    4  A    between atoms: C_12  and  C_14
REMARK    5  A    between atoms: C_14  and  C_25
REMARK    6  A    between atoms: C_15  and  C_16
REMARK    7  A    between atoms: C_20  and  N_22
REMARK                            x       y       z     vdW  Elec       q    Type
REMARK                         _______ _______ _______ _____ _____    ______ ____
ROOT
ATOM      1  C   UNL     1      -1.253   5.979  -0.060  0.00  0.00    +0.044 C 
ATOM      2  C   UNL     1      -0.082   5.338   0.197  0.00  0.00    +0.021 C 
ENDROOT
BRANCH   2   3
ATOM      3  C   UNL     1      -0.094   3.936   0.637  0.00  0.00    -0.022 A 
ATOM      4  C   UNL     1      -1.108   3.473   1.484  0.00  0.00    +0.008 A 
ATOM      5  C   UNL     1      -1.115   2.155   1.887  0.00  0.00    +0.003 A 
ATOM      6  C   UNL     1      -0.117   1.293   1.467  0.00  0.00    +0.033 A 
ATOM      7  C   UNL     1       0.890   1.743   0.631  0.00  0.00    +0.127 A 
ATOM      8  C   UNL     1       0.909   3.057   0.213  0.00  0.00    +0.040 A 
BRANCH   7   9
ATOM      9  N   UNL     1       1.950   0.811   0.184  0.00  0.00    +0.056 N 
ATOM     10  O   UNL     1       1.935  -0.350   0.552  0.00  0.00    -0.126 OA
ATOM     11  O   UNL     1       2.837   1.206  -0.552  0.00  0.00    -0.126 OA
ENDBRANCH   7   9
ENDBRANCH   2   3
BRANCH   1  12
ATOM     12  C   UNL     1      -2.528   5.226  -0.051  0.00  0.00    -0.013 A 
ATOM     13  C   UNL     1      -2.791   4.282  -1.044  0.00  0.00    +0.008 A 
ATOM     14  C   UNL     1      -3.978   3.580  -1.028  0.00  0.00    +0.001 A 
ATOM     15  C   UNL     1      -4.912   3.817  -0.035  0.00  0.00    +0.000 A 
ATOM     16  C   UNL     1      -4.660   4.755   0.950  0.00  0.00    +0.001 A 
ATOM     17  C   UNL     1      -3.474   5.460   0.948  0.00  0.00    +0.008 A 
ENDBRANCH   1  12
BRANCH   1  19
ATOM     18  N   UNL     1      -2.415   8.059  -0.600  0.00  0.00    -0.305 N 
ATOM     19  C   UNL     1      -1.254   7.423  -0.346  0.00  0.00    +0.245 C 
ATOM     20  O   UNL     1      -0.207   8.042  -0.353  0.00  0.00    -0.270 OA
ATOM     21  H   UNL     1      -3.362   7.499  -0.594  0.00  0.00    +0.150 HD
BRANCH  18  23
ATOM     22  C   UNL     1      -2.445  10.277   0.430  0.00  0.00    +0.033 C 
ATOM     23  C   UNL     1      -2.415   9.496  -0.886  0.00  0.00    +0.100 C 
BRANCH  23  24
ATOM     24  C   UNL     1      -3.631   9.845  -1.705  0.00  0.00    -0.027 A 
ATOM     25  C   UNL     1      -4.847   9.250  -1.425  0.00  0.00    +0.008 A 
ATOM     26  C   UNL     1      -5.964   9.573  -2.171  0.00  0.00    +0.038 A 
ATOM     27  C   UNL     1      -5.862  10.486  -3.208  0.00  0.00    +0.123 A 
ATOM     28  C   UNL     1      -4.643  11.077  -3.491  0.00  0.00    +0.038 A 
ATOM     29  C   UNL     1      -3.529  10.757  -2.739  0.00  0.00    +0.008 A 
ATOM     30  F   UNL     1      -6.952  10.798  -3.943  0.00  0.00    -0.205 F 
ENDBRANCH  23  24
ENDBRANCH  18  23
ENDBRANCH   1  19
TORSDOF 6
