REMARK  Name = ZINC56950494
REMARK  8 active torsions:
REMARK  status: ('A' for Active; 'I' for Inactive)
REMARK    1  A    between atoms: C_1  and  N_2
REMARK    2  A    between atoms: N_2  and  C_3
REMARK    3  A    between atoms: N_2  and  C_4
REMARK    4  A    between atoms: C_4  and  C_6
REMARK    5  A    between atoms: C_4  and  C_24
REMARK    6  A    between atoms: C_6  and  N_7
REMARK    7  A    between atoms: N_10  and  N_11
REMARK    8  A    between atoms: C_12  and  C_14
REMARK                            x       y       z     vdW  Elec       q    Type
REMARK                         _______ _______ _______ _____ _____    ______ ____
ROOT
ATOM      1  N   UNL     1      -1.766   1.531  -1.169  0.00  0.00    -0.299 N 
ATOM      2  C   UNL     1      -2.260   2.263  -2.188  0.00  0.00    +0.316 C 
ATOM      3  O   UNL     1      -2.936   1.731  -3.047  0.00  0.00    -0.251 OA
ATOM      4  N   UNL     1      -2.004   3.585  -2.254  0.00  0.00    -0.218 N 
ATOM      5  H   UNL     1      -1.227   1.956  -0.484  0.00  0.00    +0.150 HD
ATOM      6  H   UNL     1      -2.360   4.111  -2.987  0.00  0.00    +0.174 HD
ENDROOT
BRANCH   4   7
ATOM      7  N   UNL     1      -1.225   4.198  -1.264  0.00  0.00    -0.228 N 
ATOM      8  C   UNL     1      -0.969   5.519  -1.330  0.00  0.00    +0.279 C 
ATOM      9  O   UNL     1      -1.414   6.179  -2.248  0.00  0.00    -0.267 OA
ATOM     10  H   UNL     1      -0.870   3.671  -0.531  0.00  0.00    +0.173 HD
BRANCH   8  11
ATOM     11  C   UNL     1      -0.144   6.168  -0.283  0.00  0.00    +0.127 A 
ATOM     12  C   UNL     1       0.107   7.546  -0.364  0.00  0.00    +0.034 A 
ATOM     13  C   UNL     1       0.865   8.155   0.594  0.00  0.00    +0.012 A 
ATOM     14  C   UNL     1       1.373   7.366   1.643  0.00  0.00    +0.000 A 
ATOM     15  C   UNL     1       2.159   7.927   2.662  0.00  0.00    +0.010 A 
ATOM     16  C   UNL     1       2.633   7.133   3.662  0.00  0.00    +0.001 A 
ATOM     17  C   UNL     1       2.349   5.769   3.688  0.00  0.00    +0.002 A 
ATOM     18  C   UNL     1       1.591   5.190   2.718  0.00  0.00    +0.028 A 
ATOM     19  C   UNL     1       1.082   5.977   1.667  0.00  0.00    +0.072 A 
ATOM     20  N   UNL     1       0.331   5.438   0.707  0.00  0.00    -0.242 NA
ENDBRANCH   8  11
ENDBRANCH   4   7
BRANCH   1  21
ATOM     21  C   UNL     1      -2.044   0.095  -1.098  0.00  0.00    +0.095 C 
BRANCH  21  22
ATOM     22  C   UNL     1      -1.282  -0.514   0.081  0.00  0.00    -0.021 C 
BRANCH  22  23
ATOM     23  C   UNL     1      -1.801   0.069   1.370  0.00  0.00    -0.059 A 
ATOM     24  C   UNL     1      -2.970  -0.416   1.927  0.00  0.00    +0.005 A 
ATOM     25  C   UNL     1      -3.446   0.118   3.109  0.00  0.00    +0.038 A 
ATOM     26  C   UNL     1      -2.753   1.139   3.736  0.00  0.00    +0.123 A 
ATOM     27  C   UNL     1      -1.582   1.624   3.178  0.00  0.00    +0.038 A 
ATOM     28  C   UNL     1      -1.105   1.085   1.998  0.00  0.00    +0.005 A 
ATOM     29  F   UNL     1      -3.218   1.662   4.891  0.00  0.00    -0.205 F 
ENDBRANCH  22  23
BRANCH  22  31
ATOM     30  C   UNL     1      -0.968  -2.539  -1.166  0.00  0.00    -0.096 C 
ATOM     31  N   UNL     1      -1.475  -1.970   0.090  0.00  0.00    +0.382 N 
ATOM     32  C   UNL     1      -0.744  -2.554   1.222  0.00  0.00    -0.096 C 
ATOM     33  H   UNL     1      -2.458  -2.179   0.180  0.00  0.00    -0.082 HD
ENDBRANCH  22  31
ENDBRANCH  21  22
ENDBRANCH   1  21
TORSDOF 6
