REMARK  Name = ZINC06754851
REMARK  9 active torsions:
REMARK  status: ('A' for Active; 'I' for Inactive)
REMARK    1  A    between atoms: C_1  and  C_2
REMARK    2  A    between atoms: C_2  and  C_28
REMARK    3  A    between atoms: C_7  and  N_12
REMARK    4  A    between atoms: C_8  and  C_9
REMARK    5  A    between atoms: N_15  and  C_16
REMARK    6  A    between atoms: N_15  and  C_19
REMARK    7  A    between atoms: C_16  and  C_17
REMARK    8  A    between atoms: C_17  and  O_18
REMARK    9  A    between atoms: C_19  and  C_20
REMARK                            x       y       z     vdW  Elec       q    Type
REMARK                         _______ _______ _______ _____ _____    ______ ____
ROOT
ATOM      1  C   UNL     1      -0.019   1.526   0.010  0.00  0.00    +0.041 C 
ATOM      2  C   UNL     1       0.002  -0.004   0.002  0.00  0.00    +0.068 C 
ATOM      3  C   UNL     1      -1.436  -0.532   0.020  0.00  0.00    +0.071 C 
ATOM      4  C   UNL     1      -1.390  -2.034  -0.233  0.00  0.00    -0.018 A 
ATOM      5  C   UNL     1      -0.279  -2.593  -0.764  0.00  0.00    +0.021 A 
ATOM      6  S   UNL     1      -0.652  -4.317  -0.881  0.00  0.00    -0.075 S 
ATOM      7  C   UNL     1      -2.260  -4.299  -0.235  0.00  0.00    +0.086 A 
ATOM      8  C   UNL     1      -2.470  -2.957   0.056  0.00  0.00    +0.069 A 
ATOM      9  C   UNL     1       0.972  -1.869  -1.154  0.00  0.00    +0.203 C 
ATOM     10  O   UNL     1       0.678  -0.463  -1.172  0.00  0.00    -0.368 OA
ATOM     11  C   UNL     1       0.743  -0.508   1.242  0.00  0.00    +0.041 C 
ENDROOT
BRANCH   8  12
ATOM     12  C   UNL     1      -3.735  -2.493   0.634  0.00  0.00    +0.244 C 
ATOM     13  O   UNL     1      -4.647  -2.150  -0.095  0.00  0.00    -0.270 OA
ATOM     14  N   UNL     1      -3.887  -2.445   1.972  0.00  0.00    -0.325 N 
ATOM     15  H   UNL     1      -3.160  -2.718   2.553  0.00  0.00    +0.145 HD
ATOM     16  H   UNL     1      -4.724  -2.138   2.355  0.00  0.00    +0.145 HD
ENDBRANCH   8  12
BRANCH   7  17
ATOM     17  N   UNL     1      -3.127  -5.366  -0.053  0.00  0.00    -0.263 N 
ATOM     18  C   UNL     1      -2.745  -6.611  -0.399  0.00  0.00    +0.307 C 
ATOM     19  O   UNL     1      -1.640  -6.799  -0.870  0.00  0.00    -0.252 OA
ATOM     20  N   UNL     1      -3.588  -7.648  -0.222  0.00  0.00    -0.279 N 
ATOM     21  H   UNL     1      -4.009  -5.216   0.323  0.00  0.00    +0.157 HD
BRANCH  20  22
ATOM     22  C   UNL     1      -4.919  -7.422   0.346  0.00  0.00    +0.137 C 
BRANCH  22  23
ATOM     23  C   UNL     1      -5.913  -7.138  -0.782  0.00  0.00    +0.175 C 
BRANCH  23  24
ATOM     24  O   UNL     1      -6.045  -8.299  -1.604  0.00  0.00    -0.393 OA
ATOM     25  H   UNL     1      -6.662  -8.191  -2.341  0.00  0.00    +0.209 HD
ENDBRANCH  23  24
ENDBRANCH  22  23
ENDBRANCH  20  22
BRANCH  20  26
ATOM     26  C   UNL     1      -3.172  -9.002  -0.598  0.00  0.00    +0.144 C 
BRANCH  26  27
ATOM     27  C   UNL     1      -2.507  -9.668   0.579  0.00  0.00    -0.030 A 
ATOM     28  C   UNL     1      -1.141  -9.554   0.757  0.00  0.00    +0.005 A 
ATOM     29  C   UNL     1      -0.532 -10.161   1.839  0.00  0.00    +0.000 A 
ATOM     30  C   UNL     1      -1.287 -10.891   2.737  0.00  0.00    +0.000 A 
ATOM     31  C   UNL     1      -2.652 -11.010   2.556  0.00  0.00    +0.000 A 
ATOM     32  C   UNL     1      -3.263 -10.399   1.477  0.00  0.00    +0.005 A 
ENDBRANCH  26  27
ENDBRANCH  20  26
ENDBRANCH   7  17
TORSDOF 7
