REMARK  Name = ZINC20389093
REMARK  7 active torsions:
REMARK  status: ('A' for Active; 'I' for Inactive)
REMARK    1  A    between atoms: C_1  and  C_2
REMARK    2  A    between atoms: C_2  and  C_3
REMARK    3  A    between atoms: C_6  and  C_9
REMARK    4  A    between atoms: C_9  and  N_10
REMARK    5  A    between atoms: C_11  and  C_13
REMARK    6  A    between atoms: N_18  and  S_20
REMARK    7  A    between atoms: S_20  and  N_23
REMARK                            x       y       z     vdW  Elec       q    Type
REMARK                         _______ _______ _______ _____ _____    ______ ____
ROOT
ATOM      1  C   UNL     1       2.462   0.920  -0.017  0.00  0.00    +0.091 C 
ATOM      2  C   UNL     1       2.567   0.034   1.227  0.00  0.00    +0.015 C 
ATOM      3  C   UNL     1       3.888  -0.738   1.195  0.00  0.00    +0.018 C 
ATOM      4  C   UNL     1       5.056   0.254   1.207  0.00  0.00    +0.110 C 
ATOM      5  N   UNL     1       4.883   1.201   0.097  0.00  0.00    -0.166 NA
ATOM      6  C   UNL     1       3.613   1.931  -0.018  0.00  0.00    +0.123 C 
ENDROOT
BRANCH   1   8
ATOM      7  N   UNL     1      -0.011   0.966   0.007  0.00  0.00    -0.311 N 
ATOM      8  C   UNL     1       1.147   1.655   0.000  0.00  0.00    +0.218 C 
ATOM      9  O   UNL     1       1.130   2.868   0.007  0.00  0.00    -0.275 OA
ATOM     10  H   UNL     1       0.004  -0.134   0.006  0.00  0.00    +0.149 HD
BRANCH   7  11
ATOM     11  C   UNL     1      -1.290   1.681   0.017  0.00  0.00    +0.139 C 
BRANCH  11  15
ATOM     12  C   UNL     1      -4.499  -1.138   0.017  0.00  0.00    -0.048 A 
ATOM     13  C   UNL     1      -3.974  -0.689   1.214  0.00  0.00    +0.004 A 
ATOM     14  C   UNL     1      -2.935   0.224   1.214  0.00  0.00    +0.005 A 
ATOM     15  C   UNL     1      -2.422   0.686   0.017  0.00  0.00    -0.030 A 
ATOM     16  C   UNL     1      -2.950   0.241  -1.180  0.00  0.00    +0.005 A 
ATOM     17  C   UNL     1      -3.985  -0.676  -1.180  0.00  0.00    +0.004 A 
BRANCH  12  19
ATOM     18  C   UNL     1      -6.966  -1.387   0.028  0.00  0.00    +0.009 C 
ATOM     19  C   UNL     1      -5.630  -2.134   0.017  0.00  0.00    +0.032 C 
ENDBRANCH  12  19
ENDBRANCH  11  15
ENDBRANCH   7  11
ENDBRANCH   1   8
BRANCH   5  20
ATOM     20  S   UNL     1       6.097   1.442  -1.003  0.00  0.00    +0.100 S 
ATOM     21  O   UNL     1       5.888   2.731  -1.563  0.00  0.00    -0.141 OA
ATOM     22  O   UNL     1       7.309   1.080  -0.356  0.00  0.00    -0.141 OA
BRANCH  20  23
ATOM     23  N   UNL     1       5.871   0.351  -2.228  0.00  0.00    -0.166 NA
ATOM     24  C   UNL     1       6.495  -0.978  -2.172  0.00  0.00    +0.116 C 
ATOM     25  C   UNL     1       7.297  -1.206  -3.453  0.00  0.00    +0.082 C 
ATOM     26  C   UNL     1       6.390  -0.983  -4.665  0.00  0.00    +0.173 C 
ATOM     27  C   UNL     1       5.867   0.455  -4.666  0.00  0.00    +0.082 C 
ATOM     28  C   UNL     1       5.048   0.697  -3.395  0.00  0.00    +0.116 C 
ATOM     29  O   UNL     1       7.127  -1.228  -5.869  0.00  0.00    -0.346 OA
ATOM     30  C   UNL     1       6.455  -2.294  -6.572  0.00  0.00    +0.191 C 
ATOM     31  C   UNL     1       5.022  -2.253  -5.984  0.00  0.00    +0.191 C 
ATOM     32  O   UNL     1       5.280  -1.894  -4.605  0.00  0.00    -0.346 OA
ENDBRANCH  20  23
ENDBRANCH   5  20
TORSDOF 6
