REMARK  Name = ZINC65373986
REMARK  4 active torsions:
REMARK  status: ('A' for Active; 'I' for Inactive)
REMARK    1  A    between atoms: C_1  and  O_2
REMARK    2  A    between atoms: O_2  and  C_3
REMARK    3  A    between atoms: C_8  and  C_9
REMARK    4  A    between atoms: C_15  and  C_18
REMARK                            x       y       z     vdW  Elec       q    Type
REMARK                         _______ _______ _______ _____ _____    ______ ____
ROOT
ATOM      1  C   UNL     1       0.018  -2.829  -0.013  0.00  0.00    +0.045 C 
ATOM      2  C   UNL     1       0.056  -3.645  -1.278  0.00  0.00    +0.065 C 
ATOM      3  C   UNL     1       1.409  -4.210  -1.572  0.00  0.00    +0.049 A 
ATOM      4  C   UNL     1       2.361  -4.614  -0.688  0.00  0.00    +0.147 A 
ATOM      5  N   UNL     1       3.416  -5.075  -1.412  0.00  0.00    -0.221 NA
ATOM      6  C   UNL     1       3.153  -4.956  -2.687  0.00  0.00    +0.160 A 
ATOM      7  N   UNL     1       1.909  -4.413  -2.826  0.00  0.00    -0.340 N 
ATOM      8  H   UNL     1       1.462  -4.209  -3.662  0.00  0.00    +0.167 HD
ATOM      9  C   UNL     1       2.339  -4.578   0.773  0.00  0.00    +0.264 C 
ATOM     10  O   UNL     1       3.333  -5.010   1.323  0.00  0.00    -0.268 OA
ATOM     11  N   UNL     1       1.393  -4.141   1.572  0.00  0.00    -0.309 N 
ATOM     12  C   UNL     1       0.079  -3.658   1.241  0.00  0.00    +0.113 C 
ATOM     13  H   UNL     1       1.611  -4.148   2.517  0.00  0.00    +0.149 HD
ENDROOT
BRANCH   6  14
ATOM     14  C   UNL     1       4.054  -5.344  -3.794  0.00  0.00    +0.131 A 
ATOM     15  C   UNL     1       5.341  -5.911  -3.659  0.00  0.00    +0.004 A 
ATOM     16  C   UNL     1       5.833  -6.119  -4.897  0.00  0.00    +0.040 A 
ATOM     17  N   UNL     1       4.904  -5.704  -5.791  0.00  0.00    -0.281 N 
ATOM     18  H   UNL     1       4.989  -5.736  -6.757  0.00  0.00    +0.189 HD
ATOM     19  N   UNL     1       3.796  -5.227  -5.080  0.00  0.00    -0.170 NA
ATOM     20  C   UNL     1       7.216  -6.728  -4.818  0.00  0.00    +0.055 C 
ATOM     21  C   UNL     1       7.684  -6.470  -3.369  0.00  0.00    +0.011 C 
ATOM     22  C   UNL     1       6.341  -6.358  -2.615  0.00  0.00    +0.039 C 
ENDBRANCH   6  14
BRANCH   1  28
ATOM     23  C   UNL     1      -1.200  -0.637   0.010  0.00  0.00    +0.124 A 
ATOM     24  C   UNL     1      -2.375   0.101   0.019  0.00  0.00    +0.046 A 
ATOM     25  C   UNL     1      -3.596  -0.545   0.027  0.00  0.00    +0.004 A 
ATOM     26  C   UNL     1      -3.648  -1.927   0.026  0.00  0.00    +0.001 A 
ATOM     27  C   UNL     1      -2.479  -2.665   0.017  0.00  0.00    +0.007 A 
ATOM     28  C   UNL     1      -1.255  -2.023   0.003  0.00  0.00    -0.001 A 
BRANCH  23  30
ATOM     29  C   UNL     1      -0.017   1.425   0.010  0.00  0.00    +0.277 C 
ATOM     30  O   UNL     1       0.002  -0.004   0.002  0.00  0.00    -0.495 OA
ENDBRANCH  23  30
ENDBRANCH   1  28
TORSDOF 3
