REMARK  Name = ZINC06822200
REMARK  16 active torsions:
REMARK  status: ('A' for Active; 'I' for Inactive)
REMARK    1  A    between atoms: C_1  and  C_2
REMARK    2  A    between atoms: C_2  and  C_3
REMARK    3  A    between atoms: C_6  and  N_9
REMARK    4  A    between atoms: N_9  and  C_10
REMARK    5  A    between atoms: C_10  and  C_12
REMARK    6  A    between atoms: C_10  and  C_21
REMARK    7  A    between atoms: C_15  and  O_18
REMARK    8  A    between atoms: O_18  and  C_19
REMARK    9  A    between atoms: C_19  and  C_20
REMARK   10  A    between atoms: N_23  and  C_24
REMARK   11  A    between atoms: C_24  and  C_25
REMARK   12  A    between atoms: C_24  and  C_26
REMARK   13  A    between atoms: C_24  and  C_27
REMARK   14  A    between atoms: C_28  and  C_30
REMARK   15  A    between atoms: C_31  and  N_38
REMARK   16  A    between atoms: C_32  and  C_35
REMARK                            x       y       z     vdW  Elec       q    Type
REMARK                         _______ _______ _______ _____ _____    ______ ____
ROOT
ATOM      1  N   UNL     1      -3.333   3.267   5.183  0.00  0.00    -0.251 N 
ATOM      2  C   UNL     1      -4.037   2.799   6.232  0.00  0.00    +0.262 C 
ATOM      3  O   UNL     1      -3.823   3.231   7.350  0.00  0.00    -0.269 OA
ENDROOT
BRANCH   1   7
ATOM      4  C   UNL     1      -4.070   1.796   1.357  0.00  0.00    -0.048 A 
ATOM      5  C   UNL     1      -4.888   2.776   1.888  0.00  0.00    +0.005 A 
ATOM      6  C   UNL     1      -4.650   3.262   3.159  0.00  0.00    +0.024 A 
ATOM      7  C   UNL     1      -3.580   2.773   3.898  0.00  0.00    +0.038 A 
ATOM      8  C   UNL     1      -2.758   1.792   3.359  0.00  0.00    +0.024 A 
ATOM      9  C   UNL     1      -3.005   1.307   2.090  0.00  0.00    +0.005 A 
BRANCH   4  11
ATOM     10  C   UNL     1      -5.280   0.061   0.061  0.00  0.00    +0.009 C 
ATOM     11  C   UNL     1      -4.337   1.263  -0.028  0.00  0.00    +0.032 C 
ENDBRANCH   4  11
ENDBRANCH   1   7
BRANCH   2  12
ATOM     12  C   UNL     1      -5.059   1.771   6.028  0.00  0.00    +0.116 A 
ATOM     13  C   UNL     1      -5.806   1.066   6.974  0.00  0.00    +0.076 A 
ATOM     14  C   UNL     1      -6.692   0.162   6.388  0.00  0.00    +0.155 A 
ATOM     15  N   UNL     1      -6.731   0.056   5.078  0.00  0.00    -0.203 NA
ATOM     16  S   UNL     1      -5.676   1.079   4.508  0.00  0.00    +0.019 S 
BRANCH  14  17
ATOM     17  C   UNL     1      -7.571  -0.671   7.229  0.00  0.00    +0.262 C 
ATOM     18  O   UNL     1      -7.530  -0.568   8.440  0.00  0.00    -0.269 OA
ATOM     19  N   UNL     1      -8.421  -1.546   6.655  0.00  0.00    -0.324 N 
ATOM     20  H   UNL     1      -8.454  -1.628   5.690  0.00  0.00    +0.145 HD
ATOM     21  H   UNL     1      -8.999  -2.094   7.209  0.00  0.00    +0.145 HD
ENDBRANCH  14  17
BRANCH  13  22
ATOM     22  N   UNL     1      -5.683   1.247   8.345  0.00  0.00    -0.355 N 
ATOM     23  H   UNL     1      -5.049   1.893   8.694  0.00  0.00    +0.142 HD
ATOM     24  H   UNL     1      -6.230   0.727   8.954  0.00  0.00    +0.142 HD
ENDBRANCH  13  22
ENDBRANCH   2  12
BRANCH   1  25
ATOM     25  C   UNL     1      -2.308   4.293   5.388  0.00  0.00    +0.197 C 
BRANCH  25  26
ATOM     26  C   UNL     1      -2.414   5.333   4.302  0.00  0.00    -0.018 A 
ATOM     27  C   UNL     1      -2.063   5.014   3.004  0.00  0.00    +0.009 A 
ATOM     28  C   UNL     1      -2.165   5.964   2.006  0.00  0.00    +0.046 A 
ATOM     29  C   UNL     1      -2.609   7.242   2.310  0.00  0.00    +0.121 A 
ATOM     30  C   UNL     1      -2.956   7.562   3.615  0.00  0.00    +0.046 A 
ATOM     31  C   UNL     1      -2.858   6.607   4.608  0.00  0.00    +0.009 A 
BRANCH  29  32
ATOM     32  O   UNL     1      -2.705   8.181   1.331  0.00  0.00    -0.492 OA
BRANCH  32  33
ATOM     33  C   UNL     1      -2.331   7.781   0.011  0.00  0.00    +0.225 C 
ATOM     34  C   UNL     1      -2.503   8.961  -0.947  0.00  0.00    +0.048 C 
ENDBRANCH  32  33
ENDBRANCH  29  32
ENDBRANCH  25  26
BRANCH  25  35
ATOM     35  C   UNL     1      -0.943   3.657   5.341  0.00  0.00    +0.239 C 
ATOM     36  O   UNL     1      -0.836   2.463   5.155  0.00  0.00    -0.273 OA
ATOM     37  N   UNL     1       0.160   4.414   5.506  0.00  0.00    -0.309 N 
ATOM     38  H   UNL     1       0.075   5.368   5.655  0.00  0.00    +0.149 HD
BRANCH  37  39
ATOM     39  C   UNL     1       1.487   3.795   5.460  0.00  0.00    +0.026 C 
ATOM     40  C   UNL     1       1.694   3.132   4.097  0.00  0.00    +0.031 C 
ATOM     41  C   UNL     1       2.558   4.867   5.674  0.00  0.00    +0.031 C 
ATOM     42  C   UNL     1       1.595   2.739   6.562  0.00  0.00    +0.031 C 
ENDBRANCH  37  39
ENDBRANCH  25  35
ENDBRANCH   1  25
TORSDOF 11
