REMARK  Name = ZINC40347330
REMARK  6 active torsions:
REMARK  status: ('A' for Active; 'I' for Inactive)
REMARK    1  A    between atoms: C_1  and  C_2
REMARK    2  A    between atoms: C_4  and  C_7
REMARK    3  A    between atoms: C_7  and  N_8
REMARK    4  A    between atoms: N_8  and  S_9
REMARK    5  A    between atoms: S_9  and  C_12
REMARK    6  A    between atoms: C_17  and  N_18
REMARK                            x       y       z     vdW  Elec       q    Type
REMARK                         _______ _______ _______ _____ _____    ______ ____
ROOT
ATOM      1  S   UNL     1       1.808  -5.118  -2.616  0.00  0.00    +0.061 S 
ATOM      2  O   UNL     1       3.209  -5.322  -2.740  0.00  0.00    -0.153 OA
ATOM      3  O   UNL     1       0.985  -5.956  -1.816  0.00  0.00    -0.153 OA
ENDROOT
BRANCH   1   4
ATOM      4  C   UNL     1       1.145  -5.170  -4.248  0.00  0.00    +0.127 A 
ATOM      5  C   UNL     1       0.053  -5.968  -4.525  0.00  0.00    +0.045 A 
ATOM      6  C   UNL     1      -0.468  -6.010  -5.806  0.00  0.00    +0.020 A 
ATOM      7  C   UNL     1       0.103  -5.252  -6.813  0.00  0.00    +0.017 A 
ATOM      8  C   UNL     1       1.195  -4.452  -6.542  0.00  0.00    +0.026 A 
ATOM      9  C   UNL     1       1.717  -4.404  -5.255  0.00  0.00    +0.051 A 
ATOM     10 BR   UNL     1      -1.963  -7.105  -6.181  0.00  0.00    -0.050 Br
BRANCH   9  11
ATOM     11  N   UNL     1       2.818  -3.591  -4.976  0.00  0.00    -0.356 N 
ATOM     12  H   UNL     1       3.128  -3.490  -4.063  0.00  0.00    +0.142 HD
ATOM     13  H   UNL     1       3.273  -3.126  -5.697  0.00  0.00    +0.142 HD
ENDBRANCH   9  11
ENDBRANCH   1   4
BRANCH   1  14
ATOM     14  N   UNL     1       1.602  -3.575  -2.053  0.00  0.00    -0.181 NA
ATOM     15  H   UNL     1       2.375  -3.022  -1.860  0.00  0.00    +0.149 HD
BRANCH  14  16
ATOM     16  C   UNL     1       0.252  -3.045  -1.845  0.00  0.00    +0.204 C 
BRANCH  16  20
ATOM     17  C   UNL     1       0.633   1.770  -0.517  0.00  0.00    +0.091 C 
ATOM     18  C   UNL     1       0.489   0.274  -0.406  0.00  0.00    +0.169 A 
ATOM     19  N   UNL     1       0.460  -0.583  -1.433  0.00  0.00    -0.195 NA
ATOM     20  C   UNL     1       0.325  -1.804  -0.994  0.00  0.00    +0.243 A 
ATOM     21  O   UNL     1       0.262  -1.764   0.343  0.00  0.00    -0.337 OA
ATOM     22  N   UNL     1       0.377  -0.396   0.705  0.00  0.00    -0.062 NA
ENDBRANCH  16  20
ENDBRANCH  14  16
ENDBRANCH   1  14
TORSDOF 5
