REMARK  Name = ZINC63387271
REMARK  4 active torsions:
REMARK  status: ('A' for Active; 'I' for Inactive)
REMARK    1  A    between atoms: C_4  and  C_7
REMARK    2  A    between atoms: C_7  and  C_8
REMARK    3  A    between atoms: C_7  and  N_14
REMARK    4  A    between atoms: C_22  and  N_30
REMARK                            x       y       z     vdW  Elec       q    Type
REMARK                         _______ _______ _______ _____ _____    ______ ____
ROOT
ATOM      1  N   UNL     1       4.021  -1.926  -0.750  0.00  0.00    -0.289 NA
ATOM      2  C   UNL     1       3.111  -3.029  -0.414  0.00  0.00    +0.104 C 
ATOM      3  C   UNL     1       3.341  -4.191  -1.385  0.00  0.00    +0.121 C 
ATOM      4  N   UNL     1       4.771  -4.537  -1.368  0.00  0.00    -0.315 N 
ATOM      5  C   UNL     1       5.750  -3.458  -1.562  0.00  0.00    +0.121 C 
ATOM      6  C   UNL     1       5.425  -2.324  -0.583  0.00  0.00    +0.104 C 
ATOM      7  C   UNL     1       5.173  -5.813  -1.180  0.00  0.00    +0.110 C 
ATOM      8  N   UNL     1       4.306  -6.766  -0.900  0.00  0.00    -0.316 N 
ATOM      9  C   UNL     1       4.637  -8.060  -0.823  0.00  0.00    +0.212 C 
ATOM     10  N   UNL     1       5.780  -8.530  -1.328  0.00  0.00    -0.197 NA
ATOM     11  C   UNL     1       6.676  -7.648  -1.727  0.00  0.00    +0.166 C 
ATOM     12  N   UNL     1       7.684  -7.681  -2.555  0.00  0.00    -0.218 NA
ATOM     13  C   UNL     1       8.013  -6.449  -2.964  0.00  0.00    +0.218 C 
ATOM     14  N   UNL     1       7.401  -5.506  -2.297  0.00  0.00    -0.254 NA
ATOM     15  C   UNL     1       6.615  -6.192  -1.288  0.00  0.00    +0.235 C 
ATOM     16  H   UNL     1       3.382  -6.516  -0.741  0.00  0.00    +0.170 HD
ENDROOT
BRANCH   9  17
ATOM     17  N   UNL     1       3.776  -8.930  -0.208  0.00  0.00    -0.234 NA
ATOM     18  H   UNL     1       4.002  -9.871  -0.144  0.00  0.00    +0.173 HD
ENDBRANCH   9  17
BRANCH   1  19
ATOM     19  C   UNL     1       3.715  -0.729   0.045  0.00  0.00    +0.117 C 
BRANCH  19  23
ATOM     20  C   UNL     1       6.261   2.477  -1.172  0.00  0.00    +0.000 A 
ATOM     21  C   UNL     1       6.073   2.216   0.173  0.00  0.00    +0.000 A 
ATOM     22  C   UNL     1       5.249   1.179   0.567  0.00  0.00    +0.005 A 
ATOM     23  C   UNL     1       4.613   0.402  -0.384  0.00  0.00    -0.026 A 
ATOM     24  C   UNL     1       4.800   0.664  -1.728  0.00  0.00    +0.005 A 
ATOM     25  C   UNL     1       5.625   1.701  -2.122  0.00  0.00    +0.000 A 
ENDBRANCH  19  23
BRANCH  19  26
ATOM     26  C   UNL     1       2.276  -0.338  -0.169  0.00  0.00    -0.026 A 
ATOM     27  C   UNL     1       1.720  -0.413  -1.432  0.00  0.00    +0.005 A 
ATOM     28  C   UNL     1       0.400  -0.054  -1.629  0.00  0.00    +0.000 A 
ATOM     29  C   UNL     1      -0.365   0.380  -0.562  0.00  0.00    +0.000 A 
ATOM     30  C   UNL     1       0.191   0.454   0.702  0.00  0.00    +0.000 A 
ATOM     31  C   UNL     1       1.510   0.091   0.899  0.00  0.00    +0.005 A 
ENDBRANCH  19  26
ENDBRANCH   1  19
TORSDOF 4
