REMARK  Name = ZINC60157633
REMARK  9 active torsions:
REMARK  status: ('A' for Active; 'I' for Inactive)
REMARK    1  A    between atoms: C_1  and  C_2
REMARK    2  A    between atoms: C_2  and  N_3
REMARK    3  A    between atoms: N_6  and  C_7
REMARK    4  A    between atoms: C_11  and  N_13
REMARK    5  A    between atoms: C_14  and  C_16
REMARK    6  A    between atoms: C_16  and  N_17
REMARK    7  A    between atoms: C_22  and  C_29
REMARK    8  A    between atoms: C_25  and  C_27
REMARK    9  A    between atoms: C_25  and  C_28
REMARK                            x       y       z     vdW  Elec       q    Type
REMARK                         _______ _______ _______ _____ _____    ______ ____
ROOT
ATOM      1  N   UNL     1      -5.967  -6.137   0.068  0.00  0.00    -0.284 N 
ATOM      2  C   UNL     1      -6.121  -7.465   0.237  0.00  0.00    +0.235 C 
ATOM      3  O   UNL     1      -5.147  -8.183   0.322  0.00  0.00    -0.274 OA
ATOM      4  H   UNL     1      -6.744  -5.571  -0.063  0.00  0.00    +0.155 HD
ENDROOT
BRANCH   1   9
ATOM      5  C   UNL     1      -3.216  -3.758   0.634  0.00  0.00    +0.037 A 
ATOM      6  C   UNL     1      -2.145  -4.467   0.102  0.00  0.00    +0.023 A 
ATOM      7  C   UNL     1      -2.346  -5.723  -0.436  0.00  0.00    +0.004 A 
ATOM      8  C   UNL     1      -3.612  -6.278  -0.449  0.00  0.00    +0.023 A 
ATOM      9  C   UNL     1      -4.686  -5.574   0.081  0.00  0.00    +0.035 A 
ATOM     10  C   UNL     1      -4.486  -4.315   0.629  0.00  0.00    +0.046 A 
BRANCH   5  14
ATOM     11  N   UNL     1      -3.464  -0.901   2.833  0.00  0.00    -0.299 N 
ATOM     12  C   UNL     1      -3.722  -2.091   2.254  0.00  0.00    +0.304 C 
ATOM     13  O   UNL     1      -4.597  -2.808   2.701  0.00  0.00    -0.253 OA
ATOM     14  N   UNL     1      -3.011  -2.486   1.179  0.00  0.00    -0.269 N 
ATOM     15  H   UNL     1      -2.767  -0.330   2.476  0.00  0.00    +0.150 HD
ATOM     16  H   UNL     1      -2.357  -1.888   0.784  0.00  0.00    +0.156 HD
BRANCH  11  18
ATOM     17  C   UNL     1      -3.748   0.903   4.459  0.00  0.00    +0.024 C 
ATOM     18  C   UNL     1      -4.237  -0.472   4.001  0.00  0.00    +0.102 C 
ENDBRANCH  11  18
ENDBRANCH   5  14
ENDBRANCH   1   9
BRANCH   2  19
ATOM     19  C   UNL     1      -7.504  -8.059   0.321  0.00  0.00    +0.214 C 
BRANCH  19  20
ATOM     20  N   UNL     1      -7.403  -9.509   0.504  0.00  0.00    -0.215 N 
ATOM     21  C   UNL     1      -7.353 -10.399  -0.508  0.00  0.00    +0.247 C 
ATOM     22  O   UNL     1      -7.382 -10.161  -1.696  0.00  0.00    -0.273 OA
ATOM     23  C   UNL     1      -7.253 -11.755   0.152  0.00  0.00    +0.113 C 
ATOM     24  C   UNL     1      -5.952 -12.445  -0.245  0.00  0.00    +0.038 C 
ATOM     25  C   UNL     1      -5.857 -13.802   0.457  0.00  0.00    -0.011 C 
ATOM     26  C   UNL     1      -7.054 -14.666   0.058  0.00  0.00    +0.009 C 
ATOM     27  C   UNL     1      -8.350 -13.973   0.484  0.00  0.00    -0.032 C 
ATOM     28  C   UNL     1      -8.455 -12.616  -0.218  0.00  0.00    +0.041 C 
ATOM     29  C   UNL     1      -8.343 -13.763   1.999  0.00  0.00    +0.011 C 
ATOM     30  C   UNL     1      -9.547 -14.843   0.094  0.00  0.00    +0.011 C 
ATOM     31  C   UNL     1      -4.561 -14.502   0.041  0.00  0.00    +0.007 C 
ATOM     32  N   UNL     1      -7.258 -11.454   1.589  0.00  0.00    -0.285 N 
ATOM     33  C   UNL     1      -7.343 -10.114   1.697  0.00  0.00    +0.310 C 
ATOM     34  O   UNL     1      -7.367  -9.522   2.758  0.00  0.00    -0.252 OA
ATOM     35  H   UNL     1      -7.207 -12.093   2.317  0.00  0.00    +0.151 HD
ENDBRANCH  19  20
ENDBRANCH   2  19
TORSDOF 5
