REMARK  Name = ZINC55104483
REMARK  14 active torsions:
REMARK  status: ('A' for Active; 'I' for Inactive)
REMARK    1  A    between atoms: C_1  and  C_2
REMARK    2  A    between atoms: C_2  and  O_32
REMARK    3  A    between atoms: C_6  and  O_10
REMARK    4  A    between atoms: C_11  and  C_22
REMARK    5  A    between atoms: C_13  and  C_15
REMARK    6  A    between atoms: C_15  and  O_17
REMARK    7  A    between atoms: O_17  and  C_18
REMARK    8  A    between atoms: C_18  and  C_19
REMARK    9  A    between atoms: C_18  and  C_20
REMARK   10  A    between atoms: C_18  and  C_21
REMARK   11  A    between atoms: C_25  and  O_30
REMARK   12  A    between atoms: C_26  and  O_28
REMARK   13  A    between atoms: O_28  and  C_29
REMARK   14  A    between atoms: O_30  and  C_31
REMARK                            x       y       z     vdW  Elec       q    Type
REMARK                         _______ _______ _______ _____ _____    ______ ____
ROOT
ATOM      1  C   UNL     1       0.810   1.980   0.148  0.00  0.00    +0.042 C 
ATOM      2  C   UNL     1       1.377   0.604  -0.205  0.00  0.00    +0.082 C 
ATOM      3  C   UNL     1       2.892   0.715  -0.418  0.00  0.00    +0.090 C 
ATOM      4  C   UNL     1       3.543   0.976   0.917  0.00  0.00    +0.046 A 
ATOM      5  C   UNL     1       2.934   0.772   2.113  0.00  0.00    +0.044 A 
ATOM      6  C   UNL     1       3.836   1.123   3.121  0.00  0.00    +0.235 A 
ATOM      7  N   UNL     1       4.948   1.522   2.548  0.00  0.00    -0.136 NA
ATOM      8  H   UNL     1       5.445   1.666   0.488  0.00  0.00    +0.189 HD
ATOM      9  N   UNL     1       4.782   1.435   1.157  0.00  0.00    -0.278 N 
ATOM     10  C   UNL     1       1.527   0.252   2.269  0.00  0.00    +0.073 C 
ATOM     11  C   UNL     1       1.092  -0.374   0.938  0.00  0.00    +0.141 C 
ENDROOT
BRANCH  10  12
ATOM     12  C   UNL     1       1.487  -0.788   3.358  0.00  0.00    -0.035 A 
ATOM     13  C   UNL     1       2.564  -1.635   3.542  0.00  0.00    +0.008 A 
ATOM     14  C   UNL     1       2.533  -2.592   4.539  0.00  0.00    +0.050 A 
ATOM     15  C   UNL     1       1.421  -2.703   5.358  0.00  0.00    +0.162 A 
ATOM     16  C   UNL     1       0.337  -1.850   5.174  0.00  0.00    +0.162 A 
ATOM     17  C   UNL     1       0.377  -0.890   4.175  0.00  0.00    +0.053 A 
BRANCH  16  18
ATOM     18  O   UNL     1      -0.757  -1.954   5.975  0.00  0.00    -0.491 OA
ATOM     19  C   UNL     1      -1.831  -1.046   5.728  0.00  0.00    +0.277 C 
ENDBRANCH  16  18
BRANCH  15  20
ATOM     20  O   UNL     1       1.389  -3.643   6.340  0.00  0.00    -0.491 OA
ATOM     21  C   UNL     1       2.537  -4.484   6.471  0.00  0.00    +0.277 C 
ENDBRANCH  15  20
ENDBRANCH  10  12
BRANCH   6  22
ATOM     22  O   UNL     1       3.603   1.063   4.459  0.00  0.00    -0.491 OA
ATOM     23  H   UNL     1       3.840   0.216   4.862  0.00  0.00    +0.294 HD
ENDBRANCH   6  22
BRANCH  11  24
ATOM     24  C   UNL     1       1.860  -1.651   0.710  0.00  0.00    +0.314 C 
ATOM     25  O   UNL     1       3.066  -1.654   0.795  0.00  0.00    -0.250 OA
BRANCH  24  26
ATOM     26  O   UNL     1       1.205  -2.784   0.413  0.00  0.00    -0.459 OA
BRANCH  26  27
ATOM     27  C   UNL     1       1.997  -3.957   0.210  0.00  0.00    +0.105 C 
ATOM     28  C   UNL     1       2.791  -4.262   1.481  0.00  0.00    +0.055 C 
ATOM     29  C   UNL     1       1.082  -5.139  -0.116  0.00  0.00    +0.055 C 
ATOM     30  C   UNL     1       2.964  -3.724  -0.953  0.00  0.00    +0.055 C 
ENDBRANCH  26  27
ENDBRANCH  24  26
ENDBRANCH  11  24
BRANCH   2  31
ATOM     31  O   UNL     1       0.761   0.128  -1.403  0.00  0.00    -0.388 OA
ATOM     32  H   UNL     1       0.900   0.699  -2.171  0.00  0.00    +0.210 HD
ENDBRANCH   2  31
TORSDOF 8
