REMARK  Name = ZINC49987581
REMARK  8 active torsions:
REMARK  status: ('A' for Active; 'I' for Inactive)
REMARK    1  A    between atoms: C_1  and  C_2
REMARK    2  A    between atoms: C_5  and  N_9
REMARK    3  A    between atoms: C_6  and  C_8
REMARK    4  A    between atoms: N_9  and  C_10
REMARK    5  A    between atoms: N_9  and  C_11
REMARK    6  A    between atoms: C_14  and  C_20
REMARK    7  A    between atoms: C_16  and  N_17
REMARK    8  A    between atoms: C_20  and  O_21
REMARK                            x       y       z     vdW  Elec       q    Type
REMARK                         _______ _______ _______ _____ _____    ______ ____
ROOT
ATOM      1  C   UNL     1      -1.310  -4.697   0.157  0.00  0.00    +0.064 A 
ATOM      2  C   UNL     1      -1.827  -4.958   1.420  0.00  0.00    +0.026 A 
ATOM      3  C   UNL     1      -2.877  -5.842   1.565  0.00  0.00    +0.008 A 
ATOM      4  C   UNL     1      -3.415  -6.468   0.456  0.00  0.00    -0.020 A 
ATOM      5  C   UNL     1      -2.903  -6.212  -0.803  0.00  0.00    +0.040 A 
ATOM      6  C   UNL     1      -1.856  -5.324  -0.957  0.00  0.00    +0.148 A 
ENDROOT
BRANCH   6   7
ATOM      7  N   UNL     1      -1.312  -5.045  -2.305  0.00  0.00    +0.058 N 
ATOM      8  O   UNL     1      -1.855  -5.505  -3.282  0.00  0.00    -0.126 OA
ATOM      9  O   UNL     1      -0.326  -4.357  -2.429  0.00  0.00    -0.126 OA
ENDBRANCH   6   7
BRANCH   1  10
ATOM     10  N   UNL     1      -0.247  -3.803   0.005  0.00  0.00    -0.301 N 
ATOM     11  C   UNL     1       1.105  -4.308  -0.245  0.00  0.00    +0.135 C 
BRANCH  10  16
ATOM     12  C   UNL     1      -1.171   1.781   0.362  0.00  0.00    +0.044 C 
ATOM     13  C   UNL     1      -0.925   0.297   0.267  0.00  0.00    -0.050 A 
ATOM     14  C   UNL     1      -1.217  -0.377  -0.905  0.00  0.00    +0.005 A 
ATOM     15  C   UNL     1      -0.994  -1.736  -0.995  0.00  0.00    +0.024 A 
ATOM     16  C   UNL     1      -0.474  -2.427   0.093  0.00  0.00    +0.037 A 
ATOM     17  C   UNL     1      -0.182  -1.747   1.269  0.00  0.00    -0.029 A 
ATOM     18  C   UNL     1      -0.403  -0.386   1.350  0.00  0.00    +0.008 A 
ATOM     19  C   UNL     1       0.381  -2.492   2.451  0.00  0.00    +0.045 C 
ENDBRANCH  10  16
ENDBRANCH   1  10
BRANCH   4  20
ATOM     20  C   UNL     1      -4.561  -7.434   0.618  0.00  0.00    +0.191 C 
BRANCH  20  21
ATOM     21  O   UNL     1      -5.798  -6.725   0.521  0.00  0.00    -0.390 OA
ATOM     22  H   UNL     1      -6.581  -7.285   0.617  0.00  0.00    +0.210 HD
ENDBRANCH  20  21
ENDBRANCH   4  20
TORSDOF 5
