REMARK  Name = ZINC23674703
REMARK  11 active torsions:
REMARK  status: ('A' for Active; 'I' for Inactive)
REMARK    1  A    between atoms: C_1  and  C_2
REMARK    2  A    between atoms: C_2  and  C_3
REMARK    3  A    between atoms: C_2  and  C_4
REMARK    4  A    between atoms: C_4  and  C_6
REMARK    5  A    between atoms: C_4  and  N_16
REMARK    6  A    between atoms: N_16  and  C_17
REMARK    7  A    between atoms: C_17  and  C_18
REMARK    8  A    between atoms: C_18  and  C_20
REMARK    9  A    between atoms: C_18  and  O_29
REMARK   10  A    between atoms: C_20  and  O_21
REMARK   11  A    between atoms: O_21  and  C_22
REMARK                            x       y       z     vdW  Elec       q    Type
REMARK                         _______ _______ _______ _____ _____    ______ ____
ROOT
ATOM      1  N   UNL     1      -4.718   0.074  -0.724  0.00  0.00    +0.385 N 
ATOM      2  H   UNL     1      -5.080   0.924  -0.128  0.00  0.00    -0.085 HD
ATOM      3  H   UNL     1      -4.196   0.448  -1.617  0.00  0.00    -0.085 HD
ENDROOT
BRANCH   1   4
ATOM      4  C   UNL     1      -3.793  -0.733   0.083  0.00  0.00    -0.038 C 
BRANCH   4   5
ATOM      5  C   UNL     1      -2.425  -0.102   0.060  0.00  0.00    -0.057 A 
ATOM      6  C   UNL     1      -2.298   1.273   0.132  0.00  0.00    +0.006 A 
ATOM      7  C   UNL     1      -1.045   1.856   0.105  0.00  0.00    +0.049 A 
ATOM      8  C   UNL     1       0.089   1.062   0.014  0.00  0.00    +0.162 A 
ATOM      9  C   UNL     1      -0.039  -0.320  -0.056  0.00  0.00    +0.162 A 
ATOM     10  C   UNL     1      -1.300  -0.898  -0.033  0.00  0.00    +0.051 A 
ATOM     11  O   UNL     1       1.060  -1.118  -0.145  0.00  0.00    -0.485 OA
ATOM     12  C   UNL     1       2.282  -0.486  -0.542  0.00  0.00    +0.270 C 
ATOM     13  C   UNL     1       2.439   0.808   0.267  0.00  0.00    +0.270 C 
ATOM     14  O   UNL     1       1.316   1.650  -0.012  0.00  0.00    -0.485 OA
ENDBRANCH   4   5
BRANCH   4  16
ATOM     15  C   UNL     1      -3.418  -1.753   2.333  0.00  0.00    +0.006 C 
ATOM     16  C   UNL     1      -4.300  -0.798   1.526  0.00  0.00    -0.027 C 
ATOM     17  C   UNL     1      -4.244   0.598   2.150  0.00  0.00    +0.006 C 
ENDBRANCH   4  16
ENDBRANCH   1   4
BRANCH   1  18
ATOM     18  C   UNL     1      -5.874  -0.725  -1.155  0.00  0.00    -0.047 C 
BRANCH  18  19
ATOM     19  C   UNL     1      -6.745   0.107  -2.099  0.00  0.00    +0.135 C 
BRANCH  19  20
ATOM     20  O   UNL     1      -7.202   1.278  -1.419  0.00  0.00    -0.390 OA
ATOM     21  H   UNL     1      -7.845   2.001  -1.941  0.00  0.00    +0.210 HD
ENDBRANCH  19  20
BRANCH  19  22
ATOM     22  C   UNL     1      -7.948  -0.725  -2.549  0.00  0.00    +0.258 C 
BRANCH  22  23
ATOM     23  O   UNL     1      -8.698   0.009  -3.519  0.00  0.00    -0.487 OA
BRANCH  23  24
ATOM     24  C   UNL     1      -9.807  -0.593  -4.025  0.00  0.00    +0.156 A 
ATOM     25  C   UNL     1     -10.164  -1.864  -3.599  0.00  0.00    +0.048 A 
ATOM     26  C   UNL     1     -11.294  -2.471  -4.111  0.00  0.00    +0.004 A 
ATOM     27  C   UNL     1     -12.066  -1.818  -5.054  0.00  0.00    +0.003 A 
ATOM     28  C   UNL     1     -11.712  -0.552  -5.485  0.00  0.00    +0.042 A 
ATOM     29  C   UNL     1     -10.584   0.062  -4.972  0.00  0.00    +0.165 A 
ATOM     30  F   UNL     1     -10.237   1.298  -5.393  0.00  0.00    -0.202 F 
ENDBRANCH  23  24
ENDBRANCH  22  23
ENDBRANCH  19  22
ENDBRANCH  18  19
ENDBRANCH   1  18
TORSDOF 9
