REMARK  Name = ZINC39467348
REMARK  3 active torsions:
REMARK  status: ('A' for Active; 'I' for Inactive)
REMARK    1  A    between atoms: C_4  and  P_8
REMARK    2  A    between atoms: C_5  and  O_7
REMARK    3  A    between atoms: C_16  and  O_27
REMARK                            x       y       z     vdW  Elec       q    Type
REMARK                         _______ _______ _______ _____ _____    ______ ____
ROOT
ATOM      1  P   UNL     1       3.989  -0.847  -0.042  0.00  0.00    +0.291 P 
ATOM      2  O   UNL     1       3.859  -2.120  -0.785  0.00  0.00    -0.269 OA
ATOM      3  N   UNL     1       5.160   0.098  -0.721  0.00  0.00    -0.288 NA
ATOM      4  N   UNL     1       6.475  -0.209  -0.445  0.00  0.00    +0.398 N 
ATOM      5  C   UNL     1       7.281   0.849  -1.075  0.00  0.00    -0.046 C 
ATOM      6  C   UNL     1       8.768   0.607  -0.853  0.00  0.00    +0.008 C 
ATOM      7  C   UNL     1       9.184  -0.710  -1.454  0.00  0.00    +0.023 C 
ATOM      8  C   UNL     1      10.286  -1.317  -1.006  0.00  0.00    +0.148 C 
ATOM      9  C   UNL     1      11.081  -0.678   0.062  0.00  0.00    +0.161 C 
ATOM     10  C   UNL     1      10.514   0.226   0.857  0.00  0.00    +0.019 C 
ATOM     11  C   UNL     1       9.061   0.581   0.651  0.00  0.00    +0.019 C 
ATOM     12  C   UNL     1       8.186  -0.492   1.299  0.00  0.00    -0.002 C 
ATOM     13  C   UNL     1       6.705  -0.232   1.002  0.00  0.00    -0.020 C 
ATOM     14  C   UNL     1       5.905  -1.352   1.680  0.00  0.00    +0.157 C 
ATOM     15  O   UNL     1       4.498  -1.129   1.478  0.00  0.00    -0.316 OA
ATOM     16  F   UNL     1      12.380  -1.011   0.232  0.00  0.00    -0.202 F 
ATOM     17  H   UNL     1       4.930   0.845  -1.295  0.00  0.00    +0.111 HD
ATOM     18  H   UNL     1       6.704  -1.109  -0.839  0.00  0.00    -0.055 HD
ENDROOT
BRANCH   1  22
ATOM     19  C   UNL     1      -0.017   1.377   0.010  0.00  0.00    +0.004 A 
ATOM     20  C   UNL     1       1.171   2.086   0.002  0.00  0.00    +0.001 A 
ATOM     21  C   UNL     1       2.379   1.415  -0.013  0.00  0.00    +0.018 A 
ATOM     22  C   UNL     1       2.403   0.033  -0.021  0.00  0.00    +0.091 A 
ATOM     23  C   UNL     1       1.214  -0.680  -0.013  0.00  0.00    +0.131 A 
ATOM     24  C   UNL     1       0.002  -0.004   0.002  0.00  0.00    +0.046 A 
BRANCH  23  25
ATOM     25  O   UNL     1       1.235  -2.039  -0.021  0.00  0.00    -0.506 OA
ATOM     26  H   UNL     1       1.249  -2.437   0.860  0.00  0.00    +0.292 HD
ENDBRANCH  23  25
ENDBRANCH   1  22
BRANCH   8  27
ATOM     27  O   UNL     1      10.671  -2.511  -1.527  0.00  0.00    -0.504 OA
ATOM     28  H   UNL     1      11.480  -2.869  -1.136  0.00  0.00    +0.292 HD
ENDBRANCH   8  27
TORSDOF 3
