REMARK  Name = ZINC46438570
REMARK  6 active torsions:
REMARK  status: ('A' for Active; 'I' for Inactive)
REMARK    1  A    between atoms: C_1  and  C_2
REMARK    2  A    between atoms: C_7  and  C_8
REMARK    3  A    between atoms: C_14  and  C_23
REMARK    4  A    between atoms: C_15  and  C_19
REMARK    5  A    between atoms: C_19  and  O_21
REMARK    6  A    between atoms: O_21  and  C_22
REMARK                            x       y       z     vdW  Elec       q    Type
REMARK                         _______ _______ _______ _____ _____    ______ ____
ROOT
ATOM      1  C   UNL     1       0.243   0.020   2.480  0.00  0.00    +0.142 A 
ATOM      2  N   UNL     1       0.474  -0.682   3.628  0.00  0.00    -0.306 N 
ATOM      3  H   UNL     1       0.559  -1.648   3.586  0.00  0.00    +0.170 HD
ATOM      4  C   UNL     1       0.587  -0.060   4.817  0.00  0.00    +0.260 A 
ATOM      5  O   UNL     1       0.794  -0.695   5.836  0.00  0.00    -0.267 OA
ATOM      6  C   UNL     1       0.453   1.414   4.857  0.00  0.00    +0.076 A 
ATOM      7  C   UNL     1       0.530   2.276   5.952  0.00  0.00    -0.015 A 
ATOM      8  C   UNL     1       0.377   3.620   5.772  0.00  0.00    +0.102 A 
ATOM      9  S   UNL     1       0.110   3.755   4.012  0.00  0.00    -0.062 S 
ATOM     10  C   UNL     1       0.214   2.030   3.605  0.00  0.00    +0.117 A 
ATOM     11  N   UNL     1       0.125   1.331   2.485  0.00  0.00    -0.222 NA
ATOM     12  C   UNL     1       0.780   1.722   7.331  0.00  0.00    +0.046 C 
ENDROOT
BRANCH   1  19
ATOM     13  C   UNL     1      -0.509   1.453   0.082  0.00  0.00    +0.044 C 
ATOM     14  C   UNL     1      -0.234  -0.028   0.036  0.00  0.00    -0.040 A 
ATOM     15  C   UNL     1      -0.333  -0.714  -1.157  0.00  0.00    +0.004 A 
ATOM     16  C   UNL     1      -0.080  -2.073  -1.200  0.00  0.00    +0.000 A 
ATOM     17  C   UNL     1       0.273  -2.755  -0.049  0.00  0.00    +0.001 A 
ATOM     18  C   UNL     1       0.376  -2.082   1.151  0.00  0.00    +0.012 A 
ATOM     19  C   UNL     1       0.128  -0.708   1.200  0.00  0.00    +0.020 A 
ENDBRANCH   1  19
BRANCH   8  20
ATOM     20  C   UNL     1       0.421   4.687   6.774  0.00  0.00    +0.346 C 
ATOM     21  O   UNL     1       0.615   4.416   7.943  0.00  0.00    -0.244 OA
BRANCH  20  22
ATOM     22  O   UNL     1       0.246   5.971   6.399  0.00  0.00    -0.464 OA
ATOM     23  C   UNL     1       0.301   6.961   7.429  0.00  0.00    +0.280 C 
ENDBRANCH  20  22
ENDBRANCH   8  20
TORSDOF 3
