REMARK  Name = ZINC54286471
REMARK  7 active torsions:
REMARK  status: ('A' for Active; 'I' for Inactive)
REMARK    1  A    between atoms: C_1  and  C_2
REMARK    2  A    between atoms: N_7  and  C_9
REMARK    3  A    between atoms: C_9  and  C_10
REMARK    4  A    between atoms: C_9  and  C_11
REMARK    5  A    between atoms: C_9  and  C_12
REMARK    6  A    between atoms: C_12  and  N_13
REMARK    7  A    between atoms: C_14  and  C_16
REMARK                            x       y       z     vdW  Elec       q    Type
REMARK                         _______ _______ _______ _____ _____    ______ ____
ROOT
ATOM      1  N   UNL     1       2.186  -4.461   1.142  0.00  0.00    -0.313 N 
ATOM      2  C   UNL     1       2.321  -5.782   0.914  0.00  0.00    +0.244 C 
ATOM      3  O   UNL     1       1.925  -6.584   1.737  0.00  0.00    -0.270 OA
ATOM      4  H   UNL     1       2.502  -3.821   0.485  0.00  0.00    +0.149 HD
ENDROOT
BRANCH   2   5
ATOM      5  C   UNL     1       2.951  -6.257  -0.339  0.00  0.00    +0.039 A 
ATOM      6  C   UNL     1       3.412  -5.326  -1.282  0.00  0.00    +0.014 A 
ATOM      7  C   UNL     1       3.995  -5.737  -2.442  0.00  0.00    +0.016 A 
ATOM      8  C   UNL     1       4.140  -7.107  -2.703  0.00  0.00    +0.065 A 
ATOM      9  C   UNL     1       3.679  -8.061  -1.757  0.00  0.00    +0.080 A 
ATOM     10  C   UNL     1       3.086  -7.617  -0.566  0.00  0.00    +0.041 A 
ATOM     11  N   UNL     1       3.826  -9.367  -2.022  0.00  0.00    -0.223 NA
ATOM     12  C   UNL     1       4.393  -9.770  -3.148  0.00  0.00    +0.180 A 
ATOM     13  N   UNL     1       4.846  -8.908  -4.074  0.00  0.00    -0.301 N 
ATOM     14  H   UNL     1       5.255  -9.249  -4.885  0.00  0.00    +0.171 HD
ATOM     15  C   UNL     1       4.739  -7.574  -3.892  0.00  0.00    +0.260 A 
ATOM     16  O   UNL     1       5.193  -6.713  -4.819  0.00  0.00    -0.267 OA
ATOM     17  S   UNL     1       4.556 -11.450  -3.436  0.00  0.00    -0.011 S 
ENDBRANCH   2   5
BRANCH   1  18
ATOM     18  C   UNL     1       1.562  -3.991   2.382  0.00  0.00    +0.092 C 
BRANCH  18  19
ATOM     19  C   UNL     1       1.534  -2.461   2.390  0.00  0.00    -0.055 C 
ATOM     20  C   UNL     1       2.963  -1.924   2.303  0.00  0.00    -0.008 C 
ATOM     21  C   UNL     1       0.882  -1.970   3.685  0.00  0.00    -0.008 C 
BRANCH  19  27
ATOM     22  C   UNL     1      -0.019   1.526   0.010  0.00  0.00    +0.005 C 
ATOM     23  C   UNL     1       0.002  -0.004   0.002  0.00  0.00    -0.031 C 
ATOM     24  C   UNL     1      -1.434  -0.535   0.015  0.00  0.00    -0.001 C 
ATOM     25  C   UNL     1      -1.402  -2.064   0.086  0.00  0.00    -0.018 C 
ATOM     26  C   UNL     1      -0.613  -2.496   1.324  0.00  0.00    -0.078 C 
ATOM     27  N   UNL     1       0.758  -1.980   1.239  0.00  0.00    +0.384 N 
ATOM     28  C   UNL     1       0.740  -0.512   1.242  0.00  0.00    -0.075 C 
ATOM     29  H   UNL     1       1.188  -2.307   0.386  0.00  0.00    -0.081 HD
ENDBRANCH  19  27
ENDBRANCH  18  19
ENDBRANCH   1  18
TORSDOF 4
