REMARK  Name = ZINC39361809
REMARK  11 active torsions:
REMARK  status: ('A' for Active; 'I' for Inactive)
REMARK    1  A    between atoms: C_1  and  C_2
REMARK    2  A    between atoms: C_2  and  O_3
REMARK    3  A    between atoms: O_3  and  C_4
REMARK    4  A    between atoms: C_4  and  C_6
REMARK    5  A    between atoms: C_6  and  C_8
REMARK    6  A    between atoms: C_6  and  S_9
REMARK    7  A    between atoms: S_9  and  C_10
REMARK    8  A    between atoms: C_14  and  C_24
REMARK    9  A    between atoms: N_16  and  C_17
REMARK   10  A    between atoms: C_21  and  C_23
REMARK   11  A    between atoms: C_24  and  C_25
REMARK                            x       y       z     vdW  Elec       q    Type
REMARK                         _______ _______ _______ _____ _____    ______ ____
ROOT
ATOM      1  C   UNL     1       1.461  -4.506  -4.102  0.00  0.00    +0.218 C 
ATOM      2  N   UNL     1       1.366  -3.604  -5.272  0.00  0.00    -0.226 NA
ATOM      3  N   UNL     1       2.706  -3.646  -5.877  0.00  0.00    -0.234 NA
ATOM      4  C   UNL     1       3.605  -3.705  -4.695  0.00  0.00    +0.163 C 
ATOM      5  N   UNL     1       2.887  -4.571  -3.735  0.00  0.00    -0.287 N 
ATOM      6  H   UNL     1       1.127  -2.666  -4.987  0.00  0.00    +0.143 HD
ATOM      7  H   UNL     1       2.883  -2.817  -6.425  0.00  0.00    +0.143 HD
ENDROOT
BRANCH   5   8
ATOM      8  C   UNL     1       3.448  -5.304  -2.687  0.00  0.00    +0.033 A 
ATOM      9  C   UNL     1       4.040  -4.647  -1.616  0.00  0.00    +0.023 A 
ATOM     10  C   UNL     1       4.593  -5.375  -0.582  0.00  0.00    +0.002 A 
ATOM     11  C   UNL     1       4.558  -6.757  -0.611  0.00  0.00    +0.003 A 
ATOM     12  C   UNL     1       3.970  -7.415  -1.675  0.00  0.00    -0.049 A 
ATOM     13  C   UNL     1       3.409  -6.692  -2.711  0.00  0.00    +0.026 A 
ATOM     14  C   UNL     1       3.935  -8.921  -1.704  0.00  0.00    +0.044 C 
ENDBRANCH   5   8
BRANCH   1  15
ATOM     15  S   UNL     1       0.493  -3.837  -2.721  0.00  0.00    -0.107 S 
BRANCH  15  16
ATOM     16  C   UNL     1      -1.217  -4.288  -3.125  0.00  0.00    +0.155 C 
ATOM     17  C   UNL     1      -1.673  -3.506  -4.358  0.00  0.00    +0.031 C 
BRANCH  16  18
ATOM     18  C   UNL     1      -2.112  -3.955  -1.959  0.00  0.00    +0.320 C 
ATOM     19  O   UNL     1      -1.790  -3.093  -1.176  0.00  0.00    -0.250 OA
BRANCH  18  20
ATOM     20  O   UNL     1      -3.269  -4.616  -1.791  0.00  0.00    -0.464 OA
BRANCH  20  22
ATOM     21  C   UNL     1      -5.337  -5.103  -0.640  0.00  0.00    +0.048 C 
ATOM     22  C   UNL     1      -4.068  -4.248  -0.665  0.00  0.00    +0.229 C 
ENDBRANCH  20  22
ENDBRANCH  18  20
ENDBRANCH  16  18
ENDBRANCH  15  16
ENDBRANCH   1  15
BRANCH   4  23
ATOM     23  C   UNL     1       4.950  -4.326  -5.075  0.00  0.00    +0.093 C 
BRANCH  23  24
ATOM     24  C   UNL     1       5.636  -3.454  -6.095  0.00  0.00    +0.029 A 
ATOM     25  N   UNL     1       5.341  -3.589  -7.424  0.00  0.00    -0.311 N 
ATOM     26  C   UNL     1       5.947  -2.815  -8.343  0.00  0.00    +0.327 A 
ATOM     27  O   UNL     1       5.671  -2.952  -9.519  0.00  0.00    -0.247 OA
ATOM     28  N   UNL     1       6.855  -1.890  -7.978  0.00  0.00    -0.275 N 
ATOM     29  C   UNL     1       7.172  -1.726  -6.678  0.00  0.00    +0.254 A 
ATOM     30  O   UNL     1       7.994  -0.889  -6.347  0.00  0.00    -0.268 OA
ATOM     31  C   UNL     1       6.539  -2.531  -5.701  0.00  0.00    +0.091 A 
ATOM     32  H   UNL     1       7.282  -1.340  -8.653  0.00  0.00    +0.173 HD
ATOM     33  H   UNL     1       4.690  -4.250  -7.707  0.00  0.00    +0.170 HD
ENDBRANCH  23  24
ENDBRANCH   4  23
TORSDOF 8
