REMARK  Name = ZINC39527190
REMARK  7 active torsions:
REMARK  status: ('A' for Active; 'I' for Inactive)
REMARK    1  A    between atoms: C_4  and  O_7
REMARK    2  A    between atoms: O_7  and  S_8
REMARK    3  A    between atoms: S_8  and  C_11
REMARK    4  A    between atoms: C_21  and  O_34
REMARK    5  A    between atoms: N_23  and  S_24
REMARK    6  A    between atoms: S_24  and  O_27
REMARK    7  A    between atoms: O_27  and  C_28
REMARK                            x       y       z     vdW  Elec       q    Type
REMARK                         _______ _______ _______ _____ _____    ______ ____
ROOT
ATOM      1  C   UNL     1       2.626  -4.044   0.105  0.00  0.00    +0.173 C 
ATOM      2  C   UNL     1       1.586  -3.442  -0.843  0.00  0.00    +0.030 C 
ATOM      3  C   UNL     1       0.181  -3.777  -0.337  0.00  0.00    +0.004 C 
ATOM      4  C   UNL     1       0.005  -5.296  -0.286  0.00  0.00    +0.024 C 
ATOM      5  C   UNL     1       1.047  -5.898   0.658  0.00  0.00    +0.050 C 
ATOM      6  C   UNL     1       2.451  -5.563   0.155  0.00  0.00    +0.054 C 
ATOM      7  C   UNL     1       0.871  -7.418   0.716  0.00  0.00    +0.024 C 
ATOM      8  C   UNL     1       1.820  -7.997   1.768  0.00  0.00    +0.006 C 
ATOM      9  C   UNL     1       1.480  -7.415   3.141  0.00  0.00    +0.049 C 
ATOM     10  C   UNL     1       1.665  -5.895   3.109  0.00  0.00    +0.209 C 
ATOM     11  N   UNL     1       0.865  -5.345   2.006  0.00  0.00    -0.114 NA
ENDROOT
BRANCH   1  12
ATOM     12  S   UNL     1       4.291  -3.646  -0.495  0.00  0.00    +0.124 S 
ATOM     13  O   UNL     1       4.423  -4.022  -1.859  0.00  0.00    -0.136 OA
ATOM     14  O   UNL     1       5.264  -4.042   0.463  0.00  0.00    -0.136 OA
BRANCH  12  15
ATOM     15  O   UNL     1       4.351  -2.125  -0.503  0.00  0.00    -0.346 OA
BRANCH  15  19
ATOM     16  C   UNL     1       4.739  -0.438   3.241  0.00  0.00    +0.000 A 
ATOM     17  C   UNL     1       5.867  -0.768   2.513  0.00  0.00    +0.004 A 
ATOM     18  C   UNL     1       5.739  -1.333   1.258  0.00  0.00    +0.048 A 
ATOM     19  C   UNL     1       4.479  -1.570   0.730  0.00  0.00    +0.156 A 
ATOM     20  C   UNL     1       3.349  -1.238   1.463  0.00  0.00    +0.048 A 
ATOM     21  C   UNL     1       3.481  -0.673   2.717  0.00  0.00    +0.004 A 
ENDBRANCH  15  19
ENDBRANCH  12  15
ENDBRANCH   1  12
BRANCH  11  22
ATOM     22  S   UNL     1      -0.222  -4.125   2.277  0.00  0.00    +0.197 S 
ATOM     23  O   UNL     1       0.519  -2.913   2.275  0.00  0.00    -0.119 OA
ATOM     24  O   UNL     1      -1.315  -4.351   1.398  0.00  0.00    -0.119 OA
BRANCH  22  25
ATOM     25  O   UNL     1      -0.756  -4.305   3.691  0.00  0.00    -0.333 OA
BRANCH  25  26
ATOM     26  C   UNL     1      -1.514  -3.266   4.132  0.00  0.00    +0.158 A 
ATOM     27  C   UNL     1      -1.338  -2.776   5.418  0.00  0.00    +0.048 A 
ATOM     28  C   UNL     1      -2.109  -1.720   5.864  0.00  0.00    +0.004 A 
ATOM     29  C   UNL     1      -3.055  -1.152   5.030  0.00  0.00    +0.000 A 
ATOM     30  C   UNL     1      -3.232  -1.639   3.748  0.00  0.00    +0.004 A 
ATOM     31  C   UNL     1      -2.459  -2.691   3.296  0.00  0.00    +0.048 A 
ENDBRANCH  25  26
ENDBRANCH  22  25
ENDBRANCH  11  22
BRANCH  10  32
ATOM     32  O   UNL     1       1.229  -5.332   4.348  0.00  0.00    -0.376 OA
ATOM     33  H   UNL     1       1.770  -5.587   5.107  0.00  0.00    +0.212 HD
ENDBRANCH  10  32
TORSDOF 7
