REMARK  Name = ZINC66254077
REMARK  9 active torsions:
REMARK  status: ('A' for Active; 'I' for Inactive)
REMARK    1  A    between atoms: C_1  and  C_2
REMARK    2  A    between atoms: C_2  and  C_3
REMARK    3  A    between atoms: C_4  and  C_23
REMARK    4  A    between atoms: N_8  and  S_9
REMARK    5  A    between atoms: S_9  and  C_12
REMARK    6  A    between atoms: C_16  and  C_22
REMARK    7  A    between atoms: C_17  and  C_18
REMARK    8  A    between atoms: C_18  and  O_20
REMARK    9  A    between atoms: O_20  and  C_21
REMARK                            x       y       z     vdW  Elec       q    Type
REMARK                         _______ _______ _______ _____ _____    ______ ____
ROOT
ATOM      1  S   UNL     1       1.268  -1.814  -5.918  0.00  0.00    +0.102 S 
ATOM      2  O   UNL     1       2.220  -0.783  -6.141  0.00  0.00    -0.146 OA
ATOM      3  O   UNL     1       1.646  -3.132  -5.545  0.00  0.00    -0.146 OA
ENDROOT
BRANCH   1   9
ATOM      4  C   UNL     1       0.707  -0.490  -1.238  0.00  0.00    +0.027 A 
ATOM      5  C   UNL     1       2.004  -0.794  -1.188  0.00  0.00    +0.009 A 
ATOM      6  S   UNL     1       2.336  -1.301  -2.868  0.00  0.00    -0.053 S 
ATOM      7  C   UNL     1       0.690  -1.065  -3.523  0.00  0.00    +0.192 A 
ATOM      8  N   UNL     1       0.015  -0.623  -2.406  0.00  0.00    -0.336 N 
ATOM      9  N   UNL     1       0.244  -1.265  -4.739  0.00  0.00    -0.103 NA
ATOM     10  C   UNL     1       2.949  -0.726  -0.016  0.00  0.00    +0.053 C 
ATOM     11  H   UNL     1      -0.929  -0.408  -2.450  0.00  0.00    +0.168 HD
BRANCH   4  13
ATOM     12  C   UNL     1      -0.019   1.526   0.010  0.00  0.00    +0.010 C 
ATOM     13  C   UNL     1       0.002  -0.004   0.002  0.00  0.00    +0.050 C 
ENDBRANCH   4  13
ENDBRANCH   1   9
BRANCH   1  14
ATOM     14  C   UNL     1       0.327  -1.960  -7.400  0.00  0.00    +0.127 A 
ATOM     15  C   UNL     1       0.621  -1.163  -8.487  0.00  0.00    +0.030 A 
ATOM     16  C   UNL     1      -0.117  -1.277  -9.652  0.00  0.00    +0.002 A 
ATOM     17  C   UNL     1      -1.154  -2.189  -9.735  0.00  0.00    +0.004 A 
ATOM     18  C   UNL     1      -1.459  -2.992  -8.655  0.00  0.00    -0.035 A 
ATOM     19  C   UNL     1      -0.715  -2.887  -7.479  0.00  0.00    +0.089 A 
ATOM     20  C   UNL     1      -2.589  -3.985  -8.748  0.00  0.00    +0.044 C 
BRANCH  19  21
ATOM     21  C   UNL     1      -1.031  -3.747  -6.321  0.00  0.00    +0.341 C 
ATOM     22  O   UNL     1      -1.835  -3.375  -5.489  0.00  0.00    -0.245 OA
BRANCH  21  23
ATOM     23  O   UNL     1      -0.430  -4.945  -6.187  0.00  0.00    -0.464 OA
ATOM     24  C   UNL     1      -0.784  -5.725  -5.043  0.00  0.00    +0.280 C 
ENDBRANCH  21  23
ENDBRANCH  19  21
ENDBRANCH   1  14
TORSDOF 5
