REMARK  Name = ZINC21318570
REMARK  4 active torsions:
REMARK  status: ('A' for Active; 'I' for Inactive)
REMARK    1  A    between atoms: C_11  and  C_25
REMARK    2  A    between atoms: C_14  and  C_16
REMARK    3  A    between atoms: C_16  and  S_17
REMARK    4  A    between atoms: S_17  and  C_18
REMARK                            x       y       z     vdW  Elec       q    Type
REMARK                         _______ _______ _______ _____ _____    ______ ____
ROOT
ATOM      1  C   UNL     1       0.009   1.076   0.015  0.00  0.00    +0.002 A 
ATOM      2  C   UNL     1      -1.199   1.748   0.019  0.00  0.00    +0.002 A 
ATOM      3  C   UNL     1      -1.228   3.131   0.021  0.00  0.00    +0.025 A 
ATOM      4  C   UNL     1      -0.041   3.845   0.005  0.00  0.00    +0.058 A 
ATOM      5  C   UNL     1       1.178   3.166   0.011  0.00  0.00    +0.055 A 
ATOM      6  C   UNL     1       1.199   1.782   0.012  0.00  0.00    +0.025 A 
ATOM      7  N   UNL     1       2.368   3.902   0.042  0.00  0.00    -0.284 N 
ATOM      8  C   UNL     1       2.565   4.925  -0.820  0.00  0.00    +0.219 C 
ATOM      9  O   UNL     1       3.565   5.605  -0.729  0.00  0.00    -0.275 OA
ATOM     10  C   UNL     1       1.551   5.225  -1.891  0.00  0.00    +0.128 C 
ATOM     11  C   UNL     1       0.330   5.916  -1.282  0.00  0.00    +0.194 C 
ATOM     12  N   UNL     1      -0.050   5.246  -0.037  0.00  0.00    -0.257 N 
ATOM     13  C   UNL     1      -0.402   5.963   1.049  0.00  0.00    +0.231 C 
ATOM     14  O   UNL     1      -0.405   7.175   1.000  0.00  0.00    -0.274 OA
ATOM     15  H   UNL     1       3.152   3.651   0.771  0.00  0.00    +0.155 HD
ENDROOT
BRANCH  11  16
ATOM     16  C   UNL     1      -0.837   5.851  -2.269  0.00  0.00    +0.409 C 
ATOM     17  F   UNL     1      -1.145   4.513  -2.540  0.00  0.00    -0.169 F 
ATOM     18  F   UNL     1      -1.955   6.483  -1.712  0.00  0.00    -0.169 F 
ATOM     19  F   UNL     1      -0.480   6.497  -3.457  0.00  0.00    -0.169 F 
ENDBRANCH  11  16
BRANCH  13  20
ATOM     20  C   UNL     1      -0.790   5.259   2.324  0.00  0.00    +0.173 C 
BRANCH  20  21
ATOM     21  S   UNL     1      -1.207   6.489   3.591  0.00  0.00    -0.075 S 
BRANCH  21  22
ATOM     22  C   UNL     1      -1.633   5.521   5.000  0.00  0.00    +0.210 A 
ATOM     23  N   UNL     1      -2.018   6.003   6.220  0.00  0.00    -0.188 NA
ATOM     24  H   UNL     1      -2.093   2.778   6.629  0.00  0.00    +0.192 HD
ATOM     25  C   UNL     1      -2.255   4.936   7.039  0.00  0.00    +0.209 A 
ATOM     26  N   UNL     1      -2.028   3.841   6.357  0.00  0.00    -0.246 N 
ATOM     27  N   UNL     1      -1.638   4.211   5.063  0.00  0.00    -0.144 NA
ATOM     28  N   UNL     1      -2.667   5.001   8.365  0.00  0.00    -0.328 N 
ATOM     29  H   UNL     1      -2.829   4.075   8.936  0.00  0.00    +0.145 HD
ATOM     30  H   UNL     1      -2.829   5.978   8.843  0.00  0.00    +0.145 HD
ENDBRANCH  21  22
ENDBRANCH  20  21
ENDBRANCH  13  20
TORSDOF 4
