REMARK  Name = ZINC08415693
REMARK  6 active torsions:
REMARK  status: ('A' for Active; 'I' for Inactive)
REMARK    1  A    between atoms: C_1  and  C_2
REMARK    2  A    between atoms: C_2  and  C_30
REMARK    3  A    between atoms: C_6  and  C_20
REMARK    4  A    between atoms: C_8  and  C_18
REMARK    5  A    between atoms: C_9  and  N_17
REMARK    6  A    between atoms: N_10  and  N_11
REMARK                            x       y       z     vdW  Elec       q    Type
REMARK                         _______ _______ _______ _____ _____    ______ ____
ROOT
ATOM      1  C   UNL     1       3.684  -1.947  -1.145  0.00  0.00    +0.011 C 
ATOM      2  C   UNL     1       3.848  -1.793   0.368  0.00  0.00    -0.023 C 
ATOM      3  C   UNL     1       3.778  -0.312   0.745  0.00  0.00    +0.059 C 
ATOM      4  C   UNL     1       2.430   0.246   0.360  0.00  0.00    +0.037 C 
ATOM      5  C   UNL     1       1.328  -0.534   0.362  0.00  0.00    +0.026 C 
ATOM      6  C   UNL     1      -0.019   0.028  -0.018  0.00  0.00    +0.097 C 
ATOM      7  C   UNL     1      -0.018   1.527   0.046  0.00  0.00    +0.078 C 
ATOM      8  C   UNL     1       1.145   2.228   0.053  0.00  0.00    +0.117 C 
ATOM      9  N   UNL     1       2.349   1.567   0.011  0.00  0.00    -0.223 N 
ATOM     10  C   UNL     1       1.403  -1.892   0.716  0.00  0.00    +0.162 C 
ATOM     11  O   UNL     1       0.390  -2.563   0.722  0.00  0.00    -0.292 OA
ATOM     12  C   UNL     1       2.713  -2.531   1.087  0.00  0.00    +0.086 C 
ATOM     13  C   UNL     1       5.197  -2.371   0.801  0.00  0.00    +0.011 C 
ENDROOT
BRANCH   6  14
ATOM     14  C   UNL     1      -0.358  -0.407  -1.420  0.00  0.00    -0.035 A 
ATOM     15  C   UNL     1       0.443  -0.019  -2.477  0.00  0.00    +0.005 A 
ATOM     16  C   UNL     1       0.135  -0.421  -3.763  0.00  0.00    +0.015 A 
ATOM     17  C   UNL     1      -0.982  -1.205  -3.993  0.00  0.00    +0.018 A 
ATOM     18  C   UNL     1      -1.786  -1.589  -2.936  0.00  0.00    +0.015 A 
ATOM     19  C   UNL     1      -1.474  -1.190  -1.649  0.00  0.00    +0.005 A 
ATOM     20 BR   UNL     1      -1.407  -1.751  -5.753  0.00  0.00    -0.050 Br
ENDBRANCH   6  14
BRANCH   9  21
ATOM     21  N   UNL     1       3.475   2.234  -0.383  0.00  0.00    -0.217 NA
ATOM     22  C   UNL     1       4.120   1.556  -1.516  0.00  0.00    +0.134 C 
ATOM     23  C   UNL     1       5.340   2.367  -1.962  0.00  0.00    +0.177 C 
ATOM     24  O   UNL     1       6.228   2.531  -0.853  0.00  0.00    -0.377 OA
ATOM     25  C   UNL     1       5.632   3.189   0.269  0.00  0.00    +0.177 C 
ATOM     26  C   UNL     1       4.415   2.387   0.737  0.00  0.00    +0.134 C 
ENDBRANCH   9  21
BRANCH   8  27
ATOM     27  N   UNL     1       1.118   3.601   0.103  0.00  0.00    -0.344 N 
ATOM     28  H   UNL     1       0.274   4.066   0.216  0.00  0.00    +0.144 HD
ATOM     29  H   UNL     1       1.942   4.106   0.025  0.00  0.00    +0.144 HD
ENDBRANCH   8  27
BRANCH   7  30
ATOM     30  C   UNL     1      -1.265   2.230   0.094  0.00  0.00    +0.099 C 
ATOM     31  N   UNL     1      -2.254   2.788   0.132  0.00  0.00    -0.191 NA
ENDBRANCH   7  30
TORSDOF 4
