REMARK  Name = ZINC06442030
REMARK  8 active torsions:
REMARK  status: ('A' for Active; 'I' for Inactive)
REMARK    1  A    between atoms: C_1  and  C_2
REMARK    2  A    between atoms: C_2  and  C_3
REMARK    3  A    between atoms: C_2  and  C_14
REMARK    4  A    between atoms: C_2  and  N_25
REMARK    5  A    between atoms: C_3  and  C_4
REMARK    6  A    between atoms: C_4  and  C_5
REMARK    7  A    between atoms: C_4  and  C_9
REMARK    8  A    between atoms: C_4  and  O_13
REMARK                            x       y       z     vdW  Elec       q    Type
REMARK                         _______ _______ _______ _____ _____    ______ ____
ROOT
ATOM      1  C   UNL     1      -2.212   0.715   0.432  0.00  0.00    +0.221 C 
ENDROOT
BRANCH   1   2
ATOM      2  C   UNL     1      -3.738   0.702   0.320  0.00  0.00    +0.357 C 
ATOM      3  F   UNL     1      -4.288   1.453   1.364  0.00  0.00    -0.184 F 
ATOM      4  F   UNL     1      -4.120   1.258  -0.906  0.00  0.00    -0.184 F 
ATOM      5 CL   UNL     1      -4.334  -0.996   0.422  0.00  0.00    -0.044 Cl
ENDBRANCH   1   2
BRANCH   1   6
ATOM      6  C   UNL     1      -1.787  -0.039   1.693  0.00  0.00    +0.357 C 
ATOM      7  F   UNL     1      -2.053  -1.403   1.534  0.00  0.00    -0.184 F 
ATOM      8  F   UNL     1      -0.417   0.148   1.909  0.00  0.00    -0.184 F 
ATOM      9 CL   UNL     1      -2.709   0.591   3.109  0.00  0.00    -0.044 Cl
ENDBRANCH   1   6
BRANCH   1  10
ATOM     10  O   UNL     1      -1.751   2.066   0.505  0.00  0.00    -0.376 OA
ATOM     11  H   UNL     1      -0.795   2.149   0.623  0.00  0.00    +0.211 HD
ENDBRANCH   1  10
BRANCH   1  12
ATOM     12  C   UNL     1      -1.605   0.035  -0.797  0.00  0.00    +0.048 C 
BRANCH  12  14
ATOM     13  C   UNL     1       0.550  -0.491  -1.947  0.00  0.00    +0.001 C 
ATOM     14  C   UNL     1      -0.090  -0.084  -0.618  0.00  0.00    +0.033 C 
BRANCH  14  17
ATOM     15  H   UNL     1       0.392   1.313   0.815  0.00  0.00    -0.088 HD
ATOM     16  H   UNL     1       1.407   1.324  -0.503  0.00  0.00    -0.088 HD
ATOM     17  N   UNL     1       0.439   1.225  -0.199  0.00  0.00    +0.389 N 
ATOM     18  H   UNL     1      -0.124   1.970  -0.626  0.00  0.00    -0.088 HD
ENDBRANCH  14  17
BRANCH  14  19
ATOM     19  C   UNL     1       0.211  -1.129   0.425  0.00  0.00    +0.345 C 
ATOM     20  O   UNL     1      -0.490  -2.109   0.519  0.00  0.00    -0.248 OA
ATOM     21  O   UNL     1       1.258  -0.972   1.250  0.00  0.00    -0.248 OA
ENDBRANCH  14  19
ENDBRANCH  12  14
ENDBRANCH   1  12
TORSDOF 7
