REMARK  Name = ZINC40158532
REMARK  6 active torsions:
REMARK  status: ('A' for Active; 'I' for Inactive)
REMARK    1  A    between atoms: C_3  and  S_26
REMARK    2  A    between atoms: C_6  and  C_7
REMARK    3  A    between atoms: C_7  and  C_8
REMARK    4  A    between atoms: C_8  and  C_9
REMARK    5  A    between atoms: C_15  and  C_18
REMARK    6  A    between atoms: S_26  and  N_29
REMARK                            x       y       z     vdW  Elec       q    Type
REMARK                         _______ _______ _______ _____ _____    ______ ____
ROOT
ATOM      1  C   UNL     1      -1.745  -1.028  -1.429  0.00  0.00    +0.100 C 
ENDROOT
BRANCH   1   2
ATOM      2  C   UNL     1      -3.040  -1.800  -1.420  0.00  0.00    +0.216 C 
ATOM      3  O   UNL     1      -3.550  -2.116  -0.366  0.00  0.00    -0.276 OA
ATOM      4  N   UNL     1      -3.630  -2.138  -2.583  0.00  0.00    -0.301 N 
ATOM      5  C   UNL     1      -3.021  -1.768  -3.868  0.00  0.00    +0.108 C 
ATOM      6  C   UNL     1      -4.059  -1.018  -4.708  0.00  0.00    +0.019 C 
ATOM      7  C   UNL     1      -5.321  -1.874  -4.835  0.00  0.00    +0.009 C 
ATOM      8  C   UNL     1      -5.913  -2.123  -3.446  0.00  0.00    +0.036 C 
ATOM      9  C   UNL     1      -4.893  -2.890  -2.591  0.00  0.00    +0.113 C 
BRANCH   8  10
ATOM     10  C   UNL     1      -7.193  -2.950  -3.577  0.00  0.00    +0.165 C 
ATOM     11  C   UNL     1      -8.248  -2.183  -4.349  0.00  0.00    +0.241 C 
ATOM     12  O   UNL     1      -8.176  -1.791  -5.494  0.00  0.00    -0.273 OA
ATOM     13  N   UNL     1      -9.281  -2.028  -3.498  0.00  0.00    -0.239 N 
ATOM     14  C   UNL     1      -9.029  -2.584  -2.308  0.00  0.00    +0.307 C 
ATOM     15  O   UNL     1      -9.811  -2.574  -1.378  0.00  0.00    -0.252 OA
ATOM     16  N   UNL     1      -7.811  -3.161  -2.256  0.00  0.00    -0.287 N 
ATOM     17  H   UNL     1     -10.106  -1.568  -3.721  0.00  0.00    +0.159 HD
ATOM     18  H   UNL     1      -7.418  -3.624  -1.499  0.00  0.00    +0.151 HD
ENDBRANCH   8  10
ENDBRANCH   1   2
BRANCH   1  19
ATOM     19  C   UNL     1      -1.293  -0.775   0.011  0.00  0.00    +0.044 C 
BRANCH  19  25
ATOM     20  C   UNL     1      -0.017   1.378   0.010  0.00  0.00    +0.005 A 
ATOM     21  C   UNL     1       1.171   2.086   0.002  0.00  0.00    +0.029 A 
ATOM     22  C   UNL     1       2.377   1.411  -0.013  0.00  0.00    +0.105 A 
ATOM     23  C   UNL     1       2.396   0.029  -0.020  0.00  0.00    +0.029 A 
ATOM     24  C   UNL     1       1.208  -0.679  -0.012  0.00  0.00    +0.005 A 
ATOM     25  C   UNL     1       0.002  -0.004   0.002  0.00  0.00    -0.047 A 
BRANCH  22  26
ATOM     26  S   UNL     1       3.891   2.312  -0.024  0.00  0.00    +0.061 S 
ATOM     27  O   UNL     1       4.872   1.453  -0.588  0.00  0.00    -0.153 OA
ATOM     28  O   UNL     1       3.597   3.593  -0.566  0.00  0.00    -0.153 OA
BRANCH  26  29
ATOM     29  N   UNL     1       4.327   2.556   1.555  0.00  0.00    -0.177 NA
ATOM     30  C   UNL     1       3.856   3.745   2.229  0.00  0.00    +0.109 C 
ATOM     31  C   UNL     1       4.867   4.898   2.016  0.00  0.00    +0.017 C 
ATOM     32  C   UNL     1       6.095   4.649   2.786  0.00  0.00    +0.001 C 
ATOM     33  C   UNL     1       6.858   3.396   2.366  0.00  0.00    +0.001 C 
ATOM     34  C   UNL     1       6.280   2.197   3.078  0.00  0.00    +0.017 C 
ATOM     35  C   UNL     1       5.177   1.547   2.218  0.00  0.00    +0.109 C 
ENDBRANCH  26  29
ENDBRANCH  22  26
ENDBRANCH  19  25
ENDBRANCH   1  19
TORSDOF 6
