REMARK  Name = ZINC67304061
REMARK  8 active torsions:
REMARK  status: ('A' for Active; 'I' for Inactive)
REMARK    1  A    between atoms: C_1  and  C_2
REMARK    2  A    between atoms: C_2  and  C_3
REMARK    3  A    between atoms: C_3  and  C_4
REMARK    4  A    between atoms: C_4  and  C_6
REMARK    5  A    between atoms: C_4  and  N_20
REMARK    6  A    between atoms: N_16  and  C_17
REMARK    7  A    between atoms: C_17  and  C_18
REMARK    8  A    between atoms: C_17  and  C_19
REMARK                            x       y       z     vdW  Elec       q    Type
REMARK                         _______ _______ _______ _____ _____    ______ ____
ROOT
ATOM      1  C   UNL     1       1.444  -2.554  -2.486  0.00  0.00    +0.236 C 
ATOM      2  O   UNL     1       0.828  -3.192  -3.313  0.00  0.00    -0.274 OA
ATOM      3  N   UNL     1       2.759  -2.317  -2.661  0.00  0.00    -0.297 N 
ATOM      4  C   UNL     1       3.544  -1.649  -1.613  0.00  0.00    +0.127 C 
ATOM      5  C   UNL     1       4.739  -2.541  -1.254  0.00  0.00    +0.128 C 
ATOM      6  N   UNL     1       5.414  -2.945  -2.495  0.00  0.00    -0.283 N 
ATOM      7  C   UNL     1       4.628  -3.612  -3.543  0.00  0.00    +0.128 C 
ATOM      8  C   UNL     1       3.434  -2.725  -3.900  0.00  0.00    +0.127 C 
ATOM      9  C   UNL     1       6.729  -2.707  -2.670  0.00  0.00    +0.302 C 
ATOM     10  O   UNL     1       7.348  -2.072  -1.838  0.00  0.00    -0.253 OA
ATOM     11  N   UNL     1       7.358  -3.173  -3.767  0.00  0.00    -0.297 N 
ATOM     12  H   UNL     1       6.851  -3.616  -4.466  0.00  0.00    +0.150 HD
ENDROOT
BRANCH  11  13
ATOM     13  C   UNL     1       8.807  -3.011  -3.905  0.00  0.00    +0.068 C 
ATOM     14  C   UNL     1       9.356  -4.096  -4.834  0.00  0.00    +0.027 C 
ATOM     15  C   UNL     1       9.113  -1.633  -4.495  0.00  0.00    +0.027 C 
ENDBRANCH  11  13
BRANCH   1  16
ATOM     16  C   UNL     1       0.739  -2.027  -1.263  0.00  0.00    +0.160 C 
BRANCH  16  17
ATOM     17  N   UNL     1      -0.470  -2.817  -1.017  0.00  0.00    -0.288 N 
ATOM     18  C   UNL     1      -0.982  -2.896   0.227  0.00  0.00    +0.298 C 
ATOM     19  O   UNL     1      -0.442  -2.311   1.145  0.00  0.00    -0.253 OA
ATOM     20  N   UNL     1      -2.094  -3.623   0.453  0.00  0.00    -0.313 N 
ATOM     21  H   UNL     1      -0.901  -3.284  -1.750  0.00  0.00    +0.151 HD
ATOM     22  H   UNL     1      -2.526  -4.090  -0.280  0.00  0.00    +0.146 HD
ATOM     23  H   UNL     1      -2.463  -3.680   1.348  0.00  0.00    +0.146 HD
ENDBRANCH  16  17
BRANCH  16  24
ATOM     24  C   UNL     1       0.354  -0.563  -1.488  0.00  0.00    +0.031 C 
BRANCH  24  26
ATOM     25  C   UNL     1      -0.616   1.478  -0.421  0.00  0.00    +0.004 C 
ATOM     26  C   UNL     1      -0.231   0.014  -0.197  0.00  0.00    -0.001 C 
ENDBRANCH  24  26
ENDBRANCH  16  24
ENDBRANCH   1  16
TORSDOF 5
