REMARK  Name = ZINC59640229
REMARK  4 active torsions:
REMARK  status: ('A' for Active; 'I' for Inactive)
REMARK    1  A    between atoms: C_1  and  N_2
REMARK    2  A    between atoms: N_9  and  N_10
REMARK    3  A    between atoms: C_11  and  C_12
REMARK    4  A    between atoms: C_17  and  O_18
REMARK                            x       y       z     vdW  Elec       q    Type
REMARK                         _______ _______ _______ _____ _____    ______ ____
ROOT
ATOM      1  C   UNL     1      -2.216   1.411  -1.871  0.00  0.00    +0.127 C 
ATOM      2  N   UNL     1      -1.959  -0.004  -1.596  0.00  0.00    -0.330 N 
ATOM      3  C   UNL     1      -0.937  -0.666  -2.260  0.00  0.00    +0.159 A 
ATOM      4  C   UNL     1      -0.687  -2.019  -2.009  0.00  0.00    +0.181 A 
ATOM      5  C   UNL     1       0.342  -2.636  -2.696  0.00  0.00    +0.156 A 
ATOM      6  N   UNL     1       1.055  -1.934  -3.565  0.00  0.00    -0.219 NA
ATOM      7  C   UNL     1       0.794  -0.654  -3.782  0.00  0.00    +0.237 A 
ATOM      8  N   UNL     1      -0.186  -0.025  -3.149  0.00  0.00    -0.195 NA
ATOM      9  N   UNL     1       1.563   0.045  -4.699  0.00  0.00    -0.205 N 
ATOM     10  F   UNL     1      -1.432  -2.706  -1.116  0.00  0.00    -0.200 F 
ATOM     11  H   UNL     1      -2.503  -0.479  -0.948  0.00  0.00    +0.147 HD
ATOM     12  H   UNL     1       1.383   0.983  -4.867  0.00  0.00    +0.177 HD
ENDROOT
BRANCH   9  13
ATOM     13  N   UNL     1       2.600  -0.603  -5.382  0.00  0.00    -0.187 NA
ATOM     14  C   UNL     1       3.389   0.075  -6.159  0.00  0.00    +0.142 C 
BRANCH  14  15
ATOM     15  C   UNL     1       3.363   1.549  -6.130  0.00  0.00    +0.037 A 
ATOM     16  C   UNL     1       2.947   2.221  -4.980  0.00  0.00    +0.028 A 
ATOM     17  C   UNL     1       2.925   3.601  -4.960  0.00  0.00    +0.019 A 
ATOM     18  C   UNL     1       3.315   4.322  -6.077  0.00  0.00    +0.019 A 
ATOM     19  C   UNL     1       3.729   3.666  -7.221  0.00  0.00    +0.047 A 
ATOM     20  C   UNL     1       3.762   2.282  -7.256  0.00  0.00    +0.126 A 
ATOM     21 BR   UNL     1       2.361   4.512  -3.401  0.00  0.00    -0.050 Br
BRANCH  20  22
ATOM     22  O   UNL     1       4.175   1.638  -8.378  0.00  0.00    -0.506 OA
ATOM     23  H   UNL     1       3.455   1.375  -8.968  0.00  0.00    +0.292 HD
ENDBRANCH  20  22
ENDBRANCH  14  15
ENDBRANCH   9  13
TORSDOF 3
