REMARK  Name = ZINC33040336
REMARK  7 active torsions:
REMARK  status: ('A' for Active; 'I' for Inactive)
REMARK    1  A    between atoms: C_1  and  C_2
REMARK    2  A    between atoms: C_5  and  C_24
REMARK    3  A    between atoms: C_6  and  C_8
REMARK    4  A    between atoms: C_8  and  C_10
REMARK    5  A    between atoms: C_8  and  N_11
REMARK    6  A    between atoms: N_14  and  C_15
REMARK    7  A    between atoms: C_20  and  N_21
REMARK                            x       y       z     vdW  Elec       q    Type
REMARK                         _______ _______ _______ _____ _____    ______ ____
ROOT
ATOM      1  N   UNL     1      -1.061  -2.133   0.553  0.00  0.00    -0.293 N 
ATOM      2  C   UNL     1      -2.079  -2.790   1.142  0.00  0.00    +0.304 C 
ATOM      3  O   UNL     1      -3.183  -2.281   1.193  0.00  0.00    -0.252 OA
ATOM      4  N   UNL     1      -1.875  -4.011   1.675  0.00  0.00    -0.267 N 
ATOM      5  H   UNL     1      -0.063  -2.593   0.507  0.00  0.00    +0.151 HD
ATOM      6  H   UNL     1      -0.897  -4.502   1.565  0.00  0.00    +0.156 HD
ENDROOT
BRANCH   4   7
ATOM      7  C   UNL     1      -2.907  -4.654   2.368  0.00  0.00    +0.065 A 
ATOM      8  C   UNL     1      -4.224  -4.501   1.954  0.00  0.00    +0.025 A 
ATOM      9  C   UNL     1      -5.240  -5.140   2.637  0.00  0.00    +0.002 A 
ATOM     10  C   UNL     1      -4.948  -5.923   3.739  0.00  0.00    +0.002 A 
ATOM     11  C   UNL     1      -3.638  -6.074   4.156  0.00  0.00    +0.034 A 
ATOM     12  C   UNL     1      -2.617  -5.441   3.474  0.00  0.00    +0.147 A 
BRANCH  12  13
ATOM     13  N   UNL     1      -1.216  -5.601   3.923  0.00  0.00    +0.058 N 
ATOM     14  O   UNL     1      -0.951  -6.369   4.830  0.00  0.00    -0.126 OA
ATOM     15  O   UNL     1      -0.328  -4.965   3.385  0.00  0.00    -0.126 OA
ENDBRANCH  12  13
ENDBRANCH   4   7
BRANCH   1  16
ATOM     16  C   UNL     1      -1.283  -0.806  -0.026  0.00  0.00    +0.102 C 
ATOM     17  C   UNL     1      -1.819  -0.954  -1.452  0.00  0.00    +0.033 C 
BRANCH  16  23
ATOM     18  C   UNL     1       3.720  -0.782  -0.136  0.00  0.00    +0.044 C 
ATOM     19  C   UNL     1       2.412  -0.035  -0.108  0.00  0.00    -0.050 A 
ATOM     20  C   UNL     1       2.405   1.348  -0.110  0.00  0.00    +0.003 A 
ATOM     21  C   UNL     1       1.205   2.033  -0.082  0.00  0.00    +0.004 A 
ATOM     22  C   UNL     1       0.011   1.336  -0.056  0.00  0.00    -0.046 A 
ATOM     23  C   UNL     1       0.018  -0.046  -0.056  0.00  0.00    -0.024 A 
ATOM     24  C   UNL     1       1.218  -0.732  -0.082  0.00  0.00    +0.009 A 
ATOM     25  C   UNL     1      -1.297   2.083  -0.034  0.00  0.00    +0.044 C 
ENDBRANCH  16  23
ENDBRANCH   1  16
TORSDOF 4
