REMARK  Name = ZINC27371807
REMARK  6 active torsions:
REMARK  status: ('A' for Active; 'I' for Inactive)
REMARK    1  A    between atoms: C_1  and  C_2
REMARK    2  A    between atoms: N_11  and  C_12
REMARK    3  A    between atoms: C_12  and  C_13
REMARK    4  A    between atoms: C_13  and  C_15
REMARK    5  A    between atoms: C_16  and  N_27
REMARK    6  A    between atoms: N_17  and  C_24
REMARK                            x       y       z     vdW  Elec       q    Type
REMARK                         _______ _______ _______ _____ _____    ______ ____
ROOT
ATOM      1  C   UNL     1       0.364  -0.352   4.987  0.00  0.00    +0.121 A 
ATOM      2  C   UNL     1       1.319  -0.297   6.017  0.00  0.00    +0.116 A 
ATOM      3  N   UNL     1       0.996   0.335   7.184  0.00  0.00    -0.278 N 
ATOM      4  C   UNL     1      -0.209   0.899   7.361  0.00  0.00    +0.331 A 
ATOM      5  O   UNL     1      -0.447   1.450   8.418  0.00  0.00    -0.246 OA
ATOM      6  N   UNL     1      -1.160   0.878   6.414  0.00  0.00    -0.274 N 
ATOM      7  H   UNL     1      -2.017   1.299   6.586  0.00  0.00    +0.173 HD
ATOM      8  C   UNL     1      -0.938   0.284   5.223  0.00  0.00    +0.266 A 
ATOM      9  O   UNL     1      -1.801   0.271   4.364  0.00  0.00    -0.267 OA
ENDROOT
BRANCH   3  10
ATOM     10  C   UNL     1       1.984   0.398   8.263  0.00  0.00    +0.094 C 
ATOM     11  C   UNL     1       2.214   1.755   8.932  0.00  0.00    +0.027 C 
ATOM     12  C   UNL     1       3.275   1.174   7.995  0.00  0.00    +0.027 C 
ENDBRANCH   3  10
BRANCH   2  13
ATOM     13  N   UNL     1       2.545  -0.864   5.854  0.00  0.00    -0.344 N 
ATOM     14  H   UNL     1       2.926  -0.950   4.966  0.00  0.00    +0.144 HD
ATOM     15  H   UNL     1       3.038  -1.183   6.627  0.00  0.00    +0.144 HD
ENDBRANCH   2  13
BRANCH   1  16
ATOM     16  C   UNL     1       0.650  -0.994   3.762  0.00  0.00    +0.185 C 
ATOM     17  O   UNL     1       1.771  -1.405   3.539  0.00  0.00    -0.290 OA
BRANCH  16  18
ATOM     18  C   UNL     1      -0.435  -1.168   2.732  0.00  0.00    +0.165 C 
BRANCH  18  28
ATOM     19  C   UNL     1      -1.129  -0.390   0.038  0.00  0.00    +0.029 C 
ATOM     20  C   UNL     1      -0.843  -1.837   0.441  0.00  0.00    +0.085 C 
ATOM     21  C   UNL     1      -0.236  -2.588  -0.740  0.00  0.00    -0.020 A 
ATOM     22  C   UNL     1      -0.680  -2.458  -2.054  0.00  0.00    +0.013 A 
ATOM     23  C   UNL     1      -0.081  -3.162  -3.043  0.00  0.00    +0.046 A 
ATOM     24  S   UNL     1       1.173  -4.066  -2.146  0.00  0.00    -0.101 S 
ATOM     25  C   UNL     1       0.805  -3.442  -0.531  0.00  0.00    -0.004 A 
ATOM     26  C   UNL     1       1.454  -3.753   0.778  0.00  0.00    +0.058 C 
ATOM     27  C   UNL     1       0.536  -3.226   1.893  0.00  0.00    +0.090 C 
ATOM     28  N   UNL     1       0.112  -1.859   1.556  0.00  0.00    -0.288 NA
ENDBRANCH  18  28
ENDBRANCH  16  18
ENDBRANCH   1  16
TORSDOF 5
