REMARK  Name = ZINC40361632
REMARK  4 active torsions:
REMARK  status: ('A' for Active; 'I' for Inactive)
REMARK    1  A    between atoms: C_1  and  C_2
REMARK    2  A    between atoms: C_5  and  C_8
REMARK    3  A    between atoms: C_5  and  N_10
REMARK    4  A    between atoms: N_13  and  C_14
REMARK                            x       y       z     vdW  Elec       q    Type
REMARK                         _______ _______ _______ _____ _____    ______ ____
ROOT
ATOM      1  N   UNL     1      -1.358  -2.098   2.449  0.00  0.00    -0.281 N 
ATOM      2  C   UNL     1      -0.882  -2.424   3.667  0.00  0.00    +0.301 C 
ATOM      3  O   UNL     1       0.117  -3.110   3.765  0.00  0.00    -0.253 OA
ATOM      4  N   UNL     1      -1.513  -1.989   4.776  0.00  0.00    -0.297 N 
ATOM      5  H   UNL     1      -2.155  -1.550   2.371  0.00  0.00    +0.152 HD
ATOM      6  H   UNL     1      -2.310  -1.442   4.698  0.00  0.00    +0.151 HD
ENDROOT
BRANCH   1  11
ATOM      7  C   UNL     1      -0.019   1.526   0.010  0.00  0.00    +0.007 C 
ATOM      8  C   UNL     1       0.002  -0.004   0.002  0.00  0.00    -0.014 C 
ATOM      9  C   UNL     1      -1.433  -0.534   0.013  0.00  0.00    +0.006 C 
ATOM     10  C   UNL     1      -1.413  -2.063   0.004  0.00  0.00    +0.041 C 
ATOM     11  C   UNL     1      -0.673  -2.570   1.244  0.00  0.00    +0.122 C 
ATOM     12  C   UNL     1       0.763  -2.041   1.233  0.00  0.00    +0.041 C 
ATOM     13  C   UNL     1       0.742  -0.511   1.242  0.00  0.00    +0.006 C 
BRANCH  11  14
ATOM     14  C   UNL     1      -0.653  -4.042   1.236  0.00  0.00    +0.088 C 
ATOM     15  N   UNL     1      -0.637  -5.178   1.230  0.00  0.00    -0.194 NA
ENDBRANCH  11  14
ENDBRANCH   1  11
BRANCH   4  16
ATOM     16  C   UNL     1      -0.995  -2.343   6.100  0.00  0.00    +0.074 C 
ATOM     17  C   UNL     1       0.093  -1.347   6.505  0.00  0.00    +0.022 C 
ATOM     18  C   UNL     1       0.634  -1.716   7.888  0.00  0.00    +0.002 C 
ATOM     19  C   UNL     1      -0.504  -1.673   8.909  0.00  0.00    +0.000 C 
ATOM     20  C   UNL     1      -1.592  -2.670   8.504  0.00  0.00    +0.002 C 
ATOM     21  C   UNL     1      -2.133  -2.300   7.121  0.00  0.00    +0.022 C 
ENDBRANCH   4  16
TORSDOF 3
