REMARK  Name = ZINC40692563
REMARK  5 active torsions:
REMARK  status: ('A' for Active; 'I' for Inactive)
REMARK    1  A    between atoms: C_1  and  C_2
REMARK    2  A    between atoms: C_7  and  S_8
REMARK    3  A    between atoms: S_8  and  N_11
REMARK    4  A    between atoms: N_11  and  C_12
REMARK    5  A    between atoms: C_12  and  C_16
REMARK                            x       y       z     vdW  Elec       q    Type
REMARK                         _______ _______ _______ _____ _____    ______ ____
ROOT
ATOM      1  S   UNL     1       0.032  -0.130   2.620  0.00  0.00    +0.060 S 
ATOM      2  O   UNL     1      -1.223   0.535   2.593  0.00  0.00    -0.153 OA
ATOM      3  O   UNL     1       0.305  -1.206   3.507  0.00  0.00    -0.153 OA
ENDROOT
BRANCH   1  10
ATOM      4  C   UNL     1       2.503  -1.661   1.782  0.00  0.00    +0.046 C 
ATOM      5  C   UNL     1       1.478  -1.427   0.702  0.00  0.00    -0.024 A 
ATOM      6  C   UNL     1       1.698  -1.909  -0.575  0.00  0.00    +0.006 A 
ATOM      7  C   UNL     1       0.758  -1.696  -1.565  0.00  0.00    +0.015 A 
ATOM      8  C   UNL     1      -0.403  -1.001  -1.279  0.00  0.00    +0.020 A 
ATOM      9  C   UNL     1      -0.623  -0.519  -0.001  0.00  0.00    +0.044 A 
ATOM     10  C   UNL     1       0.316  -0.737   0.990  0.00  0.00    +0.109 A 
ATOM     11 BR   UNL     1      -1.689  -0.708  -2.634  0.00  0.00    -0.050 Br
ENDBRANCH   1  10
BRANCH   1  12
ATOM     12  N   UNL     1       1.177   1.030   2.916  0.00  0.00    -0.170 NA
ATOM     13  H   UNL     1       1.820   0.905   3.631  0.00  0.00    +0.150 HD
BRANCH  12  14
ATOM     14  C   UNL     1       1.217   2.244   2.098  0.00  0.00    +0.126 C 
ATOM     15  C   UNL     1       1.827   2.027   0.703  0.00  0.00    +0.039 C 
ATOM     16  C   UNL     1       2.523   3.387   0.882  0.00  0.00    +0.006 C 
ATOM     17  C   UNL     1       2.423   3.150   2.398  0.00  0.00    +0.039 C 
BRANCH  14  18
ATOM     18  C   UNL     1      -0.068   2.962   2.076  0.00  0.00    +0.086 C 
ATOM     19  N   UNL     1      -1.059   3.516   2.059  0.00  0.00    -0.195 NA
ENDBRANCH  14  18
ENDBRANCH  12  14
ENDBRANCH   1  12
TORSDOF 4
