REMARK  Name = ZINC12700861
REMARK  4 active torsions:
REMARK  status: ('A' for Active; 'I' for Inactive)
REMARK    1  A    between atoms: C_1  and  C_2
REMARK    2  A    between atoms: C_9  and  C_14
REMARK    3  A    between atoms: C_14  and  S_15
REMARK    4  A    between atoms: S_15  and  C_16
REMARK                            x       y       z     vdW  Elec       q    Type
REMARK                         _______ _______ _______ _____ _____    ______ ____
ROOT
ATOM      1  C   UNL     1      -6.856  -2.291  -4.980  0.00  0.00    +0.046 C 
ATOM      2  C   UNL     1      -7.882  -1.256  -5.365  0.00  0.00    -0.024 A 
ATOM      3  C   UNL     1      -9.026  -1.633  -6.033  0.00  0.00    +0.005 A 
ATOM      4  C   UNL     1      -9.980  -0.691  -6.395  0.00  0.00    +0.001 A 
ATOM      5  C   UNL     1      -9.801   0.641  -6.092  0.00  0.00    +0.015 A 
ATOM      6  C   UNL     1      -8.650   1.042  -5.417  0.00  0.00    +0.065 A 
ATOM      7  C   UNL     1      -7.677   0.087  -5.047  0.00  0.00    +0.081 A 
ATOM      8  N   UNL     1      -6.563   0.502  -4.394  0.00  0.00    -0.233 NA
ATOM      9  C   UNL     1      -6.375   1.752  -4.094  0.00  0.00    +0.121 A 
ATOM     10  N   UNL     1      -7.256   2.736  -4.410  0.00  0.00    -0.310 N 
ATOM     11  H   UNL     1      -7.061   3.654  -4.163  0.00  0.00    +0.170 HD
ATOM     12  C   UNL     1      -8.405   2.449  -5.067  0.00  0.00    +0.259 A 
ATOM     13  O   UNL     1      -9.203   3.322  -5.356  0.00  0.00    -0.267 OA
ENDROOT
BRANCH   9  14
ATOM     14  C   UNL     1      -5.113   2.130  -3.363  0.00  0.00    +0.151 C 
BRANCH  14  15
ATOM     15  S   UNL     1      -4.121   0.645  -3.066  0.00  0.00    -0.083 S 
BRANCH  15  16
ATOM     16  C   UNL     1      -2.748   1.359  -2.223  0.00  0.00    +0.150 C 
ATOM     17  N   UNL     1      -2.654   2.627  -1.977  0.00  0.00    -0.258 NA
ATOM     18  C   UNL     1      -1.406   2.899  -1.224  0.00  0.00    +0.128 C 
ATOM     19  C   UNL     1      -1.794   3.445   0.136  0.00  0.00    +0.029 C 
ATOM     20  C   UNL     1      -0.791   3.089   1.224  0.00  0.00    +0.002 C 
ATOM     21  C   UNL     1      -0.689   1.559   1.290  0.00  0.00    +0.002 C 
ATOM     22  C   UNL     1      -0.013   1.086   0.008  0.00  0.00    +0.024 C 
ATOM     23  C   UNL     1      -0.699   1.563  -1.230  0.00  0.00    +0.097 C 
ATOM     24  N   UNL     1      -1.682   0.620  -1.771  0.00  0.00    -0.319 N 
ATOM     25  H   UNL     1      -1.596  -0.346  -1.803  0.00  0.00    +0.148 HD
ENDBRANCH  15  16
ENDBRANCH  14  15
ENDBRANCH   9  14
TORSDOF 3
