REMARK  Name = ZINC22572338
REMARK  7 active torsions:
REMARK  status: ('A' for Active; 'I' for Inactive)
REMARK    1  A    between atoms: C_1  and  C_2
REMARK    2  A    between atoms: C_2  and  C_3
REMARK    3  A    between atoms: C_2  and  C_4
REMARK    4  A    between atoms: C_4  and  C_6
REMARK    5  A    between atoms: C_4  and  S_12
REMARK    6  A    between atoms: S_12  and  C_13
REMARK    7  A    between atoms: N_25  and  C_26
REMARK                            x       y       z     vdW  Elec       q    Type
REMARK                         _______ _______ _______ _____ _____    ______ ____
ROOT
ATOM      1  C   UNL     1      -1.647   2.034  -1.380  0.00  0.00    +0.178 A 
ATOM      2  N   UNL     1      -1.009   2.499  -0.325  0.00  0.00    -0.215 NA
ATOM      3  C   UNL     1      -1.291   3.702   0.163  0.00  0.00    +0.117 A 
ATOM      4  C   UNL     1      -2.269   4.528  -0.410  0.00  0.00    +0.076 A 
ATOM      5  C   UNL     1      -2.472   5.834   0.240  0.00  0.00    -0.023 A 
ATOM      6  C   UNL     1      -1.706   6.106   1.309  0.00  0.00    -0.004 A 
ATOM      7  S   UNL     1      -0.683   4.667   1.521  0.00  0.00    -0.073 S 
ATOM      8  C   UNL     1      -1.997   7.465   1.885  0.00  0.00    +0.043 C 
ATOM      9  C   UNL     1      -2.765   8.204   0.767  0.00  0.00    +0.010 C 
ATOM     10  C   UNL     1      -3.394   7.030  -0.008  0.00  0.00    +0.037 C 
ATOM     11  C   UNL     1      -2.946   4.001  -1.553  0.00  0.00    +0.268 A 
ATOM     12  O   UNL     1      -3.811   4.651  -2.115  0.00  0.00    -0.267 OA
ATOM     13  N   UNL     1      -2.611   2.777  -2.002  0.00  0.00    -0.255 N 
ENDROOT
BRANCH  13  14
ATOM     14  C   UNL     1      -3.265   2.253  -3.125  0.00  0.00    +0.052 A 
ATOM     15  C   UNL     1      -2.725   2.432  -4.392  0.00  0.00    +0.026 A 
ATOM     16  C   UNL     1      -3.372   1.914  -5.497  0.00  0.00    +0.002 A 
ATOM     17  C   UNL     1      -4.557   1.218  -5.342  0.00  0.00    +0.000 A 
ATOM     18  C   UNL     1      -5.098   1.039  -4.082  0.00  0.00    +0.002 A 
ATOM     19  C   UNL     1      -4.452   1.549  -2.973  0.00  0.00    +0.026 A 
ENDBRANCH  13  14
BRANCH   1  20
ATOM     20  S   UNL     1      -1.247   0.434  -2.002  0.00  0.00    -0.074 S 
BRANCH  20  21
ATOM     21  C   UNL     1       0.092  -0.136  -0.918  0.00  0.00    +0.143 C 
BRANCH  21  22
ATOM     22  C   UNL     1      -0.432  -0.297   0.485  0.00  0.00    +0.234 C 
ATOM     23  O   UNL     1      -1.612  -0.502   0.672  0.00  0.00    -0.274 OA
ATOM     24  N   UNL     1       0.411  -0.213   1.533  0.00  0.00    -0.239 N 
ATOM     25  C   UNL     1      -0.058  -0.358   2.789  0.00  0.00    +0.303 C 
ATOM     26  O   UNL     1      -1.241  -0.564   2.976  0.00  0.00    -0.253 OA
ATOM     27  N   UNL     1       0.786  -0.274   3.837  0.00  0.00    -0.313 N 
ATOM     28  H   UNL     1       1.355  -0.049   1.384  0.00  0.00    +0.159 HD
ATOM     29  H   UNL     1       1.730  -0.110   3.687  0.00  0.00    +0.146 HD
ATOM     30  H   UNL     1       0.449  -0.378   4.740  0.00  0.00    +0.146 HD
ENDBRANCH  21  22
BRANCH  21  32
ATOM     31  C   UNL     1       1.166  -1.312  -2.843  0.00  0.00    +0.009 C 
ATOM     32  C   UNL     1       0.620  -1.480  -1.424  0.00  0.00    +0.005 C 
ATOM     33  C   UNL     1       1.739  -1.968  -0.501  0.00  0.00    +0.009 C 
ENDBRANCH  21  32
ENDBRANCH  20  21
ENDBRANCH   1  20
TORSDOF 5
