REMARK  Name = ZINC01083583
REMARK  10 active torsions:
REMARK  status: ('A' for Active; 'I' for Inactive)
REMARK    1  A    between atoms: C_1  and  O_2
REMARK    2  A    between atoms: O_2  and  C_3
REMARK    3  A    between atoms: C_3  and  C_5
REMARK    4  A    between atoms: C_10  and  C_15
REMARK    5  A    between atoms: C_13  and  N_14
REMARK    6  A    between atoms: C_19  and  C_21
REMARK    7  A    between atoms: C_25  and  C_29
REMARK    8  A    between atoms: C_26  and  N_28
REMARK    9  A    between atoms: C_29  and  O_31
REMARK   10  A    between atoms: O_31  and  C_32
REMARK                            x       y       z     vdW  Elec       q    Type
REMARK                         _______ _______ _______ _____ _____    ______ ____
ROOT
ATOM      1  C   UNL     1       1.015   7.854   2.392  0.00  0.00    +0.127 A 
ATOM      2  C   UNL     1       0.410   7.433   1.109  0.00  0.00    +0.040 A 
ATOM      3  C   UNL     1      -0.118   8.125   0.026  0.00  0.00    +0.059 A 
ATOM      4  C   UNL     1      -0.626   7.431  -1.061  0.00  0.00    +0.140 A 
ATOM      5  C   UNL     1      -0.601   6.029  -1.058  0.00  0.00    +0.047 A 
ATOM      6  C   UNL     1      -0.070   5.325   0.029  0.00  0.00    +0.037 A 
ATOM      7  C   UNL     1       0.436   6.031   1.125  0.00  0.00    +0.147 A 
ATOM      8  O   UNL     1       1.001   5.632   2.285  0.00  0.00    -0.440 OA
ATOM      9  C   UNL     1       1.347   6.678   3.048  0.00  0.00    +0.199 A 
ATOM     10  C   UNL     1      -1.206   5.617  -2.341  0.00  0.00    +0.127 A 
ATOM     11  C   UNL     1      -1.536   6.798  -2.991  0.00  0.00    +0.199 A 
ATOM     12  O   UNL     1      -1.186   7.839  -2.222  0.00  0.00    -0.441 OA
ENDROOT
BRANCH   6  13
ATOM     13  C   UNL     1      -0.050   3.844   0.022  0.00  0.00    -0.013 A 
ATOM     14  C   UNL     1      -1.247   3.128   0.030  0.00  0.00    +0.008 A 
ATOM     15  C   UNL     1      -1.222   1.748   0.017  0.00  0.00    +0.001 A 
ATOM     16  C   UNL     1      -0.013   1.076   0.008  0.00  0.00    +0.012 A 
ATOM     17  C   UNL     1       1.177   1.781   0.000  0.00  0.00    +0.055 A 
ATOM     18  C   UNL     1       1.165   3.161   0.007  0.00  0.00    +0.021 A 
BRANCH  17  19
ATOM     19  C   UNL     1       2.490   1.041  -0.015  0.00  0.00    +0.417 C 
ATOM     20  F   UNL     1       2.248  -0.337  -0.019  0.00  0.00    -0.166 F 
ATOM     21  F   UNL     1       3.210   1.391  -1.162  0.00  0.00    -0.166 F 
ATOM     22  F   UNL     1       3.231   1.381   1.122  0.00  0.00    -0.166 F 
ENDBRANCH  17  19
ENDBRANCH   6  13
BRANCH   9  23
ATOM     23  N   UNL     1       1.938   6.598   4.284  0.00  0.00    -0.329 N 
ATOM     24  H   UNL     1       2.157   7.408   4.770  0.00  0.00    +0.145 HD
ATOM     25  H   UNL     1       2.137   5.731   4.671  0.00  0.00    +0.145 HD
ENDBRANCH   9  23
BRANCH  11  26
ATOM     26  N   UNL     1      -2.127   6.887  -4.226  0.00  0.00    -0.329 N 
ATOM     27  H   UNL     1      -2.348   6.080  -4.716  0.00  0.00    +0.145 HD
ATOM     28  H   UNL     1      -2.323   7.756  -4.608  0.00  0.00    +0.145 HD
ENDBRANCH  11  26
BRANCH   1  29
ATOM     29  C   UNL     1       1.213   9.179   2.853  0.00  0.00    +0.345 C 
ATOM     30  O   UNL     1       0.347   9.732   3.505  0.00  0.00    -0.245 OA
BRANCH  29  32
ATOM     31  C   UNL     1       2.494  11.161   3.066  0.00  0.00    +0.280 C 
ATOM     32  O   UNL     1       2.362   9.828   2.569  0.00  0.00    -0.464 OA
ENDBRANCH  29  32
ENDBRANCH   1  29
BRANCH  10  33
ATOM     33  C   UNL     1      -1.408   4.295  -2.810  0.00  0.00    +0.345 C 
ATOM     34  O   UNL     1      -2.446   3.711  -2.557  0.00  0.00    -0.245 OA
BRANCH  33  35
ATOM     35  O   UNL     1      -0.449   3.682  -3.536  0.00  0.00    -0.464 OA
ATOM     36  C   UNL     1      -0.720   2.350  -3.975  0.00  0.00    +0.280 C 
ENDBRANCH  33  35
ENDBRANCH  10  33
TORSDOF 8
