REMARK  Name = ZINC20611108
REMARK  6 active torsions:
REMARK  status: ('A' for Active; 'I' for Inactive)
REMARK    1  A    between atoms: C_1  and  O_2
REMARK    2  A    between atoms: O_2  and  C_3
REMARK    3  A    between atoms: C_8  and  C_9
REMARK    4  A    between atoms: C_9  and  N_10
REMARK    5  A    between atoms: C_15  and  C_32
REMARK    6  A    between atoms: C_32  and  C_33
REMARK                            x       y       z     vdW  Elec       q    Type
REMARK                         _______ _______ _______ _____ _____    ______ ____
ROOT
ATOM      1  N   UNL     1      -1.398  -2.912  -0.233  0.00  0.00    -0.237 N 
ATOM      2  C   UNL     1      -2.253  -2.027   0.292  0.00  0.00    +0.227 C 
ATOM      3  O   UNL     1      -1.944  -1.075   0.975  0.00  0.00    -0.275 OA
ATOM      4  C   UNL     1      -3.665  -2.399  -0.100  0.00  0.00    +0.107 C 
ATOM      5  C   UNL     1      -4.433  -2.867   1.155  0.00  0.00    +0.076 C 
ATOM      6  N   UNL     1      -5.134  -4.108   0.732  0.00  0.00    -0.295 NA
ATOM      7  C   UNL     1      -4.164  -4.791  -0.143  0.00  0.00    +0.136 C 
ATOM      8  C   UNL     1      -3.472  -3.676  -0.965  0.00  0.00    +0.122 C 
ATOM      9  C   UNL     1      -1.974  -3.877  -0.959  0.00  0.00    +0.229 C 
ATOM     10  O   UNL     1      -1.385  -4.775  -1.523  0.00  0.00    -0.275 OA
ATOM     11  C   UNL     1      -3.176  -5.597   0.651  0.00  0.00    +0.003 A 
ATOM     12  C   UNL     1      -2.261  -5.278   1.631  0.00  0.00    +0.008 A 
ATOM     13  C   UNL     1      -1.471  -6.268   2.189  0.00  0.00    +0.000 A 
ATOM     14  C   UNL     1      -1.602  -7.576   1.761  0.00  0.00    +0.002 A 
ATOM     15  C   UNL     1      -2.517  -7.900   0.781  0.00  0.00    +0.023 A 
ATOM     16  C   UNL     1      -3.316  -6.910   0.213  0.00  0.00    +0.039 A 
ATOM     17  N   UNL     1      -4.297  -6.987  -0.777  0.00  0.00    -0.283 N 
ATOM     18  C   UNL     1      -4.844  -5.785  -1.045  0.00  0.00    +0.243 C 
ATOM     19  O   UNL     1      -5.716  -5.551  -1.855  0.00  0.00    -0.273 OA
ATOM     20  H   UNL     1      -5.367  -4.681   1.530  0.00  0.00    +0.124 HD
ATOM     21  H   UNL     1      -4.555  -7.810  -1.222  0.00  0.00    +0.155 HD
ENDROOT
BRANCH   1  22
ATOM     22  C   UNL     1       0.051  -2.828  -0.033  0.00  0.00    +0.155 C 
BRANCH  22  28
ATOM     23  C   UNL     1       0.606  -0.607  -1.056  0.00  0.00    +0.125 A 
ATOM     24  C   UNL     1       1.173   0.161  -2.063  0.00  0.00    +0.046 A 
ATOM     25  C   UNL     1       1.786  -0.455  -3.136  0.00  0.00    +0.004 A 
ATOM     26  C   UNL     1       1.836  -1.835  -3.208  0.00  0.00    +0.001 A 
ATOM     27  C   UNL     1       1.271  -2.602  -2.207  0.00  0.00    +0.009 A 
ATOM     28  C   UNL     1       0.661  -1.991  -1.128  0.00  0.00    +0.012 A 
BRANCH  23  30
ATOM     29  C   UNL     1      -0.017   1.425   0.010  0.00  0.00    +0.277 C 
ATOM     30  O   UNL     1       0.002  -0.004   0.002  0.00  0.00    -0.495 OA
ENDBRANCH  23  30
ENDBRANCH  22  28
ENDBRANCH   1  22
BRANCH   5  31
ATOM     31  C   UNL     1      -5.443  -1.803   1.589  0.00  0.00    +0.115 C 
BRANCH  31  32
ATOM     32  C   UNL     1      -6.092  -2.224   2.882  0.00  0.00    +0.212 C 
ATOM     33  O   UNL     1      -5.778  -3.272   3.405  0.00  0.00    -0.276 OA
ATOM     34  N   UNL     1      -7.022  -1.437   3.457  0.00  0.00    -0.329 N 
ATOM     35  H   UNL     1      -7.274  -0.598   3.038  0.00  0.00    +0.145 HD
ATOM     36  H   UNL     1      -7.440  -1.708   4.289  0.00  0.00    +0.145 HD
ENDBRANCH  31  32
ENDBRANCH   5  31
TORSDOF 5
