REMARK  Name = ZINC41120721
REMARK  7 active torsions:
REMARK  status: ('A' for Active; 'I' for Inactive)
REMARK    1  A    between atoms: C_4  and  N_33
REMARK    2  A    between atoms: C_5  and  C_7
REMARK    3  A    between atoms: C_7  and  N_8
REMARK    4  A    between atoms: C_10  and  C_17
REMARK    5  A    between atoms: C_18  and  C_19
REMARK    6  A    between atoms: C_18  and  C_21
REMARK    7  A    between atoms: N_23  and  C_24
REMARK                            x       y       z     vdW  Elec       q    Type
REMARK                         _______ _______ _______ _____ _____    ______ ____
ROOT
ATOM      1  N   UNL     1       1.499  -2.959   1.458  0.00  0.00    -0.342 N 
ATOM      2  C   UNL     1       2.526  -3.469   2.177  0.00  0.00    +0.095 A 
ATOM      3  C   UNL     1       2.088  -3.775   3.451  0.00  0.00    +0.002 A 
ATOM      4  C   UNL     1       0.658  -3.410   3.494  0.00  0.00    +0.007 A 
ATOM      5  C   UNL     1       0.351  -2.901   2.223  0.00  0.00    +0.050 A 
ATOM      6  C   UNL     1      -0.943  -2.463   1.959  0.00  0.00    +0.026 A 
ATOM      7  C   UNL     1      -1.905  -2.528   2.943  0.00  0.00    +0.002 A 
ATOM      8  C   UNL     1      -1.599  -3.027   4.200  0.00  0.00    +0.001 A 
ATOM      9  C   UNL     1      -0.325  -3.474   4.478  0.00  0.00    +0.010 A 
ENDROOT
BRANCH   3  10
ATOM     10  C   UNL     1       2.855  -4.327   4.502  0.00  0.00    +0.034 C 
ATOM     11  C   UNL     1       4.064  -4.944   4.227  0.00  0.00    +0.118 C 
BRANCH  11  12
ATOM     12  C   UNL     1       4.879  -5.481   5.321  0.00  0.00    +0.290 C 
ATOM     13  O   UNL     1       4.451  -5.372   6.599  0.00  0.00    -0.264 OA
ATOM     14  N   UNL     1       6.029  -6.069   5.059  0.00  0.00    -0.182 NA
BRANCH  14  15
ATOM     15  C   UNL     1       6.780  -6.562   6.066  0.00  0.00    +0.197 A 
ATOM     16  N   UNL     1       6.532  -6.558   7.363  0.00  0.00    -0.221 NA
ATOM     17  C   UNL     1       7.382  -7.094   8.262  0.00  0.00    +0.081 A 
ATOM     18  C   UNL     1       7.239  -7.155   9.669  0.00  0.00    +0.029 A 
ATOM     19  C   UNL     1       8.205  -7.740  10.445  0.00  0.00    +0.002 A 
ATOM     20  C   UNL     1       9.350  -8.290   9.887  0.00  0.00    +0.001 A 
ATOM     21  C   UNL     1       9.523  -8.248   8.515  0.00  0.00    +0.017 A 
ATOM     22  C   UNL     1       8.561  -7.664   7.729  0.00  0.00    +0.041 A 
ATOM     23  S   UNL     1       8.359  -7.395   5.984  0.00  0.00    -0.048 S 
ENDBRANCH  14  15
ENDBRANCH  11  12
BRANCH  11  24
ATOM     24  C   UNL     1       4.517  -5.059   2.873  0.00  0.00    +0.105 C 
ATOM     25  N   UNL     1       4.877  -5.151   1.800  0.00  0.00    -0.191 NA
ENDBRANCH  11  24
ENDBRANCH   3  10
BRANCH   1  26
ATOM     26  C   UNL     1       1.594  -2.522   0.063  0.00  0.00    +0.159 C 
BRANCH  26  31
ATOM     27  C   UNL     1       1.485   1.101   1.118  0.00  0.00    +0.000 A 
ATOM     28  C   UNL     1       1.476   1.744  -0.105  0.00  0.00    +0.002 A 
ATOM     29  C   UNL     1       1.504   1.007  -1.274  0.00  0.00    +0.033 A 
ATOM     30  C   UNL     1       1.543  -0.374  -1.220  0.00  0.00    +0.131 A 
ATOM     31  C   UNL     1       1.553  -1.017   0.003  0.00  0.00    +0.002 A 
ATOM     32  C   UNL     1       1.523  -0.280   1.173  0.00  0.00    +0.007 A 
BRANCH  30  33
ATOM     33  N   UNL     1       1.573  -1.163  -2.472  0.00  0.00    +0.057 N 
ATOM     34  O   UNL     1       1.432  -0.611  -3.538  0.00  0.00    -0.126 OA
ATOM     35  O   UNL     1       1.737  -2.360  -2.428  0.00  0.00    -0.126 OA
ENDBRANCH  30  33
ENDBRANCH  26  31
ENDBRANCH   1  26
TORSDOF 7
