REMARK  Name = ZINC39667673
REMARK  8 active torsions:
REMARK  status: ('A' for Active; 'I' for Inactive)
REMARK    1  A    between atoms: C_1  and  C_2
REMARK    2  A    between atoms: C_6  and  C_9
REMARK    3  A    between atoms: C_7  and  C_8
REMARK    4  A    between atoms: C_9  and  N_10
REMARK    5  A    between atoms: C_11  and  C_13
REMARK    6  A    between atoms: C_24  and  C_26
REMARK    7  A    between atoms: C_33  and  C_37
REMARK    8  A    between atoms: N_35  and  C_36
REMARK                            x       y       z     vdW  Elec       q    Type
REMARK                         _______ _______ _______ _____ _____    ______ ____
ROOT
ATOM      1  C   UNL     1      -2.929  -3.592   4.764  0.00  0.00    +0.100 C 
ATOM      2  C   UNL     1      -3.894  -4.262   3.761  0.00  0.00    +0.121 C 
ATOM      3  N   UNL     1      -3.930  -5.686   4.170  0.00  0.00    -0.296 N 
ATOM      4  C   UNL     1      -3.927  -5.644   5.652  0.00  0.00    +0.115 C 
ATOM      5  C   UNL     1      -2.955  -4.501   6.005  0.00  0.00    -0.004 C 
ATOM      6  C   UNL     1      -1.563  -5.059   6.281  0.00  0.00    -0.010 C 
ATOM      7  C   UNL     1      -1.603  -5.913   7.551  0.00  0.00    -0.082 C 
ATOM      8  N   UNL     1      -2.056  -5.093   8.681  0.00  0.00    +0.379 N 
ATOM      9  C   UNL     1      -3.431  -4.635   8.448  0.00  0.00    -0.082 C 
ATOM     10  C   UNL     1      -3.468  -3.727   7.216  0.00  0.00    -0.010 C 
ATOM     11  C   UNL     1      -3.960  -6.773   3.374  0.00  0.00    +0.250 C 
ATOM     12  O   UNL     1      -3.860  -6.647   2.168  0.00  0.00    -0.270 OA
ATOM     13  H   UNL     1      -2.023  -5.641   9.527  0.00  0.00    -0.086 HD
ATOM     14  H   UNL     1      -1.449  -4.293   8.778  0.00  0.00    -0.086 HD
ENDROOT
BRANCH  11  15
ATOM     15  C   UNL     1      -4.113  -8.117   3.965  0.00  0.00    +0.074 A 
ATOM     16  C   UNL     1      -4.912  -8.305   5.102  0.00  0.00    +0.127 A 
ATOM     17  N   UNL     1      -5.061  -9.491   5.643  0.00  0.00    -0.235 NA
ATOM     18  C   UNL     1      -4.466 -10.571   5.144  0.00  0.00    +0.160 A 
ATOM     19  C   UNL     1      -3.647 -10.466   4.002  0.00  0.00    +0.060 A 
ATOM     20  C   UNL     1      -3.469  -9.218   3.396  0.00  0.00    +0.067 A 
ATOM     21 CL   UNL     1      -2.474  -9.042   1.984  0.00  0.00    -0.082 Cl
ATOM     22  C   UNL     1      -3.156 -11.811   3.720  0.00  0.00    +0.071 A 
ATOM     23  N   UNL     1      -3.653 -12.608   4.622  0.00  0.00    -0.174 NA
ATOM     24  N   UNL     1      -4.458 -11.887   5.509  0.00  0.00    -0.249 N 
ATOM     25  C   UNL     1      -5.180 -12.455   6.650  0.00  0.00    +0.174 C 
ATOM     26  C   UNL     1      -2.241 -12.206   2.589  0.00  0.00    +0.068 C 
ENDBRANCH  11  15
BRANCH   1  28
ATOM     27  N   UNL     1      -0.710  -2.523   4.537  0.00  0.00    -0.311 N 
ATOM     28  C   UNL     1      -1.537  -3.529   4.190  0.00  0.00    +0.218 C 
ATOM     29  O   UNL     1      -1.161  -4.383   3.416  0.00  0.00    -0.275 OA
ATOM     30  H   UNL     1      -1.010  -1.839   5.157  0.00  0.00    +0.149 HD
BRANCH  27  31
ATOM     31  C   UNL     1       0.643  -2.461   3.979  0.00  0.00    +0.139 C 
BRANCH  31  37
ATOM     32  C   UNL     1       3.178  -0.215   7.663  0.00  0.00    +0.044 C 
ATOM     33  C   UNL     1       2.569  -0.175   6.286  0.00  0.00    -0.047 A 
ATOM     34  C   UNL     1       2.663   0.973   5.521  0.00  0.00    +0.003 A 
ATOM     35  C   UNL     1       2.104   1.009   4.257  0.00  0.00    +0.001 A 
ATOM     36  C   UNL     1       1.450  -0.102   3.758  0.00  0.00    +0.005 A 
ATOM     37  C   UNL     1       1.356  -1.250   4.523  0.00  0.00    -0.027 A 
ATOM     38  C   UNL     1       1.919  -1.288   5.785  0.00  0.00    -0.043 A 
ATOM     39  C   UNL     1       1.821  -2.541   6.617  0.00  0.00    +0.044 C 
ENDBRANCH  31  37
ENDBRANCH  27  31
ENDBRANCH   1  28
TORSDOF 4
