REMARK  Name = ZINC03211882
REMARK  3 active torsions:
REMARK  status: ('A' for Active; 'I' for Inactive)
REMARK    1  A    between atoms: C_1  and  S_2
REMARK    2  A    between atoms: S_2  and  C_3
REMARK    3  A    between atoms: C_16  and  C_19
REMARK                            x       y       z     vdW  Elec       q    Type
REMARK                         _______ _______ _______ _____ _____    ______ ____
ROOT
ATOM      1  C   UNL     1       3.745   8.876   1.978  0.00  0.00    +0.212 A 
ATOM      2  N   UNL     1       3.143   7.726   1.686  0.00  0.00    -0.184 NA
ATOM      3  C   UNL     1       1.824   7.689   1.604  0.00  0.00    +0.248 A 
ATOM      4  C   UNL     1       1.096   8.880   1.827  0.00  0.00    +0.156 A 
ATOM      5  N   UNL     1       1.756   9.991   2.116  0.00  0.00    -0.141 NA
ATOM      6  N   UNL     1       3.042   9.982   2.188  0.00  0.00    -0.122 NA
ATOM      7  C   UNL     1      -0.378   8.863   1.731  0.00  0.00    +0.028 A 
ATOM      8  C   UNL     1      -1.177   9.455   2.702  0.00  0.00    +0.012 A 
ATOM      9  C   UNL     1      -2.551   9.446   2.559  0.00  0.00    +0.001 A 
ATOM     10  C   UNL     1      -3.137   8.849   1.456  0.00  0.00    +0.002 A 
ATOM     11  C   UNL     1      -2.354   8.249   0.486  0.00  0.00    +0.024 A 
ATOM     12  C   UNL     1      -0.978   8.246   0.617  0.00  0.00    +0.039 A 
ATOM     13  N   UNL     1      -0.157   7.637  -0.336  0.00  0.00    -0.305 N 
ATOM     14  C   UNL     1       0.571   6.426   0.033  0.00  0.00    +0.296 C 
ATOM     15  O   UNL     1       1.165   6.541   1.322  0.00  0.00    -0.449 OA
ATOM     16  H   UNL     1      -0.072   8.011  -1.227  0.00  0.00    +0.150 HD
ENDROOT
BRANCH  14  17
ATOM     17  C   UNL     1      -0.384   5.261   0.035  0.00  0.00    +0.036 A 
ATOM     18  C   UNL     1      -1.724   5.326   0.048  0.00  0.00    +0.092 A 
ATOM     19  N   UNL     1      -2.254   4.064   0.045  0.00  0.00    -0.360 N 
ATOM     20  H   UNL     1      -3.201   3.858   0.053  0.00  0.00    +0.165 HD
ATOM     21  C   UNL     1      -1.240   3.132   0.031  0.00  0.00    +0.047 A 
ATOM     22  C   UNL     1      -0.025   3.840   0.023  0.00  0.00    +0.008 A 
ATOM     23  C   UNL     1       1.186   3.146   0.008  0.00  0.00    +0.010 A 
ATOM     24  C   UNL     1       1.184   1.779   0.000  0.00  0.00    +0.001 A 
ATOM     25  C   UNL     1      -0.013   1.076   0.008  0.00  0.00    +0.002 A 
ATOM     26  C   UNL     1      -1.219   1.742   0.017  0.00  0.00    +0.026 A 
ENDBRANCH  14  17
BRANCH   1  28
ATOM     27  C   UNL     1       5.737  10.679   2.495  0.00  0.00    +0.093 C 
ATOM     28  S   UNL     1       5.502   8.931   2.088  0.00  0.00    -0.088 S 
ENDBRANCH   1  28
TORSDOF 2
