REMARK  Name = ZINC39623239
REMARK  4 active torsions:
REMARK  status: ('A' for Active; 'I' for Inactive)
REMARK    1  A    between atoms: C_5  and  C_7
REMARK    2  A    between atoms: C_7  and  N_8
REMARK    3  A    between atoms: C_9  and  C_11
REMARK    4  A    between atoms: C_22  and  C_24
REMARK                            x       y       z     vdW  Elec       q    Type
REMARK                         _______ _______ _______ _____ _____    ______ ____
ROOT
ATOM      1  C   UNL     1       1.822  -4.506   2.973  0.00  0.00    +0.100 C 
ATOM      2  C   UNL     1       0.746  -3.986   3.951  0.00  0.00    +0.121 C 
ATOM      3  N   UNL     1      -0.262  -5.071   4.011  0.00  0.00    -0.296 N 
ATOM      4  C   UNL     1       0.539  -6.318   4.005  0.00  0.00    +0.115 C 
ATOM      5  C   UNL     1       1.686  -6.037   3.014  0.00  0.00    -0.004 C 
ATOM      6  C   UNL     1       2.982  -6.670   3.512  0.00  0.00    -0.010 C 
ATOM      7  C   UNL     1       2.842  -8.195   3.488  0.00  0.00    -0.082 C 
ATOM      8  N   UNL     1       2.551  -8.640   2.120  0.00  0.00    +0.379 N 
ATOM      9  C   UNL     1       1.257  -8.101   1.683  0.00  0.00    -0.082 C 
ATOM     10  C   UNL     1       1.330  -6.573   1.630  0.00  0.00    -0.010 C 
ATOM     11  C   UNL     1      -1.603  -4.950   4.060  0.00  0.00    +0.248 C 
ATOM     12  O   UNL     1      -2.120  -3.853   3.960  0.00  0.00    -0.270 OA
ATOM     13  H   UNL     1       3.277  -8.313   1.500  0.00  0.00    -0.086 HD
ATOM     14  H   UNL     1       2.520  -9.648   2.095  0.00  0.00    -0.086 HD
ENDROOT
BRANCH  11  15
ATOM     15  C   UNL     1      -2.442  -6.143   4.234  0.00  0.00    +0.052 A 
ATOM     16  C   UNL     1      -2.027  -7.184   5.002  0.00  0.00    +0.059 A 
ATOM     17  S   UNL     1      -3.265  -8.314   4.928  0.00  0.00    -0.096 S 
ATOM     18  C   UNL     1      -4.403  -7.463   3.869  0.00  0.00    +0.020 A 
ATOM     19  C   UNL     1      -3.753  -6.246   3.589  0.00  0.00    +0.001 A 
ATOM     20  C   UNL     1      -4.426  -5.332   2.756  0.00  0.00    +0.010 A 
ATOM     21  C   UNL     1      -5.667  -5.634   2.254  0.00  0.00    +0.001 A 
ATOM     22  C   UNL     1      -6.288  -6.839   2.549  0.00  0.00    +0.001 A 
ATOM     23  C   UNL     1      -5.647  -7.759   3.355  0.00  0.00    +0.015 A 
ENDBRANCH  11  15
BRANCH   1  25
ATOM     24  N   UNL     1       2.586  -3.776   0.736  0.00  0.00    -0.311 N 
ATOM     25  C   UNL     1       1.558  -3.992   1.581  0.00  0.00    +0.218 C 
ATOM     26  O   UNL     1       0.421  -3.774   1.220  0.00  0.00    -0.275 OA
ATOM     27  H   UNL     1       3.496  -3.951   1.024  0.00  0.00    +0.149 HD
BRANCH  24  28
ATOM     28  C   UNL     1       2.330  -3.277  -0.617  0.00  0.00    +0.141 C 
BRANCH  28  33
ATOM     29  C   UNL     1       5.421  -1.734  -2.139  0.00  0.00    +0.000 A 
ATOM     30  C   UNL     1       6.034  -2.838  -2.700  0.00  0.00    +0.001 A 
ATOM     31  C   UNL     1       5.449  -4.085  -2.587  0.00  0.00    +0.020 A 
ATOM     32  C   UNL     1       4.250  -4.228  -1.913  0.00  0.00    +0.046 A 
ATOM     33  C   UNL     1       3.637  -3.123  -1.351  0.00  0.00    -0.012 A 
ATOM     34  C   UNL     1       4.223  -1.876  -1.465  0.00  0.00    +0.006 A 
ATOM     35 CL   UNL     1       3.514  -5.794  -1.772  0.00  0.00    -0.083 Cl
ENDBRANCH  28  33
ENDBRANCH  24  28
ENDBRANCH   1  25
TORSDOF 4
