REMARK  Name = ZINC14276554
REMARK  10 active torsions:
REMARK  status: ('A' for Active; 'I' for Inactive)
REMARK    1  A    between atoms: C_1  and  C_2
REMARK    2  A    between atoms: C_2  and  C_3
REMARK    3  A    between atoms: C_2  and  C_4
REMARK    4  A    between atoms: C_2  and  C_5
REMARK    5  A    between atoms: C_12  and  N_17
REMARK    6  A    between atoms: C_13  and  C_14
REMARK    7  A    between atoms: N_17  and  C_18
REMARK    8  A    between atoms: C_18  and  N_20
REMARK    9  A    between atoms: C_21  and  C_23
REMARK   10  A    between atoms: C_26  and  C_28
REMARK                            x       y       z     vdW  Elec       q    Type
REMARK                         _______ _______ _______ _____ _____    ______ ____
ROOT
ATOM      1  N   UNL     1      -2.071   5.679   0.043  0.00  0.00    -0.291 N 
ATOM      2  H   UNL     1      -1.190   6.086   0.041  0.00  0.00    +0.154 HD
ENDROOT
BRANCH   1   9
ATOM      3  C   UNL     1      -7.268   9.385  -0.291  0.00  0.00    -0.000 C 
ATOM      4  C   UNL     1      -6.293  10.219   0.545  0.00  0.00    +0.009 C 
ATOM      5  C   UNL     1      -4.858   9.963   0.080  0.00  0.00    +0.037 C 
ATOM      6  C   UNL     1      -4.606   8.461   0.071  0.00  0.00    -0.023 A 
ATOM      7  C   UNL     1      -5.633   7.583   0.071  0.00  0.00    -0.004 A 
ATOM      8  S   UNL     1      -4.865   5.988   0.059  0.00  0.00    -0.077 S 
ATOM      9  C   UNL     1      -3.203   6.477   0.053  0.00  0.00    +0.084 A 
ATOM     10  C   UNL     1      -3.282   7.863   0.067  0.00  0.00    +0.068 A 
ATOM     11  C   UNL     1      -7.096   7.905   0.079  0.00  0.00    +0.046 C 
BRANCH  10  12
ATOM     12  C   UNL     1      -2.073   8.693   0.072  0.00  0.00    +0.244 C 
ATOM     13  O   UNL     1      -1.574   9.048  -0.980  0.00  0.00    -0.270 OA
ATOM     14  N   UNL     1      -1.515   9.062   1.242  0.00  0.00    -0.325 N 
ATOM     15  H   UNL     1      -1.913   8.780   2.080  0.00  0.00    +0.145 HD
ATOM     16  H   UNL     1      -0.715   9.611   1.246  0.00  0.00    +0.145 HD
ENDBRANCH  10  12
BRANCH   3  18
ATOM     17  C   UNL     1      -8.997   9.635   1.495  0.00  0.00    +0.011 C 
ATOM     18  C   UNL     1      -8.703   9.825   0.006  0.00  0.00    -0.035 C 
ATOM     19  C   UNL     1      -8.871  11.300  -0.364  0.00  0.00    +0.011 C 
ATOM     20  C   UNL     1      -9.676   8.978  -0.818  0.00  0.00    +0.011 C 
ENDBRANCH   3  18
ENDBRANCH   1   9
BRANCH   1  21
ATOM     21  C   UNL     1      -2.193   4.337   0.036  0.00  0.00    +0.142 C 
ATOM     22  S   UNL     1      -3.747   3.618   0.040  0.00  0.00    -0.018 S 
BRANCH  21  23
ATOM     23  N   UNL     1      -1.091   3.560   0.027  0.00  0.00    -0.261 N 
ATOM     24  C   UNL     1      -1.213   2.218   0.020  0.00  0.00    +0.285 C 
ATOM     25  O   UNL     1      -2.318   1.707   0.023  0.00  0.00    -0.266 OA
ATOM     26  H   UNL     1      -0.211   3.967   0.025  0.00  0.00    +0.157 HD
BRANCH  24  27
ATOM     27  C   UNL     1      -0.017   1.374   0.010  0.00  0.00    +0.190 A 
ATOM     28  C   UNL     1       0.002  -0.004   0.002  0.00  0.00    +0.055 A 
ATOM     29  C   UNL     1       1.346  -0.389  -0.013  0.00  0.00    +0.050 A 
ATOM     30  C   UNL     1       2.092   0.755  -0.014  0.00  0.00    +0.136 A 
ATOM     31  O   UNL     1       1.261   1.811  -0.000  0.00  0.00    -0.450 OA
BRANCH  30  32
ATOM     32  C   UNL     1       3.567   0.821  -0.027  0.00  0.00    +0.017 A 
ATOM     33  C   UNL     1       4.321  -0.354  -0.034  0.00  0.00    +0.013 A 
ATOM     34  C   UNL     1       5.699  -0.286  -0.052  0.00  0.00    +0.021 A 
ATOM     35  C   UNL     1       6.334   0.945  -0.052  0.00  0.00    +0.041 A 
ATOM     36  C   UNL     1       5.591   2.114  -0.039  0.00  0.00    +0.021 A 
ATOM     37  C   UNL     1       4.214   2.059  -0.027  0.00  0.00    +0.013 A 
ATOM     38 CL   UNL     1       8.068   1.022  -0.067  0.00  0.00    -0.084 Cl
ENDBRANCH  30  32
ENDBRANCH  24  27
ENDBRANCH  21  23
ENDBRANCH   1  21
TORSDOF 7
