REMARK  Name = ZINC32092667
REMARK  5 active torsions:
REMARK  status: ('A' for Active; 'I' for Inactive)
REMARK    1  A    between atoms: C_1  and  C_2
REMARK    2  A    between atoms: C_2  and  C_3
REMARK    3  A    between atoms: C_2  and  C_4
REMARK    4  A    between atoms: C_2  and  N_5
REMARK    5  A    between atoms: N_22  and  C_25
REMARK                            x       y       z     vdW  Elec       q    Type
REMARK                         _______ _______ _______ _____ _____    ______ ____
ROOT
ATOM      1  N   UNL     1       0.688  -0.476  -1.203  0.00  0.00    -0.245 N 
ATOM      2  C   UNL     1       0.889  -1.756  -1.547  0.00  0.00    +0.128 A 
ATOM      3  C   UNL     1       1.576  -1.765  -2.734  0.00  0.00    +0.032 A 
ATOM      4  C   UNL     1       1.782  -0.449  -3.118  0.00  0.00    +0.141 A 
ATOM      5  N   UNL     1       1.246   0.331  -2.208  0.00  0.00    -0.177 NA
ATOM      6  C   UNL     1       1.991  -3.045  -3.405  0.00  0.00    +0.113 C 
ATOM      7  C   UNL     1       1.011  -4.153  -3.027  0.00  0.00    +0.122 C 
ATOM      8  C   UNL     1       0.675  -4.104  -1.562  0.00  0.00    +0.220 C 
ATOM      9  O   UNL     1       0.529  -5.146  -0.958  0.00  0.00    -0.275 OA
ATOM     10  N   UNL     1       0.531  -2.938  -0.898  0.00  0.00    -0.270 N 
ATOM     11  C   UNL     1       3.393  -3.417  -3.041  0.00  0.00    +0.012 A 
ATOM     12  C   UNL     1       4.116  -3.436  -4.240  0.00  0.00    +0.042 A 
ATOM     13  C   UNL     1       5.475  -3.753  -4.236  0.00  0.00    +0.024 A 
ATOM     14  C   UNL     1       6.056  -4.041  -3.010  0.00  0.00    +0.003 A 
ATOM     15  C   UNL     1       5.334  -4.018  -1.835  0.00  0.00    +0.020 A 
ATOM     16  C   UNL     1       3.978  -3.705  -1.825  0.00  0.00    +0.047 A 
ATOM     17 CL   UNL     1       3.064  -3.676  -0.349  0.00  0.00    -0.083 Cl
ATOM     18  N   UNL     1       3.293  -3.111  -5.303  0.00  0.00    -0.273 N 
ATOM     19  C   UNL     1       2.026  -2.865  -4.906  0.00  0.00    +0.235 C 
ATOM     20  O   UNL     1       1.093  -2.558  -5.618  0.00  0.00    -0.274 OA
ATOM     21  C   UNL     1       3.742  -3.043  -6.696  0.00  0.00    +0.138 C 
ATOM     22  H   UNL     1       0.188  -2.922   0.009  0.00  0.00    +0.156 HD
ENDROOT
BRANCH   1  24
ATOM     23  C   UNL     1      -0.019   1.526   0.010  0.00  0.00    +0.036 C 
ATOM     24  C   UNL     1       0.002  -0.004   0.002  0.00  0.00    +0.057 C 
ATOM     25  C   UNL     1       0.742  -0.511   1.242  0.00  0.00    +0.036 C 
ATOM     26  C   UNL     1      -1.433  -0.534   0.013  0.00  0.00    +0.036 C 
ENDBRANCH   1  24
TORSDOF 1
