REMARK  Name = ZINC13549194
REMARK  7 active torsions:
REMARK  status: ('A' for Active; 'I' for Inactive)
REMARK    1  A    between atoms: N_3  and  C_10
REMARK    2  A    between atoms: C_13  and  O_24
REMARK    3  A    between atoms: C_15  and  C_18
REMARK    4  A    between atoms: C_18  and  O_19
REMARK    5  A    between atoms: O_19  and  P_20
REMARK    6  A    between atoms: P_20  and  O_22
REMARK    7  A    between atoms: P_20  and  O_23
REMARK                            x       y       z     vdW  Elec       q    Type
REMARK                         _______ _______ _______ _____ _____    ______ ____
ROOT
ATOM      1  C   UNL     1       5.753   2.645   0.613  0.00  0.00    +0.226 C 
ATOM      2  C   UNL     1       6.198   2.185  -0.794  0.00  0.00    +0.088 C 
ATOM      3  C   UNL     1       4.892   2.186  -1.619  0.00  0.00    +0.150 C 
ATOM      4  C   UNL     1       3.813   2.646  -0.615  0.00  0.00    +0.175 C 
ATOM      5  O   UNL     1       4.350   2.311   0.683  0.00  0.00    -0.348 OA
ENDROOT
BRANCH   1   8
ATOM      6  C   UNL     1       8.044   1.946   3.419  0.00  0.00    +0.088 A 
ATOM      7  C   UNL     1       7.354   2.610   2.467  0.00  0.00    +0.098 A 
ATOM      8  N   UNL     1       6.502   1.924   1.645  0.00  0.00    -0.274 N 
ATOM      9  C   UNL     1       6.341   0.595   1.780  0.00  0.00    +0.331 A 
ATOM     10  O   UNL     1       5.575   0.007   1.042  0.00  0.00    -0.246 OA
ATOM     11  N   UNL     1       7.020  -0.092   2.717  0.00  0.00    -0.275 N 
ATOM     12  H   UNL     1       6.894  -1.081   2.798  0.00  0.00    +0.173 HD
ATOM     13  C   UNL     1       7.869   0.547   3.547  0.00  0.00    +0.254 A 
ATOM     14  O   UNL     1       8.481  -0.074   4.397  0.00  0.00    -0.268 OA
ENDBRANCH   1   8
BRANCH   3  15
ATOM     15  O   UNL     1       4.989   3.107  -2.708  0.00  0.00    -0.389 OA
ATOM     16  H   UNL     1       5.652   2.867  -3.369  0.00  0.00    +0.210 HD
ENDBRANCH   3  15
BRANCH   4  17
ATOM     17  C   UNL     1       2.503   1.895  -0.859  0.00  0.00    +0.204 C 
BRANCH  17  18
ATOM     18  O   UNL     1       1.487   2.417   0.001  0.00  0.00    -0.308 OA
BRANCH  18  19
ATOM     19  P   UNL     1      -0.023   1.859   0.012  0.00  0.00    +0.303 P 
ATOM     20  S   UNL     1       0.002  -0.004   0.002  0.00  0.00    +0.022 S 
BRANCH  19  21
ATOM     21  O   UNL     1      -0.802   2.393  -1.292  0.00  0.00    -0.327 OA
ATOM     22  H   UNL     1      -0.854   3.356  -1.353  0.00  0.00    +0.219 HD
ENDBRANCH  19  21
BRANCH  19  23
ATOM     23  O   UNL     1      -0.777   2.378   1.337  0.00  0.00    -0.327 OA
ATOM     24  H   UNL     1      -1.694   2.080   1.410  0.00  0.00    +0.219 HD
ENDBRANCH  19  23
ENDBRANCH  18  19
ENDBRANCH  17  18
ENDBRANCH   4  17
TORSDOF 7
