REMARK  Name = ZINC22607262
REMARK  4 active torsions:
REMARK  status: ('A' for Active; 'I' for Inactive)
REMARK    1  A    between atoms: C_1  and  C_2
REMARK    2  A    between atoms: C_5  and  C_8
REMARK    3  A    between atoms: C_9  and  C_27
REMARK    4  A    between atoms: C_10  and  N_26
REMARK                            x       y       z     vdW  Elec       q    Type
REMARK                         _______ _______ _______ _____ _____    ______ ____
ROOT
ATOM      1  C   UNL     1       0.393  -5.968   1.472  0.00  0.00    +0.019 A 
ATOM      2  C   UNL     1      -0.245  -6.611   0.393  0.00  0.00    +0.100 A 
ATOM      3  C   UNL     1      -0.746  -5.830  -0.669  0.00  0.00    +0.137 A 
ATOM      4  N   UNL     1      -0.629  -4.515  -0.671  0.00  0.00    -0.211 NA
ATOM      5  C   UNL     1      -0.035  -3.858   0.324  0.00  0.00    +0.171 A 
ATOM      6  C   UNL     1       0.495  -4.567   1.428  0.00  0.00    +0.093 A 
ATOM      7  C   UNL     1       1.141  -3.808   2.501  0.00  0.00    +0.263 A 
ATOM      8  O   UNL     1       1.615  -4.367   3.474  0.00  0.00    -0.267 OA
ATOM      9  N   UNL     1       1.197  -2.462   2.368  0.00  0.00    -0.294 N 
ATOM     10  H   UNL     1       1.681  -1.852   3.145  0.00  0.00    +0.172 HD
ATOM     11  C   UNL     1       0.656  -1.856   1.273  0.00  0.00    +0.200 A 
ATOM     12  N   UNL     1       0.074  -2.517   0.302  0.00  0.00    -0.196 NA
ATOM     13  N   UNL     1       0.729  -0.491   1.181  0.00  0.00    -0.301 N 
ATOM     14  C   UNL     1       0.002  -0.004   0.002  0.00  0.00    +0.108 C 
ATOM     15  C   UNL     1      -0.019   1.526   0.010  0.00  0.00    +0.019 C 
ATOM     16  C   UNL     1       1.420   2.051  -0.001  0.00  0.00    +0.003 C 
ATOM     17  C   UNL     1       2.169   1.490   1.211  0.00  0.00    +0.019 C 
ATOM     18  C   UNL     1       2.126  -0.039   1.168  0.00  0.00    +0.108 C 
ENDROOT
BRANCH   1  23
ATOM     19  C   UNL     1       2.509  -8.970   5.903  0.00  0.00    +0.044 C 
ATOM     20  C   UNL     1       1.955  -8.184   4.742  0.00  0.00    -0.050 A 
ATOM     21  C   UNL     1       2.501  -8.341   3.481  0.00  0.00    +0.004 A 
ATOM     22  C   UNL     1       1.998  -7.625   2.414  0.00  0.00    +0.009 A 
ATOM     23  C   UNL     1       0.937  -6.740   2.610  0.00  0.00    -0.016 A 
ATOM     24  C   UNL     1       0.395  -6.582   3.886  0.00  0.00    +0.009 A 
ATOM     25  C   UNL     1       0.903  -7.308   4.944  0.00  0.00    +0.004 A 
ENDBRANCH   1  23
BRANCH   3  26
ATOM     26  N   UNL     1      -1.372  -6.455  -1.729  0.00  0.00    -0.342 N 
ATOM     27  H   UNL     1      -1.767  -5.857  -2.563  0.00  0.00    +0.144 HD
ATOM     28  H   UNL     1      -1.475  -7.550  -1.739  0.00  0.00    +0.144 HD
ENDBRANCH   3  26
BRANCH   2  29
ATOM     29  C   UNL     1      -0.382  -8.036   0.375  0.00  0.00    +0.103 C 
ATOM     30  N   UNL     1      -0.490  -9.167   0.360  0.00  0.00    -0.191 NA
ENDBRANCH   2  29
TORSDOF 3
