REMARK  Name = ZINC04517111
REMARK  11 active torsions:
REMARK  status: ('A' for Active; 'I' for Inactive)
REMARK    1  A    between atoms: C_1  and  C_2
REMARK    2  A    between atoms: C_2  and  O_3
REMARK    3  A    between atoms: O_3  and  C_4
REMARK    4  A    between atoms: C_4  and  C_6
REMARK    5  A    between atoms: C_7  and  C_28
REMARK    6  A    between atoms: C_19  and  N_27
REMARK    7  A    between atoms: C_20  and  C_21
REMARK    8  A    between atoms: C_21  and  O_23
REMARK    9  A    between atoms: O_23  and  C_24
REMARK   10  A    between atoms: C_24  and  C_25
REMARK   11  A    between atoms: C_24  and  C_26
REMARK                            x       y       z     vdW  Elec       q    Type
REMARK                         _______ _______ _______ _____ _____    ______ ____
ROOT
ATOM      1  C   UNL     1       2.689   0.450  -0.861  0.00  0.00    +0.077 C 
ATOM      2  C   UNL     1       2.757  -0.800  -0.362  0.00  0.00    +0.019 C 
ATOM      3  N   UNL     1       2.630  -0.819   0.996  0.00  0.00    -0.288 N 
ATOM      4  C   UNL     1       2.468   0.417   1.509  0.00  0.00    +0.237 C 
ATOM      5  O   UNL     1       2.330   0.711   2.677  0.00  0.00    -0.274 OA
ATOM      6  C   UNL     1       2.492   1.361   0.329  0.00  0.00    +0.145 C 
ATOM      7  C   UNL     1       3.643   2.316   0.445  0.00  0.00    +0.019 A 
ATOM      8  C   UNL     1       4.872   1.861   0.887  0.00  0.00    +0.009 A 
ATOM      9  C   UNL     1       5.937   2.735   1.002  0.00  0.00    +0.001 A 
ATOM     10  C   UNL     1       5.776   4.069   0.675  0.00  0.00    +0.004 A 
ATOM     11  C   UNL     1       4.552   4.529   0.232  0.00  0.00    +0.046 A 
ATOM     12  C   UNL     1       3.479   3.654   0.116  0.00  0.00    +0.135 A 
ATOM     13  O   UNL     1       2.283   4.120  -0.319  0.00  0.00    -0.441 OA
ATOM     14  C   UNL     1       1.160   3.420  -0.094  0.00  0.00    +0.196 C 
ATOM     15  C   UNL     1       1.191   2.097   0.217  0.00  0.00    +0.117 C 
ATOM     16  C   UNL     1       2.950  -2.033  -1.206  0.00  0.00    +0.061 C 
ATOM     17  H   UNL     1       2.653  -1.628   1.530  0.00  0.00    +0.155 HD
ENDROOT
BRANCH  14  18
ATOM     18  N   UNL     1      -0.049   4.056  -0.178  0.00  0.00    -0.329 N 
ATOM     19  H   UNL     1      -0.133   4.978   0.111  0.00  0.00    +0.145 HD
ATOM     20  H   UNL     1      -0.822   3.585  -0.527  0.00  0.00    +0.145 HD
ENDBRANCH  14  18
BRANCH   1  21
ATOM     21  C   UNL     1       2.783   0.831  -2.221  0.00  0.00    +0.338 C 
ATOM     22  O   UNL     1       2.942  -0.015  -3.080  0.00  0.00    -0.245 OA
BRANCH  21  23
ATOM     23  O   UNL     1       2.695   2.133  -2.564  0.00  0.00    -0.462 OA
BRANCH  23  25
ATOM     24  C   UNL     1       2.677   3.959  -4.147  0.00  0.00    +0.048 C 
ATOM     25  C   UNL     1       2.798   2.446  -3.954  0.00  0.00    +0.229 C 
ENDBRANCH  23  25
ENDBRANCH  21  23
ENDBRANCH   1  21
BRANCH  15  26
ATOM     26  C   UNL     1      -0.012   1.412   0.441  0.00  0.00    +0.342 C 
ATOM     27  O   UNL     1      -1.065   2.024   0.473  0.00  0.00    -0.245 OA
BRANCH  26  28
ATOM     28  O   UNL     1      -0.004   0.073   0.618  0.00  0.00    -0.458 OA
BRANCH  28  29
ATOM     29  C   UNL     1      -1.266  -0.560   0.842  0.00  0.00    +0.171 C 
ATOM     30  C   UNL     1      -1.874  -0.974  -0.500  0.00  0.00    +0.052 C 
ATOM     31  C   UNL     1      -1.066  -1.800   1.715  0.00  0.00    +0.052 C 
ENDBRANCH  28  29
ENDBRANCH  26  28
ENDBRANCH  15  26
TORSDOF 7
