REMARK  Name = ZINC39562204
REMARK  6 active torsions:
REMARK  status: ('A' for Active; 'I' for Inactive)
REMARK    1  A    between atoms: C_1  and  C_2
REMARK    2  A    between atoms: C_3  and  C_29
REMARK    3  A    between atoms: C_7  and  O_11
REMARK    4  A    between atoms: O_11  and  C_12
REMARK    5  A    between atoms: C_12  and  C_13
REMARK    6  A    between atoms: N_18  and  C_19
REMARK                            x       y       z     vdW  Elec       q    Type
REMARK                         _______ _______ _______ _____ _____    ______ ____
ROOT
ATOM      1  C   UNL     1       0.004   2.961   4.305  0.00  0.00    +0.258 C 
ATOM      2  O   UNL     1      -0.015   3.627   3.292  0.00  0.00    -0.272 OA
ATOM      3  N   UNL     1       0.007   3.565   5.510  0.00  0.00    -0.237 N 
ATOM      4  C   UNL     1      -0.010   4.910   5.588  0.00  0.00    +0.306 C 
ATOM      5  O   UNL     1      -0.029   5.578   4.573  0.00  0.00    -0.252 OA
ATOM      6  N   UNL     1      -0.007   5.515   6.793  0.00  0.00    -0.294 N 
ATOM      7  H   UNL     1       0.021   3.032   6.320  0.00  0.00    +0.159 HD
ATOM      8  H   UNL     1       0.008   4.982   7.603  0.00  0.00    +0.151 HD
ENDROOT
BRANCH   6   9
ATOM      9  C   UNL     1      -0.025   6.978   6.878  0.00  0.00    +0.037 C 
ATOM     10  C   UNL     1       1.210   7.545   6.176  0.00  0.00    +0.029 C 
ATOM     11  C   UNL     1       1.190   9.072   6.266  0.00  0.00    -0.008 C 
ATOM     12  C   UNL     1       1.199   9.498   7.735  0.00  0.00    +0.007 C 
ATOM     13  C   UNL     1      -0.037   8.930   8.437  0.00  0.00    -0.008 C 
ATOM     14  C   UNL     1      -0.017   7.403   8.348  0.00  0.00    +0.029 C 
ATOM     15  C   UNL     1      -1.300   9.465   7.759  0.00  0.00    +0.007 C 
ATOM     16  C   UNL     1      -1.308   9.040   6.289  0.00  0.00    -0.008 C 
ATOM     17  C   UNL     1      -0.072   9.607   5.587  0.00  0.00    +0.007 C 
ATOM     18  C   UNL     1      -1.288   7.512   6.200  0.00  0.00    +0.029 C 
ENDBRANCH   6   9
BRANCH   1  19
ATOM     19  C   UNL     1       0.023   1.456   4.217  0.00  0.00    +0.326 C 
BRANCH  19  20
ATOM     20  O   UNL     1       0.015   1.059   2.845  0.00  0.00    -0.466 OA
BRANCH  20  27
ATOM     21  C   UNL     1      -0.018   1.503   0.010  0.00  0.00    +0.045 C 
ATOM     22  C   UNL     1       0.002  -0.004   0.002  0.00  0.00    -0.026 A 
ATOM     23  C   UNL     1       0.006  -0.676  -1.159  0.00  0.00    -0.008 A 
ATOM     24  S   UNL     1       0.031  -2.385  -0.651  0.00  0.00    -0.073 S 
ATOM     25  C   UNL     1       0.036  -2.151   1.107  0.00  0.00    +0.116 A 
ATOM     26  C   UNL     1       0.024  -0.746   1.251  0.00  0.00    +0.072 A 
ATOM     27  C   UNL     1       0.030  -0.271   2.589  0.00  0.00    +0.227 A 
ATOM     28  N   UNL     1       0.051  -1.142   3.582  0.00  0.00    -0.201 NA
ATOM     29  C   UNL     1       0.067  -2.447   3.374  0.00  0.00    +0.226 A 
ATOM     30  N   UNL     1       0.051  -2.949   2.155  0.00  0.00    -0.228 NA
ATOM     31  C   UNL     1      -0.009  -0.119  -2.559  0.00  0.00    +0.052 C 
ENDBRANCH  20  27
ENDBRANCH  19  20
ENDBRANCH   1  19
TORSDOF 4
