REMARK  Name = ZINC05340043
REMARK  7 active torsions:
REMARK  status: ('A' for Active; 'I' for Inactive)
REMARK    1  A    between atoms: C_1  and  C_2
REMARK    2  A    between atoms: C_2  and  C_4
REMARK    3  A    between atoms: C_2  and  O_28
REMARK    4  A    between atoms: C_4  and  C_5
REMARK    5  A    between atoms: C_8  and  O_26
REMARK    6  A    between atoms: N_22  and  C_24
REMARK    7  A    between atoms: O_26  and  C_27
REMARK                            x       y       z     vdW  Elec       q    Type
REMARK                         _______ _______ _______ _____ _____    ______ ____
ROOT
ATOM      1  C   UNL     1       5.777   1.373  -1.806  0.00  0.00    +0.012 C 
ATOM      2  C   UNL     1       5.490   2.730  -1.125  0.00  0.00    +0.043 C 
ATOM      3  C   UNL     1       5.008   2.598   0.324  0.00  0.00    +0.165 C 
ATOM      4  C   UNL     1       3.492   2.566   0.393  0.00  0.00    +0.049 A 
ATOM      5  C   UNL     1       2.741   1.461   0.390  0.00  0.00    -0.015 A 
ATOM      6  C   UNL     1       1.342   1.873   0.552  0.00  0.00    +0.003 A 
ATOM      7  C   UNL     1       0.130   1.186   0.636  0.00  0.00    +0.010 A 
ATOM      8  C   UNL     1      -1.033   1.884   0.800  0.00  0.00    +0.001 A 
ATOM      9  C   UNL     1      -1.019   3.270   0.873  0.00  0.00    +0.002 A 
ATOM     10  C   UNL     1       0.167   3.967   0.790  0.00  0.00    +0.026 A 
ATOM     11  C   UNL     1       1.363   3.276   0.627  0.00  0.00    +0.047 A 
ATOM     12  N   UNL     1       2.680   3.655   0.513  0.00  0.00    -0.356 N 
ATOM     13  H   UNL     1       2.983   4.581   0.519  0.00  0.00    +0.166 HD
ATOM     14  C   UNL     1       3.206   0.039   0.237  0.00  0.00    +0.057 C 
ATOM     15  C   UNL     1       2.998  -0.409  -1.216  0.00  0.00    +0.121 C 
ATOM     16  N   UNL     1       3.331   0.680  -2.135  0.00  0.00    -0.269 N 
ATOM     17  C   UNL     1       4.637   0.910  -2.679  0.00  0.00    +0.120 C 
ENDROOT
BRANCH  16  18
ATOM     18  C   UNL     1       2.325   1.491  -2.569  0.00  0.00    +0.169 C 
ATOM     19  N   UNL     1       1.486   2.167  -2.931  0.00  0.00    -0.174 NA
ENDBRANCH  16  18
BRANCH   3  20
ATOM     20  O   UNL     1       5.591   1.615   1.130  0.00  0.00    -0.374 OA
ATOM     21  C   UNL     1       5.861   2.045   2.466  0.00  0.00    +0.194 C 
ENDBRANCH   3  20
BRANCH   1  22
ATOM     22  C   UNL     1       6.368   0.274  -0.960  0.00  0.00    +0.036 C 
BRANCH  22  24
ATOM     23  C   UNL     1       8.308  -0.366   0.478  0.00  0.00    +0.037 C 
ATOM     24  C   UNL     1       7.764   0.687  -0.489  0.00  0.00    +0.112 C 
BRANCH  24  25
ATOM     25  O   UNL     1       8.634   0.794  -1.617  0.00  0.00    -0.392 OA
ATOM     26  H   UNL     1       9.539   1.054  -1.392  0.00  0.00    +0.210 HD
ENDBRANCH  24  25
ENDBRANCH  22  24
ENDBRANCH   1  22
TORSDOF 5
