REMARK  Name = ZINC61706118
REMARK  7 active torsions:
REMARK  status: ('A' for Active; 'I' for Inactive)
REMARK    1  A    between atoms: C_1  and  C_2
REMARK    2  A    between atoms: C_2  and  C_3
REMARK    3  A    between atoms: C_3  and  C_5
REMARK    4  A    between atoms: C_3  and  C_6
REMARK    5  A    between atoms: C_6  and  C_8
REMARK    6  A    between atoms: C_6  and  N_17
REMARK    7  A    between atoms: C_13  and  O_16
REMARK                            x       y       z     vdW  Elec       q    Type
REMARK                         _______ _______ _______ _____ _____    ______ ____
ROOT
ATOM      1  C   UNL     1       0.715  -2.042  -1.518  0.00  0.00    +0.163 C 
ENDROOT
BRANCH   1   2
ATOM      2  C   UNL     1       1.849  -2.467  -2.415  0.00  0.00    +0.236 C 
ATOM      3  O   UNL     1       1.631  -2.752  -3.574  0.00  0.00    -0.274 OA
ATOM      4  N   UNL     1       3.104  -2.530  -1.930  0.00  0.00    -0.297 N 
ATOM      5  C   UNL     1       3.506  -2.220  -0.550  0.00  0.00    +0.110 C 
ATOM      6  C   UNL     1       5.028  -2.458  -0.452  0.00  0.00    +0.052 C 
ATOM      7  C   UNL     1       5.304  -3.432  -1.628  0.00  0.00    +0.133 C 
ATOM      8  C   UNL     1       4.301  -2.928  -2.693  0.00  0.00    +0.139 C 
BRANCH   7   9
ATOM      9  O   UNL     1       6.651  -3.308  -2.089  0.00  0.00    -0.390 OA
ATOM     10  H   UNL     1       7.316  -3.523  -1.422  0.00  0.00    +0.210 HD
ENDBRANCH   7   9
ENDBRANCH   1   2
BRANCH   1  11
ATOM     11  N   UNL     1      -0.556  -2.495  -2.089  0.00  0.00    -0.288 N 
ATOM     12  C   UNL     1      -1.000  -3.743  -1.839  0.00  0.00    +0.298 C 
ATOM     13  O   UNL     1      -0.304  -4.523  -1.217  0.00  0.00    -0.253 OA
ATOM     14  N   UNL     1      -2.215  -4.127  -2.278  0.00  0.00    -0.313 N 
ATOM     15  H   UNL     1      -1.078  -1.898  -2.647  0.00  0.00    +0.151 HD
ATOM     16  H   UNL     1      -2.770  -3.505  -2.775  0.00  0.00    +0.146 HD
ATOM     17  H   UNL     1      -2.535  -5.024  -2.098  0.00  0.00    +0.146 HD
ENDBRANCH   1  11
BRANCH   1  18
ATOM     18  C   UNL     1       0.704  -0.517  -1.397  0.00  0.00    +0.015 C 
ATOM     19  C   UNL     1       0.495   0.103  -2.780  0.00  0.00    +0.010 C 
BRANCH  18  21
ATOM     20  C   UNL     1      -0.368   1.426  -0.249  0.00  0.00    +0.004 C 
ATOM     21  C   UNL     1      -0.434  -0.087  -0.469  0.00  0.00    +0.002 C 
ENDBRANCH  18  21
ENDBRANCH   1  18
TORSDOF 5
