REMARK  Name = ZINC24959476
REMARK  6 active torsions:
REMARK  status: ('A' for Active; 'I' for Inactive)
REMARK    1  A    between atoms: C_1  and  C_2
REMARK    2  A    between atoms: C_2  and  C_4
REMARK    3  A    between atoms: C_2  and  S_14
REMARK    4  A    between atoms: N_10  and  C_11
REMARK    5  A    between atoms: N_10  and  C_12
REMARK    6  A    between atoms: S_14  and  C_15
REMARK                            x       y       z     vdW  Elec       q    Type
REMARK                         _______ _______ _______ _____ _____    ______ ____
ROOT
ATOM      1  C   UNL     1      -0.860   3.254   0.994  0.00  0.00    +0.149 A 
ATOM      2  N   UNL     1      -1.681   3.779   0.101  0.00  0.00    -0.198 NA
ATOM      3  C   UNL     1      -1.749   5.100  -0.048  0.00  0.00    +0.217 A 
ATOM      4  N   UNL     1      -0.983   5.891   0.696  0.00  0.00    -0.181 NA
ATOM      5  C   UNL     1      -0.156   5.359   1.589  0.00  0.00    +0.222 A 
ATOM      6  N   UNL     1      -0.097   4.038   1.736  0.00  0.00    -0.198 NA
ATOM      7  N   UNL     1       0.642   6.176   2.364  0.00  0.00    -0.306 N 
ATOM      8  C   UNL     1       1.553   5.590   3.349  0.00  0.00    +0.132 C 
ATOM      9  C   UNL     1       0.576   7.631   2.202  0.00  0.00    +0.132 C 
ATOM     10  N   UNL     1      -2.610   5.647  -0.977  0.00  0.00    -0.327 N 
ATOM     11  H   UNL     1      -2.665   6.739  -1.100  0.00  0.00    +0.145 HD
ATOM     12  H   UNL     1      -3.241   4.992  -1.596  0.00  0.00    +0.145 HD
ENDROOT
BRANCH   1  14
ATOM     13  C   UNL     1      -0.023   1.148  -0.012  0.00  0.00    +0.027 C 
ATOM     14  C   UNL     1      -0.791   1.758   1.163  0.00  0.00    +0.111 C 
BRANCH  14  15
ATOM     15  S   UNL     1      -2.471   1.076   1.208  0.00  0.00    -0.146 S 
BRANCH  15  16
ATOM     16  C   UNL     1      -3.168   1.729   2.750  0.00  0.00    +0.047 C 
ATOM     17  C   UNL     1      -2.469   1.080   3.963  0.00  0.00    +0.014 C 
ATOM     18  C   UNL     1      -3.604   0.900   5.002  0.00  0.00    +0.001 C 
ATOM     19  C   UNL     1      -4.815   0.500   4.122  0.00  0.00    +0.001 C 
ATOM     20  C   UNL     1      -4.659   1.361   2.852  0.00  0.00    +0.014 C 
ENDBRANCH  15  16
ENDBRANCH  14  15
ENDBRANCH   1  14
TORSDOF 3
