REMARK  Name = ZINC37323791
REMARK  6 active torsions:
REMARK  status: ('A' for Active; 'I' for Inactive)
REMARK    1  A    between atoms: C_1  and  O_2
REMARK    2  A    between atoms: O_2  and  C_3
REMARK    3  A    between atoms: C_5  and  C_12
REMARK    4  A    between atoms: C_6  and  N_11
REMARK    5  A    between atoms: C_8  and  O_9
REMARK    6  A    between atoms: O_9  and  C_10
REMARK                            x       y       z     vdW  Elec       q    Type
REMARK                         _______ _______ _______ _____ _____    ______ ____
ROOT
ATOM      1  C   UNL     1       0.669  -0.626   1.015  0.00  0.00    +0.162 A 
ATOM      2  C   UNL     1       1.029   0.120   2.121  0.00  0.00    +0.062 A 
ATOM      3  C   UNL     1       1.625  -0.504   3.218  0.00  0.00    +0.044 A 
ATOM      4  C   UNL     1       1.855  -1.887   3.192  0.00  0.00    +0.039 A 
ATOM      5  C   UNL     1       1.490  -2.626   2.078  0.00  0.00    +0.072 A 
ATOM      6  C   UNL     1       0.895  -2.001   0.994  0.00  0.00    +0.163 A 
ENDROOT
BRANCH   3   7
ATOM      7  C   UNL     1       2.011   0.290   4.402  0.00  0.00    +0.166 A 
ATOM      8  N   UNL     1       1.761  -0.005   5.662  0.00  0.00    -0.129 NA
ATOM      9  N   UNL     1       2.251   0.906   6.428  0.00  0.00    -0.134 NA
ATOM     10  C   UNL     1       2.838   1.822   5.711  0.00  0.00    +0.134 A 
ATOM     11  N   UNL     1       2.702   1.467   4.403  0.00  0.00    -0.311 N 
ATOM     12  C   UNL     1       3.186   2.214   3.243  0.00  0.00    +0.125 C 
ATOM     13  C   UNL     1       4.420   3.029   3.643  0.00  0.00    +0.022 C 
ATOM     14  C   UNL     1       3.986   4.402   4.154  0.00  0.00    +0.002 C 
ATOM     15  C   UNL     1       3.107   4.260   5.393  0.00  0.00    +0.008 C 
ATOM     16  C   UNL     1       3.553   3.051   6.210  0.00  0.00    +0.076 C 
ENDBRANCH   3   7
BRANCH   4  17
ATOM     17  N   UNL     1       2.451  -2.517   4.286  0.00  0.00    -0.357 N 
ATOM     18  H   UNL     1       2.788  -1.988   5.026  0.00  0.00    +0.142 HD
ATOM     19  H   UNL     1       2.527  -3.484   4.306  0.00  0.00    +0.142 HD
ENDBRANCH   4  17
BRANCH   1  21
ATOM     20  C   UNL     1      -0.114   1.395   0.033  0.00  0.00    +0.277 C 
ATOM     21  O   UNL     1       0.088  -0.017  -0.055  0.00  0.00    -0.491 OA
ENDBRANCH   1  21
BRANCH   6  22
ATOM     22  O   UNL     1       0.534  -2.730  -0.094  0.00  0.00    -0.491 OA
ATOM     23  C   UNL     1       0.793  -4.135  -0.049  0.00  0.00    +0.277 C 
ENDBRANCH   6  22
TORSDOF 4
