REMARK  Name = ZINC35455839
REMARK  13 active torsions:
REMARK  status: ('A' for Active; 'I' for Inactive)
REMARK    1  A    between atoms: C_1  and  C_2
REMARK    2  A    between atoms: C_2  and  C_3
REMARK    3  A    between atoms: C_3  and  C_5
REMARK    4  A    between atoms: C_3  and  C_6
REMARK    5  A    between atoms: C_6  and  C_8
REMARK    6  A    between atoms: C_6  and  O_29
REMARK    7  A    between atoms: C_8  and  C_9
REMARK    8  A    between atoms: C_8  and  C_10
REMARK    9  A    between atoms: C_8  and  O_28
REMARK   10  A    between atoms: C_11  and  C_12
REMARK   11  A    between atoms: C_18  and  C_26
REMARK   12  A    between atoms: C_18  and  O_27
REMARK   13  A    between atoms: C_19  and  O_25
REMARK                            x       y       z     vdW  Elec       q    Type
REMARK                         _______ _______ _______ _____ _____    ______ ____
ROOT
ATOM      1  C   UNL     1       0.440  -6.255  -3.267  0.00  0.00    +0.121 C 
ATOM      2  C   UNL     1      -0.178  -6.945  -4.288  0.00  0.00    +0.049 C 
ATOM      3  C   UNL     1      -0.271  -8.340  -4.234  0.00  0.00    -0.032 C 
ATOM      4  C   UNL     1      -0.913  -9.033  -5.234  0.00  0.00    +0.053 C 
ATOM      5  C   UNL     1      -1.049 -10.419  -5.186  0.00  0.00    +0.190 C 
ATOM      6  O   UNL     1      -1.618 -10.997  -6.093  0.00  0.00    -0.290 OA
ATOM      7  C   UNL     1      -0.500 -11.210  -4.028  0.00  0.00    +0.151 C 
ATOM      8  C   UNL     1      -0.486 -10.330  -2.774  0.00  0.00    +0.164 C 
ATOM      9  C   UNL     1       0.338  -9.075  -3.065  0.00  0.00    +0.088 C 
ATOM     10  C   UNL     1       0.326  -8.150  -1.844  0.00  0.00    +0.239 C 
ATOM     11  O   UNL     1       0.959  -6.915  -2.206  0.00  0.00    -0.491 OA
ATOM     12  C   UNL     1      -1.384 -12.435  -3.783  0.00  0.00    +0.052 C 
ENDROOT
BRANCH   1  14
ATOM     13  C   UNL     1       1.144  -4.122  -2.354  0.00  0.00    +0.013 C 
ATOM     14  C   UNL     1       0.542  -4.795  -3.335  0.00  0.00    +0.044 C 
BRANCH  13  15
ATOM     15  C   UNL     1       1.249  -2.620  -2.424  0.00  0.00    +0.108 C 
ATOM     16  C   UNL     1       2.723  -2.210  -2.413  0.00  0.00    +0.048 C 
BRANCH  15  17
ATOM     17  O   UNL     1       0.633  -2.155  -3.627  0.00  0.00    -0.382 OA
ATOM     18  H   UNL     1      -0.304  -2.380  -3.701  0.00  0.00    +0.211 HD
ENDBRANCH  15  17
BRANCH  15  19
ATOM     19  C   UNL     1       0.539  -2.002  -1.217  0.00  0.00    +0.152 C 
BRANCH  19  20
ATOM     20  C   UNL     1       0.779  -0.491  -1.202  0.00  0.00    +0.017 C 
ATOM     21  C   UNL     1       0.211   0.103   0.088  0.00  0.00    +0.010 C 
BRANCH  20  23
ATOM     22  C   UNL     1       0.377   1.648  -2.429  0.00  0.00    +0.004 C 
ATOM     23  C   UNL     1       0.084   0.147  -2.407  0.00  0.00    +0.002 C 
ENDBRANCH  20  23
ENDBRANCH  19  20
BRANCH  19  24
ATOM     24  O   UNL     1       1.056  -2.578  -0.015  0.00  0.00    -0.388 OA
ATOM     25  H   UNL     1       2.005  -2.441   0.111  0.00  0.00    +0.210 HD
ENDBRANCH  19  24
ENDBRANCH  15  19
ENDBRANCH  13  15
ENDBRANCH   1  14
BRANCH   8  26
ATOM     26  O   UNL     1      -1.824  -9.960  -2.433  0.00  0.00    -0.388 OA
ATOM     27  H   UNL     1      -2.404 -10.711  -2.247  0.00  0.00    +0.210 HD
ENDBRANCH   8  26
BRANCH   7  28
ATOM     28  O   UNL     1       0.831 -11.635  -4.328  0.00  0.00    -0.378 OA
ATOM     29  H   UNL     1       0.898 -12.195  -5.114  0.00  0.00    +0.211 HD
ENDBRANCH   7  28
TORSDOF 9
