REMARK  Name = ZINC03830286
REMARK  8 active torsions:
REMARK  status: ('A' for Active; 'I' for Inactive)
REMARK    1  A    between atoms: C_1  and  C_2
REMARK    2  A    between atoms: C_17  and  C_32
REMARK    3  A    between atoms: C_19  and  O_30
REMARK    4  A    between atoms: C_22  and  C_29
REMARK    5  A    between atoms: C_23  and  C_24
REMARK    6  A    between atoms: C_23  and  O_28
REMARK    7  A    between atoms: C_24  and  C_26
REMARK    8  A    between atoms: C_26  and  O_27
REMARK                            x       y       z     vdW  Elec       q    Type
REMARK                         _______ _______ _______ _____ _____    ______ ____
ROOT
ATOM      1  C   UNL     1       0.019   1.581   0.084  0.00  0.00    +0.011 C 
ATOM      2  C   UNL     1      -0.005   0.052   0.032  0.00  0.00    +0.026 C 
ATOM      3  C   UNL     1       0.724  -0.443  -1.241  0.00  0.00    +0.011 C 
ATOM      4  C   UNL     1       2.095  -0.920  -0.740  0.00  0.00    +0.005 C 
ATOM      5  C   UNL     1       2.818  -1.869  -1.649  0.00  0.00    +0.034 C 
ATOM      6  C   UNL     1       3.167  -1.282  -3.015  0.00  0.00    +0.011 C 
ATOM      7  C   UNL     1       1.896  -0.910  -3.768  0.00  0.00    +0.032 C 
ATOM      8  C   UNL     1       0.861  -1.994  -3.671  0.00  0.00    -0.053 C 
ATOM      9  C   UNL     1      -0.220  -1.877  -4.476  0.00  0.00    +0.051 C 
ATOM     10  C   UNL     1      -1.252  -2.939  -4.350  0.00  0.00    +0.179 C 
ATOM     11  O   UNL     1      -1.877  -3.361  -5.306  0.00  0.00    -0.288 OA
ATOM     12  C   UNL     1      -1.468  -3.443  -2.968  0.00  0.00    +0.047 C 
ATOM     13  C   UNL     1      -0.367  -3.557  -2.192  0.00  0.00    -0.009 C 
ATOM     14  C   UNL     1       0.960  -3.181  -2.772  0.00  0.00    +0.044 C 
ATOM     15  C   UNL     1       2.125  -3.212  -1.831  0.00  0.00    +0.153 C 
ATOM     16  C   UNL     1       1.845  -3.822  -0.465  0.00  0.00    +0.154 C 
ATOM     17  C   UNL     1       1.034  -2.880   0.415  0.00  0.00    +0.044 C 
ATOM     18  C   UNL     1       1.762  -1.554   0.633  0.00  0.00    +0.010 C 
ATOM     19  C   UNL     1       0.767  -0.529   1.231  0.00  0.00    +0.134 C 
ATOM     20  C   UNL     1       3.009  -1.708   1.506  0.00  0.00    +0.015 C 
ATOM     21  F   UNL     1       3.086  -4.057  -2.444  0.00  0.00    -0.238 F 
ATOM     22  C   UNL     1       1.280  -4.338  -3.739  0.00  0.00    +0.023 C 
ENDROOT
BRANCH  19  23
ATOM     23  C   UNL     1      -0.181  -1.167   2.208  0.00  0.00    +0.190 C 
ATOM     24  O   UNL     1      -1.232  -1.619   1.823  0.00  0.00    -0.292 OA
BRANCH  23  25
ATOM     25  C   UNL     1       0.181  -1.243   3.669  0.00  0.00    +0.233 C 
BRANCH  25  26
ATOM     26  O   UNL     1      -0.872  -1.888   4.388  0.00  0.00    -0.387 OA
ATOM     27  H   UNL     1      -0.706  -1.972   5.337  0.00  0.00    +0.210 HD
ENDBRANCH  25  26
ENDBRANCH  23  25
ENDBRANCH  19  23
BRANCH  19  28
ATOM     28  O   UNL     1       1.494   0.521   1.885  0.00  0.00    -0.380 OA
ATOM     29  H   UNL     1       0.934   1.224   2.242  0.00  0.00    +0.211 HD
ENDBRANCH  19  28
BRANCH  16  30
ATOM     30  O   UNL     1       1.199  -5.089  -0.581  0.00  0.00    -0.389 OA
ATOM     31  H   UNL     1       1.004  -5.510   0.267  0.00  0.00    +0.210 HD
ENDBRANCH  16  30
TORSDOF 5
