REMARK  Name = ZINC44164862
REMARK  13 active torsions:
REMARK  status: ('A' for Active; 'I' for Inactive)
REMARK    1  A    between atoms: C_1  and  C_2
REMARK    2  A    between atoms: C_2  and  C_3
REMARK    3  A    between atoms: C_2  and  O_4
REMARK    4  A    between atoms: O_4  and  C_5
REMARK    5  A    between atoms: C_5  and  C_6
REMARK    6  A    between atoms: C_6  and  C_7
REMARK    7  A    between atoms: C_7  and  N_8
REMARK    8  A    between atoms: C_9  and  C_11
REMARK    9  A    between atoms: C_16  and  C_19
REMARK   10  A    between atoms: C_25  and  C_31
REMARK   11  A    between atoms: C_25  and  C_32
REMARK   12  A    between atoms: C_28  and  C_29
REMARK   13  A    between atoms: C_28  and  C_30
REMARK                            x       y       z     vdW  Elec       q    Type
REMARK                         _______ _______ _______ _____ _____    ______ ____
ROOT
ATOM      1  C   UNL     1       6.703  -2.515  -4.784  0.00  0.00    +0.027 C 
ATOM      2  C   UNL     1       6.060  -3.851  -5.175  0.00  0.00    +0.062 C 
ATOM      3  S   UNL     1       6.756  -4.375  -6.773  0.00  0.00    -0.163 S 
ATOM      4  C   UNL     1       8.548  -4.211  -6.499  0.00  0.00    +0.058 C 
ATOM      5  C   UNL     1       8.819  -2.821  -5.911  0.00  0.00    -0.030 C 
ATOM      6  N   UNL     1       8.147  -2.691  -4.616  0.00  0.00    +0.392 N 
ATOM      7  H   UNL     1       8.523  -1.892  -4.128  0.00  0.00    -0.084 HD
ATOM      8  H   UNL     1       8.318  -3.521  -4.069  0.00  0.00    -0.084 HD
ENDROOT
BRANCH   5   9
ATOM      9  C   UNL     1      10.303  -2.638  -5.724  0.00  0.00    -0.060 A 
ATOM     10  C   UNL     1      10.939  -3.193  -4.629  0.00  0.00    +0.002 A 
ATOM     11  C   UNL     1      12.297  -3.018  -4.463  0.00  0.00    +0.004 A 
ATOM     12  C   UNL     1      13.033  -2.290  -5.389  0.00  0.00    -0.038 A 
ATOM     13  C   UNL     1      12.401  -1.741  -6.482  0.00  0.00    -0.038 A 
ATOM     14  C   UNL     1      11.034  -1.920  -6.648  0.00  0.00    +0.006 A 
ATOM     15  C   UNL     1      13.139  -0.953  -7.533  0.00  0.00    -0.010 C 
ATOM     16  C   UNL     1      14.496  -0.493  -7.006  0.00  0.00    +0.012 C 
ATOM     17  C   UNL     1      15.226  -1.708  -6.423  0.00  0.00    +0.012 C 
ATOM     18  C   UNL     1      14.510  -2.132  -5.142  0.00  0.00    -0.010 C 
ATOM     19  C   UNL     1      14.731  -1.067  -4.065  0.00  0.00    +0.016 C 
ATOM     20  C   UNL     1      15.086  -3.464  -4.658  0.00  0.00    +0.016 C 
ATOM     21  C   UNL     1      13.348  -1.833  -8.768  0.00  0.00    +0.016 C 
ATOM     22  C   UNL     1      12.307   0.271  -7.922  0.00  0.00    +0.016 C 
ENDBRANCH   5   9
BRANCH   1  24
ATOM     23  N   UNL     1       4.779  -1.794  -3.407  0.00  0.00    -0.317 N 
ATOM     24  C   UNL     1       6.104  -2.030  -3.490  0.00  0.00    +0.200 C 
ATOM     25  O   UNL     1       6.813  -1.851  -2.522  0.00  0.00    -0.278 OA
ATOM     26  H   UNL     1       4.212  -1.936  -4.181  0.00  0.00    +0.149 HD
BRANCH  23  27
ATOM     27  C   UNL     1       4.197  -1.321  -2.149  0.00  0.00    +0.106 C 
BRANCH  27  28
ATOM     28  C   UNL     1       2.688  -1.133  -2.324  0.00  0.00    +0.047 C 
BRANCH  28  29
ATOM     29  C   UNL     1       2.080  -0.640  -1.010  0.00  0.00    +0.161 C 
BRANCH  29  30
ATOM     30  O   UNL     1       0.671  -0.465  -1.174  0.00  0.00    -0.377 OA
BRANCH  30  32
ATOM     31  C   UNL     1      -0.019   1.526   0.010  0.00  0.00    +0.037 C 
ATOM     32  C   UNL     1       0.002  -0.004   0.002  0.00  0.00    +0.112 C 
ATOM     33  C   UNL     1      -1.433  -0.534   0.013  0.00  0.00    +0.037 C 
ENDBRANCH  30  32
ENDBRANCH  29  30
ENDBRANCH  28  29
ENDBRANCH  27  28
ENDBRANCH  23  27
ENDBRANCH   1  24
TORSDOF 7
