REMARK  Name = ZINC67000535
REMARK  8 active torsions:
REMARK  status: ('A' for Active; 'I' for Inactive)
REMARK    1  A    between atoms: C_1  and  C_2
REMARK    2  A    between atoms: C_2  and  N_3
REMARK    3  A    between atoms: C_4  and  C_6
REMARK    4  A    between atoms: C_9  and  N_12
REMARK    5  A    between atoms: C_13  and  C_15
REMARK    6  A    between atoms: N_17  and  C_18
REMARK    7  A    between atoms: C_18  and  C_19
REMARK    8  A    between atoms: C_19  and  O_29
REMARK                            x       y       z     vdW  Elec       q    Type
REMARK                         _______ _______ _______ _____ _____    ______ ____
ROOT
ATOM      1  C   UNL     1       4.206  -5.496   7.508  0.00  0.00    +0.299 C 
ATOM      2  O   UNL     1       4.705  -4.702   8.279  0.00  0.00    -0.265 OA
ATOM      3  N   UNL     1       4.269  -6.817   7.768  0.00  0.00    -0.305 N 
ATOM      4  H   UNL     1       3.871  -7.452   7.153  0.00  0.00    +0.149 HD
ENDROOT
BRANCH   1   6
ATOM      5  N   UNL     1       3.459  -3.689   6.013  0.00  0.00    -0.278 N 
ATOM      6  C   UNL     1       3.522  -5.010   6.273  0.00  0.00    +0.303 C 
ATOM      7  O   UNL     1       3.024  -5.804   5.503  0.00  0.00    -0.265 OA
ATOM      8  H   UNL     1       3.921  -3.059   6.588  0.00  0.00    +0.155 HD
BRANCH   5  12
ATOM      9  C   UNL     1       1.282  -2.312   2.742  0.00  0.00    +0.037 A 
ATOM     10  C   UNL     1       0.855  -3.445   3.440  0.00  0.00    +0.015 A 
ATOM     11  C   UNL     1       1.578  -3.898   4.521  0.00  0.00    +0.024 A 
ATOM     12  C   UNL     1       2.731  -3.228   4.919  0.00  0.00    +0.034 A 
ATOM     13  C   UNL     1       3.158  -2.099   4.226  0.00  0.00    +0.024 A 
ATOM     14  C   UNL     1       2.443  -1.645   3.140  0.00  0.00    +0.015 A 
BRANCH   9  16
ATOM     15  N   UNL     1      -0.611  -2.468   1.199  0.00  0.00    -0.312 N 
ATOM     16  C   UNL     1       0.510  -1.824   1.582  0.00  0.00    +0.244 C 
ATOM     17  O   UNL     1       0.884  -0.841   0.973  0.00  0.00    -0.270 OA
ATOM     18  H   UNL     1      -0.909  -3.252   1.685  0.00  0.00    +0.149 HD
BRANCH  15  20
ATOM     19  C   UNL     1      -2.592  -2.886  -0.172  0.00  0.00    +0.024 C 
ATOM     20  C   UNL     1      -1.377  -1.984   0.048  0.00  0.00    +0.101 C 
ENDBRANCH  15  20
ENDBRANCH   9  16
ENDBRANCH   5  12
ENDBRANCH   1   6
BRANCH   3  21
ATOM     21  C   UNL     1       4.940  -7.294   8.980  0.00  0.00    +0.144 C 
BRANCH  21  22
ATOM     22  C   UNL     1       4.993  -8.823   8.966  0.00  0.00    +0.107 C 
ATOM     23  C   UNL     1       5.695  -9.290   7.692  0.00  0.00    +0.041 C 
ATOM     24  C   UNL     1       5.932 -10.802   7.798  0.00  0.00    +0.008 C 
ATOM     25  C   UNL     1       7.001 -11.048   8.861  0.00  0.00    +0.035 C 
ATOM     26  C   UNL     1       6.652 -10.330  10.138  0.00  0.00    -0.041 A 
ATOM     27  C   UNL     1       5.733  -9.306  10.186  0.00  0.00    -0.011 A 
ATOM     28  C   UNL     1       5.462  -8.681  11.396  0.00  0.00    +0.007 A 
ATOM     29  C   UNL     1       6.103  -9.081  12.551  0.00  0.00    +0.000 A 
ATOM     30  C   UNL     1       7.022 -10.111  12.503  0.00  0.00    +0.000 A 
ATOM     31  C   UNL     1       7.295 -10.732  11.302  0.00  0.00    +0.004 A 
BRANCH  22  32
ATOM     32  O   UNL     1       3.662  -9.341   8.986  0.00  0.00    -0.382 OA
ATOM     33  H   UNL     1       3.150  -9.079   9.764  0.00  0.00    +0.211 HD
ENDBRANCH  22  32
ENDBRANCH  21  22
ENDBRANCH   3  21
TORSDOF 7
