REMARK  Name = ZINC44245478
REMARK  8 active torsions:
REMARK  status: ('A' for Active; 'I' for Inactive)
REMARK    1  A    between atoms: C_1  and  C_2
REMARK    2  A    between atoms: C_2  and  C_4
REMARK    3  A    between atoms: C_2  and  N_7
REMARK    4  A    between atoms: N_7  and  S_8
REMARK    5  A    between atoms: S_8  and  C_11
REMARK    6  A    between atoms: C_13  and  C_17
REMARK    7  A    between atoms: C_18  and  C_19
REMARK    8  A    between atoms: C_19  and  O_20
REMARK                            x       y       z     vdW  Elec       q    Type
REMARK                         _______ _______ _______ _____ _____    ______ ____
ROOT
ATOM      1  S   UNL     1      -2.092  -0.923   1.446  0.00  0.00    +0.061 S 
ATOM      2  O   UNL     1      -3.411  -1.347   1.131  0.00  0.00    -0.153 OA
ATOM      3  O   UNL     1      -1.170  -1.752   2.140  0.00  0.00    -0.153 OA
ENDROOT
BRANCH   1   4
ATOM      4  C   UNL     1      -2.251   0.555   2.392  0.00  0.00    +0.124 A 
ATOM      5  C   UNL     1      -1.237   0.950   3.247  0.00  0.00    +0.048 A 
ATOM      6  C   UNL     1      -1.409   2.131   3.978  0.00  0.00    +0.045 A 
ATOM      7  C   UNL     1      -2.588   2.859   3.816  0.00  0.00    +0.127 A 
ATOM      8  N   UNL     1      -3.525   2.441   2.990  0.00  0.00    -0.260 NA
ATOM      9  C   UNL     1      -3.388   1.335   2.284  0.00  0.00    +0.139 A 
BRANCH   6  10
ATOM     10  C   UNL     1      -0.391   2.585   4.877  0.00  0.00    -0.062 C 
ATOM     11  C   UNL     1       0.443   2.957   5.615  0.00  0.00    -0.069 C 
BRANCH  11  12
ATOM     12  C   UNL     1       1.490   3.424   6.539  0.00  0.00    +0.244 C 
BRANCH  12  13
ATOM     13  O   UNL     1       1.071   4.643   7.156  0.00  0.00    -0.383 OA
ATOM     14  H   UNL     1       1.713   5.009   7.779  0.00  0.00    +0.211 HD
ENDBRANCH  12  13
ENDBRANCH  11  12
ENDBRANCH   6  10
ENDBRANCH   1   4
BRANCH   1  15
ATOM     15  N   UNL     1      -1.372  -0.511   0.012  0.00  0.00    -0.178 NA
ATOM     16  H   UNL     1      -1.861  -0.606  -0.820  0.00  0.00    +0.149 HD
BRANCH  15  18
ATOM     17  C   UNL     1      -0.019   1.526   0.010  0.00  0.00    +0.035 C 
ATOM     18  C   UNL     1       0.002  -0.004   0.002  0.00  0.00    +0.159 C 
BRANCH  18  19
ATOM     19  C   UNL     1       0.707  -0.490  -1.238  0.00  0.00    +0.229 C 
ATOM     20  O   UNL     1       0.120  -1.191  -2.034  0.00  0.00    -0.274 OA
ATOM     21  N   UNL     1       1.991  -0.146  -1.462  0.00  0.00    -0.328 N 
ATOM     22  H   UNL     1       2.461   0.415  -0.825  0.00  0.00    +0.145 HD
ATOM     23  H   UNL     1       2.445  -0.459  -2.260  0.00  0.00    +0.145 HD
ENDBRANCH  18  19
ENDBRANCH  15  18
ENDBRANCH   1  15
TORSDOF 7
