REMARK  Name = ZINC40621889
REMARK  3 active torsions:
REMARK  status: ('A' for Active; 'I' for Inactive)
REMARK    1  A    between atoms: C_7  and  N_23
REMARK    2  A    between atoms: C_8  and  N_12
REMARK    3  A    between atoms: N_12  and  C_13
REMARK                            x       y       z     vdW  Elec       q    Type
REMARK                         _______ _______ _______ _____ _____    ______ ____
ROOT
ATOM      1  C   UNL     1      -0.016   1.337   0.009  0.00  0.00    +0.130 A 
ATOM      2  C   UNL     1       1.256   1.776  -0.000  0.00  0.00    +0.114 A 
ATOM      3  N   UNL     1       2.060   0.663  -0.014  0.00  0.00    -0.288 N 
ATOM      4  C   UNL     1       1.238  -0.420  -0.012  0.00  0.00    +0.205 A 
ATOM      5  N   UNL     1       0.002  -0.004   0.002  0.00  0.00    -0.244 NA
ATOM      6  C   UNL     1       3.456   0.647  -0.028  0.00  0.00    +0.174 A 
ATOM      7  C   UNL     1       4.155  -0.348   0.642  0.00  0.00    +0.208 A 
ATOM      8  C   UNL     1       5.548  -0.320   0.597  0.00  0.00    +0.155 A 
ATOM      9  N   UNL     1       6.152   0.652  -0.081  0.00  0.00    -0.218 NA
ATOM     10  C   UNL     1       5.452   1.578  -0.703  0.00  0.00    +0.225 A 
ATOM     11  N   UNL     1       4.134   1.582  -0.688  0.00  0.00    -0.215 NA
ENDROOT
BRANCH   7  12
ATOM     12  N   UNL     1       3.440  -1.411   1.384  0.00  0.00    +0.063 N 
ATOM     13  O   UNL     1       3.132  -2.437   0.824  0.00  0.00    -0.126 OA
ATOM     14  O   UNL     1       3.165  -1.252   2.551  0.00  0.00    -0.126 OA
ENDBRANCH   7  12
BRANCH   8  15
ATOM     15  N   UNL     1       6.292  -1.291   1.250  0.00  0.00    -0.322 N 
ATOM     16  H   UNL     1       5.843  -1.996   1.742  0.00  0.00    +0.148 HD
BRANCH  15  17
ATOM     17  C   UNL     1       7.755  -1.251   1.196  0.00  0.00    +0.034 C 
ATOM     18  C   UNL     1       8.252   0.064   1.799  0.00  0.00    +0.029 C 
ATOM     19  C   UNL     1       9.781   0.105   1.743  0.00  0.00    -0.008 C 
ATOM     20  C   UNL     1      10.352  -1.070   2.539  0.00  0.00    +0.007 C 
ATOM     21  C   UNL     1       9.855  -2.385   1.935  0.00  0.00    -0.008 C 
ATOM     22  C   UNL     1       8.327  -2.426   1.992  0.00  0.00    +0.029 C 
ATOM     23  C   UNL     1      10.315  -2.484   0.479  0.00  0.00    +0.007 C 
ATOM     24  C   UNL     1       9.743  -1.309  -0.317  0.00  0.00    -0.008 C 
ATOM     25  C   UNL     1      10.240   0.006   0.287  0.00  0.00    +0.007 C 
ATOM     26  C   UNL     1       8.214  -1.350  -0.261  0.00  0.00    +0.029 C 
ENDBRANCH  15  17
ENDBRANCH   8  15
TORSDOF 3
