REMARK  Name = ZINC40387164
REMARK  6 active torsions:
REMARK  status: ('A' for Active; 'I' for Inactive)
REMARK    1  A    between atoms: C_1  and  O_2
REMARK    2  A    between atoms: O_2  and  C_3
REMARK    3  A    between atoms: C_6  and  S_9
REMARK    4  A    between atoms: S_9  and  N_12
REMARK    5  A    between atoms: N_16  and  C_19
REMARK    6  A    between atoms: C_19  and  C_20
REMARK                            x       y       z     vdW  Elec       q    Type
REMARK                         _______ _______ _______ _____ _____    ______ ____
ROOT
ATOM      1  N   UNL     1       1.565  -2.916   5.681  0.00  0.00    -0.097 NA
ATOM      2  C   UNL     1       1.899  -3.496   6.799  0.00  0.00    +0.202 C 
ATOM      3  N   UNL     1       3.198  -3.916   7.054  0.00  0.00    -0.303 N 
ATOM      4  C   UNL     1       3.361  -5.213   7.730  0.00  0.00    +0.193 C 
ATOM      5  N   UNL     1       2.473  -5.249   8.903  0.00  0.00    -0.267 NA
ATOM      6  C   UNL     1       1.073  -5.026   8.511  0.00  0.00    +0.193 C 
ATOM      7  N   UNL     1       0.980  -3.728   7.814  0.00  0.00    -0.303 N 
ATOM      8  H   UNL     1       0.309  -3.069   8.050  0.00  0.00    +0.150 HD
ATOM      9  H   UNL     1       3.963  -3.378   6.797  0.00  0.00    +0.150 HD
ENDROOT
BRANCH   1  10
ATOM     10  S   UNL     1       2.704  -2.665   4.505  0.00  0.00    +0.102 S 
ATOM     11  O   UNL     1       3.098  -3.949   4.041  0.00  0.00    -0.146 OA
ATOM     12  O   UNL     1       3.632  -1.728   5.033  0.00  0.00    -0.146 OA
BRANCH  10  16
ATOM     13  C   UNL     1       0.626  -0.618   1.042  0.00  0.00    +0.120 A 
ATOM     14  C   UNL     1       1.202   0.138   2.051  0.00  0.00    +0.047 A 
ATOM     15  C   UNL     1       1.835  -0.488   3.107  0.00  0.00    +0.032 A 
ATOM     16  C   UNL     1       1.895  -1.869   3.158  0.00  0.00    +0.113 A 
ATOM     17  C   UNL     1       1.322  -2.625   2.152  0.00  0.00    +0.032 A 
ATOM     18  C   UNL     1       0.682  -2.003   1.098  0.00  0.00    +0.047 A 
BRANCH  13  20
ATOM     19  C   UNL     1      -0.017   1.425   0.010  0.00  0.00    +0.277 C 
ATOM     20  O   UNL     1       0.002  -0.004   0.002  0.00  0.00    -0.495 OA
ENDBRANCH  13  20
ENDBRANCH  10  16
ENDBRANCH   1  10
BRANCH   5  21
ATOM     21  C   UNL     1       2.619  -6.515   9.635  0.00  0.00    +0.122 C 
BRANCH  21  22
ATOM     22  C   UNL     1       1.890  -6.421  10.950  0.00  0.00    -0.031 A 
ATOM     23  C   UNL     1       2.548  -5.956  12.074  0.00  0.00    +0.005 A 
ATOM     24  C   UNL     1       1.881  -5.870  13.281  0.00  0.00    +0.003 A 
ATOM     25  C   UNL     1       0.554  -6.249  13.367  0.00  0.00    +0.038 A 
ATOM     26  C   UNL     1      -0.106  -6.714  12.242  0.00  0.00    +0.124 A 
ATOM     27  C   UNL     1       0.562  -6.795  11.032  0.00  0.00    +0.043 A 
ATOM     28  F   UNL     1      -1.402  -7.085  12.325  0.00  0.00    -0.205 F 
ENDBRANCH  21  22
ENDBRANCH   5  21
TORSDOF 5
