REMARK  Name = ZINC13251317
REMARK  7 active torsions:
REMARK  status: ('A' for Active; 'I' for Inactive)
REMARK    1  A    between atoms: C_1  and  C_2
REMARK    2  A    between atoms: C_6  and  N_8
REMARK    3  A    between atoms: N_8  and  S_9
REMARK    4  A    between atoms: S_9  and  C_12
REMARK    5  A    between atoms: C_16  and  N_18
REMARK    6  A    between atoms: C_19  and  C_21
REMARK    7  A    between atoms: C_27  and  C_29
REMARK                            x       y       z     vdW  Elec       q    Type
REMARK                         _______ _______ _______ _____ _____    ______ ____
ROOT
ATOM      1  C   UNL     1       0.898   1.977   0.146  0.00  0.00    +0.110 A 
ATOM      2  C   UNL     1       0.975   3.339   0.377  0.00  0.00    +0.029 A 
ATOM      3  C   UNL     1      -0.168   4.115   0.340  0.00  0.00    +0.004 A 
ATOM      4  C   UNL     1      -1.392   3.533   0.073  0.00  0.00    +0.023 A 
ATOM      5  C   UNL     1      -1.472   2.167  -0.165  0.00  0.00    +0.035 A 
ATOM      6  C   UNL     1      -0.322   1.389  -0.122  0.00  0.00    +0.052 A 
ENDROOT
BRANCH   5   7
ATOM      7  N   UNL     1      -2.709   1.575  -0.441  0.00  0.00    -0.285 N 
ATOM      8  C   UNL     1      -2.785   0.545  -1.308  0.00  0.00    +0.221 C 
ATOM      9  O   UNL     1      -1.772   0.077  -1.783  0.00  0.00    -0.275 OA
ATOM     10  H   UNL     1      -3.513   1.905  -0.010  0.00  0.00    +0.155 HD
BRANCH   8  11
ATOM     11  C   UNL     1      -4.128  -0.024  -1.687  0.00  0.00    +0.093 C 
ATOM     12  C   UNL     1      -4.826  -0.569  -0.439  0.00  0.00    +0.040 C 
ATOM     13  C   UNL     1      -6.034  -1.369  -0.831  0.00  0.00    -0.030 C 
ATOM     14  C   UNL     1      -6.244  -1.828  -2.022  0.00  0.00    -0.030 C 
ATOM     15  C   UNL     1      -5.315  -1.616  -3.182  0.00  0.00    +0.042 C 
ATOM     16  C   UNL     1      -3.938  -1.177  -2.679  0.00  0.00    +0.118 C 
BRANCH  16  17
ATOM     17  C   UNL     1      -3.099  -0.713  -3.842  0.00  0.00    +0.360 C 
ATOM     18  O   UNL     1      -2.693   0.425  -3.877  0.00  0.00    -0.246 OA
ATOM     19  O   UNL     1      -2.803  -1.562  -4.838  0.00  0.00    -0.246 OA
ENDBRANCH  16  17
ENDBRANCH   8  11
ENDBRANCH   5   7
BRANCH   1  20
ATOM     20  S   UNL     1       2.358   0.992   0.194  0.00  0.00    +0.072 S 
ATOM     21  O   UNL     1       3.294   1.692   1.002  0.00  0.00    -0.150 OA
ATOM     22  O   UNL     1       1.943  -0.335   0.484  0.00  0.00    -0.150 OA
BRANCH  20  23
ATOM     23  N   UNL     1       2.983   0.969  -1.340  0.00  0.00    -0.215 N 
ATOM     24  H   UNL     1       3.086   0.126  -1.808  0.00  0.00    +0.174 HD
BRANCH  23  30
ATOM     25  C   UNL     1       4.902   5.481  -1.008  0.00  0.00    +0.044 C 
ATOM     26  C   UNL     1       4.295   4.368  -1.822  0.00  0.00    -0.049 A 
ATOM     27  C   UNL     1       4.113   4.528  -3.184  0.00  0.00    +0.004 A 
ATOM     28  C   UNL     1       3.556   3.509  -3.935  0.00  0.00    +0.017 A 
ATOM     29  C   UNL     1       3.185   2.324  -3.327  0.00  0.00    +0.040 A 
ATOM     30  C   UNL     1       3.362   2.163  -1.958  0.00  0.00    +0.062 A 
ATOM     31  C   UNL     1       3.921   3.188  -1.208  0.00  0.00    +0.029 A 
ATOM     32 BR   UNL     1       2.431   0.928  -4.356  0.00  0.00    -0.048 Br
ENDBRANCH  23  30
ENDBRANCH  20  23
ENDBRANCH   1  20
TORSDOF 6
