REMARK  Name = ZINC51988313
REMARK  7 active torsions:
REMARK  status: ('A' for Active; 'I' for Inactive)
REMARK    1  A    between atoms: C_1  and  C_2
REMARK    2  A    between atoms: C_2  and  C_3
REMARK    3  A    between atoms: C_3  and  C_4
REMARK    4  A    between atoms: C_4  and  C_6
REMARK    5  A    between atoms: C_4  and  C_10
REMARK    6  A    between atoms: N_7  and  O_8
REMARK    7  A    between atoms: N_12  and  C_13
REMARK                            x       y       z     vdW  Elec       q    Type
REMARK                         _______ _______ _______ _____ _____    ______ ____
ROOT
ATOM      1  C   UNL     1      -0.637  -2.541  -1.626  0.00  0.00    +0.224 C 
ATOM      2  O   UNL     1      -0.873  -3.221  -2.602  0.00  0.00    -0.275 OA
ATOM      3  N   UNL     1      -1.626  -2.234  -0.763  0.00  0.00    -0.308 N 
ATOM      4  H   UNL     1      -1.426  -1.739   0.047  0.00  0.00    +0.149 HD
ENDROOT
BRANCH   3   5
ATOM      5  C   UNL     1      -3.002  -2.646  -1.049  0.00  0.00    +0.110 C 
ATOM      6  C   UNL     1      -3.975  -1.707  -0.333  0.00  0.00    +0.068 C 
ATOM      7  C   UNL     1      -5.378  -2.324  -0.400  0.00  0.00    +0.231 C 
ATOM      8  O   UNL     1      -5.369  -3.544   0.342  0.00  0.00    -0.492 OA
ATOM      9  C   UNL     1      -4.371  -4.431   0.092  0.00  0.00    +0.125 A 
ATOM     10  C   UNL     1      -3.213  -4.059  -0.566  0.00  0.00    +0.014 A 
ATOM     11  C   UNL     1      -2.220  -4.996  -0.794  0.00  0.00    +0.009 A 
ATOM     12  C   UNL     1      -2.381  -6.301  -0.369  0.00  0.00    +0.001 A 
ATOM     13  C   UNL     1      -3.539  -6.675   0.288  0.00  0.00    +0.004 A 
ATOM     14  C   UNL     1      -4.531  -5.746   0.517  0.00  0.00    +0.046 A 
ENDBRANCH   3   5
BRANCH   1  15
ATOM     15  C   UNL     1       0.763  -2.041  -1.377  0.00  0.00    +0.141 C 
BRANCH  15  16
ATOM     16  C   UNL     1       1.542  -3.085  -0.619  0.00  0.00    +0.144 C 
ATOM     17  N   UNL     1       2.287  -3.925  -1.258  0.00  0.00    -0.076 NA
ATOM     18  N   UNL     1       1.460  -3.143   0.755  0.00  0.00    -0.343 N 
ATOM     19  H   UNL     1       0.901  -2.512   1.234  0.00  0.00    +0.144 HD
ATOM     20  H   UNL     1       1.962  -3.814   1.242  0.00  0.00    +0.144 HD
BRANCH  17  21
ATOM     21  O   UNL     1       3.019  -4.906  -0.545  0.00  0.00    -0.408 OA
ATOM     22  H   UNL     1       3.547  -5.488  -1.109  0.00  0.00    +0.328 HD
ENDBRANCH  17  21
ENDBRANCH  15  16
BRANCH  15  23
ATOM     23  C   UNL     1       1.450  -1.763  -2.715  0.00  0.00    +0.020 C 
BRANCH  23  25
ATOM     24  C   UNL     1       3.458  -0.743  -3.797  0.00  0.00    +0.004 C 
ATOM     25  C   UNL     1       2.825  -1.140  -2.462  0.00  0.00    -0.002 C 
ENDBRANCH  23  25
ENDBRANCH  15  23
ENDBRANCH   1  15
TORSDOF 6
