REMARK  Name = ZINC39663912
REMARK  12 active torsions:
REMARK  status: ('A' for Active; 'I' for Inactive)
REMARK    1  A    between atoms: C_1  and  C_2
REMARK    2  A    between atoms: C_5  and  C_9
REMARK    3  A    between atoms: C_6  and  C_8
REMARK    4  A    between atoms: C_13  and  C_22
REMARK    5  A    between atoms: N_24  and  C_25
REMARK    6  A    between atoms: C_25  and  C_26
REMARK    7  A    between atoms: C_26  and  C_28
REMARK    8  A    between atoms: C_26  and  N_36
REMARK    9  A    between atoms: C_31  and  O_34
REMARK   10  A    between atoms: O_34  and  C_35
REMARK   11  A    between atoms: N_36  and  C_37
REMARK   12  A    between atoms: N_36  and  C_38
REMARK                            x       y       z     vdW  Elec       q    Type
REMARK                         _______ _______ _______ _____ _____    ______ ____
ROOT
ATOM      1  C   UNL     1       0.024  -4.204  -0.366  0.00  0.00    +0.247 C 
ATOM      2  O   UNL     1       0.041  -4.889   0.638  0.00  0.00    -0.270 OA
ATOM      3  N   UNL     1      -0.067  -4.788  -1.578  0.00  0.00    -0.296 N 
ATOM      4  C   UNL     1      -0.005  -4.135  -2.907  0.00  0.00    +0.121 C 
ATOM      5  C   UNL     1       0.816  -5.109  -3.783  0.00  0.00    +0.100 C 
ATOM      6  C   UNL     1       0.649  -6.480  -3.106  0.00  0.00    -0.004 C 
ATOM      7  C   UNL     1      -0.244  -6.228  -1.882  0.00  0.00    +0.115 C 
ATOM      8  C   UNL     1      -0.025  -7.461  -4.060  0.00  0.00    -0.010 C 
ATOM      9  C   UNL     1      -0.127  -8.833  -3.386  0.00  0.00    -0.082 C 
ATOM     10  N   UNL     1       1.216  -9.307  -3.032  0.00  0.00    +0.379 N 
ATOM     11  C   UNL     1       1.821  -8.407  -2.043  0.00  0.00    -0.082 C 
ATOM     12  C   UNL     1       2.005  -7.018  -2.661  0.00  0.00    -0.010 C 
ATOM     13  H   UNL     1       1.151 -10.236  -2.644  0.00  0.00    -0.086 HD
ATOM     14  H   UNL     1       1.792  -9.331  -3.860  0.00  0.00    -0.086 HD
ENDROOT
BRANCH   1  19
ATOM     15  C   UNL     1       0.334   1.527   0.053  0.00  0.00    +0.044 C 
ATOM     16  C   UNL     1       0.253   0.026  -0.057  0.00  0.00    -0.050 A 
ATOM     17  C   UNL     1      -0.751  -0.556  -0.810  0.00  0.00    +0.004 A 
ATOM     18  C   UNL     1      -0.831  -1.929  -0.915  0.00  0.00    +0.013 A 
ATOM     19  C   UNL     1       0.104  -2.732  -0.259  0.00  0.00    +0.040 A 
ATOM     20  C   UNL     1       1.115  -2.138   0.499  0.00  0.00    -0.038 A 
ATOM     21  C   UNL     1       1.186  -0.764   0.591  0.00  0.00    +0.007 A 
ATOM     22  C   UNL     1       2.128  -2.997   1.210  0.00  0.00    +0.044 C 
ENDBRANCH   1  19
BRANCH   5  23
ATOM     23  C   UNL     1       2.267  -4.703  -3.800  0.00  0.00    +0.218 C 
ATOM     24  O   UNL     1       2.731  -4.069  -2.876  0.00  0.00    -0.275 OA
ATOM     25  N   UNL     1       3.049  -5.044  -4.843  0.00  0.00    -0.316 N 
ATOM     26  H   UNL     1       2.678  -5.551  -5.582  0.00  0.00    +0.149 HD
BRANCH  25  27
ATOM     27  C   UNL     1       4.460  -4.649  -4.861  0.00  0.00    +0.093 C 
BRANCH  27  28
ATOM     28  C   UNL     1       5.084  -5.046  -6.200  0.00  0.00    -0.021 C 
BRANCH  28  29
ATOM     29  C   UNL     1       4.401  -4.296  -7.314  0.00  0.00    -0.059 A 
ATOM     30  C   UNL     1       4.753  -2.987  -7.583  0.00  0.00    +0.005 A 
ATOM     31  C   UNL     1       4.128  -2.297  -8.603  0.00  0.00    +0.046 A 
ATOM     32  C   UNL     1       3.146  -2.920  -9.360  0.00  0.00    +0.120 A 
ATOM     33  C   UNL     1       2.794  -4.234  -9.089  0.00  0.00    +0.046 A 
ATOM     34  C   UNL     1       3.426  -4.921  -8.070  0.00  0.00    +0.005 A 
BRANCH  32  35
ATOM     35  O   UNL     1       2.529  -2.243 -10.364  0.00  0.00    -0.495 OA
ATOM     36  C   UNL     1       1.528  -2.947 -11.101  0.00  0.00    +0.277 C 
ENDBRANCH  32  35
ENDBRANCH  28  29
BRANCH  28  37
ATOM     37  N   UNL     1       6.515  -4.713  -6.191  0.00  0.00    +0.382 N 
ATOM     38  C   UNL     1       7.199  -5.521  -5.172  0.00  0.00    -0.096 C 
ATOM     39  C   UNL     1       7.092  -4.999  -7.511  0.00  0.00    -0.096 C 
ATOM     40  H   UNL     1       6.631  -3.734  -5.978  0.00  0.00    -0.082 HD
ENDBRANCH  28  37
ENDBRANCH  27  28
ENDBRANCH  25  27
ENDBRANCH   5  23
TORSDOF 7
