REMARK  Name = ZINC49095876
REMARK  7 active torsions:
REMARK  status: ('A' for Active; 'I' for Inactive)
REMARK    1  A    between atoms: C_1  and  C_2
REMARK    2  A    between atoms: C_3  and  C_20
REMARK    3  A    between atoms: N_7  and  S_8
REMARK    4  A    between atoms: S_8  and  C_11
REMARK    5  A    between atoms: C_13  and  N_19
REMARK    6  A    between atoms: C_16  and  O_17
REMARK    7  A    between atoms: O_17  and  C_18
REMARK                            x       y       z     vdW  Elec       q    Type
REMARK                         _______ _______ _______ _____ _____    ______ ____
ROOT
ATOM      1  S   UNL     1       3.739  -2.321  -0.031  0.00  0.00    +0.105 S 
ATOM      2  O   UNL     1       3.925  -1.656  -1.273  0.00  0.00    -0.146 OA
ATOM      3  O   UNL     1       3.938  -1.671   1.218  0.00  0.00    -0.146 OA
ENDROOT
BRANCH   1  10
ATOM      4  C   UNL     1      -0.018   1.503   0.010  0.00  0.00    +0.064 C 
ATOM      5  C   UNL     1       0.002  -0.004   0.002  0.00  0.00    +0.025 A 
ATOM      6  C   UNL     1      -1.144  -0.684   0.004  0.00  0.00    +0.009 A 
ATOM      7  S   UNL     1      -0.577  -2.377  -0.009  0.00  0.00    -0.053 S 
ATOM      8  C   UNL     1       1.179  -2.046  -0.016  0.00  0.00    +0.192 A 
ATOM      9  N   UNL     1       1.194  -0.668  -0.013  0.00  0.00    -0.336 N 
ATOM     10  N   UNL     1       2.183  -2.888  -0.026  0.00  0.00    -0.103 NA
ATOM     11  C   UNL     1      -2.557  -0.159   0.016  0.00  0.00    +0.053 C 
ATOM     12  H   UNL     1       2.033  -0.181  -0.019  0.00  0.00    +0.168 HD
ENDBRANCH   1  10
BRANCH   1  13
ATOM     13  C   UNL     1       4.804  -3.724  -0.045  0.00  0.00    +0.156 A 
ATOM     14  C   UNL     1       5.623  -3.958  -1.132  0.00  0.00    +0.055 A 
ATOM     15  C   UNL     1       6.463  -5.063  -1.143  0.00  0.00    +0.027 A 
ATOM     16  C   UNL     1       6.480  -5.932  -0.060  0.00  0.00    +0.026 A 
ATOM     17  C   UNL     1       5.660  -5.697   1.027  0.00  0.00    +0.049 A 
ATOM     18  C   UNL     1       4.825  -4.589   1.039  0.00  0.00    +0.147 A 
BRANCH  15  19
ATOM     19  N   UNL     1       7.293  -5.301  -2.244  0.00  0.00    -0.358 N 
ATOM     20  H   UNL     1       7.281  -4.694  -3.001  0.00  0.00    +0.142 HD
ATOM     21  H   UNL     1       7.880  -6.074  -2.251  0.00  0.00    +0.142 HD
ENDBRANCH  15  19
BRANCH  18  22
ATOM     22  O   UNL     1       4.022  -4.355   2.111  0.00  0.00    -0.493 OA
ATOM     23  C   UNL     1       4.095  -5.287   3.192  0.00  0.00    +0.277 C 
ENDBRANCH  18  22
ENDBRANCH   1  13
TORSDOF 4
