REMARK  Name = ZINC59371247
REMARK  4 active torsions:
REMARK  status: ('A' for Active; 'I' for Inactive)
REMARK    1  A    between atoms: C_4  and  O_29
REMARK    2  A    between atoms: C_5  and  N_7
REMARK    3  A    between atoms: N_10  and  C_13
REMARK    4  A    between atoms: C_16  and  N_20
REMARK                            x       y       z     vdW  Elec       q    Type
REMARK                         _______ _______ _______ _____ _____    ______ ____
ROOT
ATOM      1  C   UNL     1       0.100  -5.955  -0.038  0.00  0.00    +0.048 A 
ATOM      2  C   UNL     1      -0.992  -6.669   0.438  0.00  0.00    +0.026 A 
ATOM      3  C   UNL     1      -0.971  -8.049   0.430  0.00  0.00    +0.030 A 
ATOM      4  C   UNL     1       0.142  -8.724  -0.055  0.00  0.00    +0.071 A 
ATOM      5  C   UNL     1       1.235  -8.011  -0.531  0.00  0.00    +0.049 A 
ATOM      6  C   UNL     1       1.212  -6.630  -0.527  0.00  0.00    +0.064 A 
ATOM      7 CL   UNL     1       2.575  -5.737  -1.129  0.00  0.00    -0.082 Cl
ENDROOT
BRANCH   4   8
ATOM      8  N   UNL     1       0.163 -10.124  -0.063  0.00  0.00    -0.195 N 
ATOM      9  C   UNL     1       1.231 -10.783   0.431  0.00  0.00    +0.292 A 
ATOM     10  O   UNL     1       2.180 -10.164   0.886  0.00  0.00    -0.264 OA
ATOM     11  C   UNL     1       1.242 -12.191   0.419  0.00  0.00    +0.127 A 
ATOM     12  C   UNL     1       0.169 -12.861  -0.095  0.00  0.00    +0.084 A 
ATOM     13  C   UNL     1      -0.924 -12.141  -0.600  0.00  0.00    +0.155 A 
ATOM     14  N   UNL     1      -0.926 -10.835  -0.579  0.00  0.00    -0.170 NA
ATOM     15 CL   UNL     1       0.157 -14.596  -0.123  0.00  0.00    -0.080 Cl
ATOM     16 CL   UNL     1       2.603 -13.064   1.048  0.00  0.00    -0.076 Cl
ENDBRANCH   4   8
BRANCH   1  20
ATOM     17  N   UNL     1       1.134  -2.079  -0.496  0.00  0.00    -0.324 N 
ATOM     18  C   UNL     1       1.655  -2.826   0.657  0.00  0.00    +0.124 C 
ATOM     19  C   UNL     1       0.577  -3.808   1.133  0.00  0.00    +0.124 C 
ATOM     20  N   UNL     1       0.079  -4.557  -0.029  0.00  0.00    -0.326 N 
ATOM     21  C   UNL     1      -0.443  -3.810  -1.182  0.00  0.00    +0.124 C 
ATOM     22  C   UNL     1       0.630  -2.828  -1.655  0.00  0.00    +0.124 C 
BRANCH  17  27
ATOM     23  C   UNL     1      -0.014   1.378   0.013  0.00  0.00    +0.002 A 
ATOM     24  C   UNL     1       1.068   2.090  -0.471  0.00  0.00    +0.004 A 
ATOM     25  C   UNL     1       2.175   1.423  -0.964  0.00  0.00    +0.047 A 
ATOM     26  C   UNL     1       2.202   0.039  -0.974  0.00  0.00    +0.138 A 
ATOM     27  C   UNL     1       1.112  -0.679  -0.487  0.00  0.00    +0.072 A 
ATOM     28  C   UNL     1       0.005  -0.004   0.006  0.00  0.00    +0.027 A 
BRANCH  26  29
ATOM     29  O   UNL     1       3.290  -0.618  -1.459  0.00  0.00    -0.505 OA
ATOM     30  H   UNL     1       3.964  -0.807  -0.793  0.00  0.00    +0.292 HD
ENDBRANCH  26  29
ENDBRANCH  17  27
ENDBRANCH   1  20
TORSDOF 4
