REMARK  Name = ZINC58245563
REMARK  5 active torsions:
REMARK  status: ('A' for Active; 'I' for Inactive)
REMARK    1  A    between atoms: C_1  and  C_2
REMARK    2  A    between atoms: C_2  and  C_4
REMARK    3  A    between atoms: C_2  and  N_16
REMARK    4  A    between atoms: C_17  and  C_19
REMARK    5  A    between atoms: C_19  and  C_25
REMARK                            x       y       z     vdW  Elec       q    Type
REMARK                         _______ _______ _______ _____ _____    ______ ____
ROOT
ATOM      1  N   UNL     1      -1.022  -1.304   1.888  0.00  0.00    -0.308 N 
ATOM      2  C   UNL     1       0.050  -0.634   2.356  0.00  0.00    +0.224 C 
ATOM      3  O   UNL     1       0.484   0.319   1.744  0.00  0.00    -0.275 OA
ATOM      4  H   UNL     1      -1.324  -2.109   2.337  0.00  0.00    +0.149 HD
ENDROOT
BRANCH   2   5
ATOM      5  C   UNL     1       0.710  -1.069   3.639  0.00  0.00    +0.076 C 
ATOM      6  C   UNL     1       1.781  -0.049   4.036  0.00  0.00    +0.049 C 
ATOM      7  C   UNL     1       1.114   1.302   4.305  0.00  0.00    +0.161 C 
ATOM      8  O   UNL     1       0.128   1.150   5.328  0.00  0.00    -0.380 OA
ATOM      9  C   UNL     1      -0.925   0.244   4.994  0.00  0.00    +0.161 C 
ATOM     10  C   UNL     1      -0.340  -1.150   4.752  0.00  0.00    +0.049 C 
BRANCH   5  11
ATOM     11  C   UNL     1       1.345  -2.422   3.446  0.00  0.00    -0.032 A 
ATOM     12  C   UNL     1       0.869  -3.515   4.144  0.00  0.00    +0.004 A 
ATOM     13  C   UNL     1       1.452  -4.756   3.967  0.00  0.00    +0.000 A 
ATOM     14  C   UNL     1       2.511  -4.903   3.091  0.00  0.00    +0.000 A 
ATOM     15  C   UNL     1       2.987  -3.810   2.392  0.00  0.00    +0.000 A 
ATOM     16  C   UNL     1       2.401  -2.570   2.566  0.00  0.00    +0.004 A 
ENDBRANCH   5  11
ENDBRANCH   2   5
BRANCH   1  18
ATOM     17  C   UNL     1      -1.038  -1.339  -0.557  0.00  0.00    +0.033 C 
ATOM     18  C   UNL     1      -1.731  -0.816   0.703  0.00  0.00    +0.100 C 
BRANCH  18  19
ATOM     19  C   UNL     1      -3.156  -1.305   0.732  0.00  0.00    -0.025 A 
ATOM     20  C   UNL     1      -3.433  -2.592   1.160  0.00  0.00    +0.007 A 
ATOM     21  C   UNL     1      -4.736  -3.050   1.191  0.00  0.00    +0.028 A 
ATOM     22  C   UNL     1      -5.770  -2.217   0.791  0.00  0.00    +0.067 A 
ATOM     23  C   UNL     1      -5.490  -0.919   0.360  0.00  0.00    +0.067 A 
ATOM     24  C   UNL     1      -4.179  -0.466   0.338  0.00  0.00    +0.033 A 
ATOM     25  N   UNL     1      -6.709  -0.333   0.029  0.00  0.00    -0.306 N 
ATOM     26  H   UNL     1      -6.833   0.570  -0.303  0.00  0.00    +0.170 HD
ATOM     27  C   UNL     1      -7.686  -1.232   0.250  0.00  0.00    +0.325 A 
ATOM     28  O   UNL     1      -8.873  -1.039   0.062  0.00  0.00    -0.247 OA
ATOM     29  N   UNL     1      -7.151  -2.379   0.710  0.00  0.00    -0.306 N 
ATOM     30  H   UNL     1      -7.643  -3.181   0.945  0.00  0.00    +0.170 HD
ENDBRANCH  18  19
ENDBRANCH   1  18
TORSDOF 4
