REMARK  Name = ZINC39469689
REMARK  6 active torsions:
REMARK  status: ('A' for Active; 'I' for Inactive)
REMARK    1  A    between atoms: C_1  and  S_2
REMARK    2  A    between atoms: S_2  and  C_3
REMARK    3  A    between atoms: P_12  and  S_22
REMARK    4  A    between atoms: C_20  and  O_21
REMARK    5  A    between atoms: S_22  and  O_25
REMARK    6  A    between atoms: O_25  and  C_26
REMARK                            x       y       z     vdW  Elec       q    Type
REMARK                         _______ _______ _______ _____ _____    ______ ____
ROOT
ATOM      1  C   UNL     1       0.848  -0.411  -1.489  0.00  0.00    +0.045 C 
ATOM      2  C   UNL     1       1.300   0.557  -2.296  0.00  0.00    -0.005 C 
ATOM      3  C   UNL     1       2.010   0.187  -3.570  0.00  0.00    +0.017 C 
ATOM      4  C   UNL     1       1.936   1.328  -4.576  0.00  0.00    -0.003 C 
ATOM      5  C   UNL     1       0.486   1.578  -5.009  0.00  0.00    -0.020 C 
ATOM      6  C   UNL     1       0.514   2.716  -6.038  0.00  0.00    +0.158 C 
ATOM      7  O   UNL     1      -0.830   3.029  -6.446  0.00  0.00    -0.301 OA
ATOM      8  P   UNL     1      -1.780   1.796  -6.921  0.00  0.00    +0.431 P 
ATOM      9  O   UNL     1      -1.476   1.423  -8.320  0.00  0.00    -0.246 OA
ATOM     10  N   UNL     1      -1.413   0.550  -5.904  0.00  0.00    -0.271 NA
ATOM     11  N   UNL     1      -0.086   0.357  -5.580  0.00  0.00    +0.398 N 
ATOM     12  C   UNL     1      -0.067  -0.730  -4.589  0.00  0.00    -0.046 C 
ATOM     13  C   UNL     1       1.353  -1.054  -4.181  0.00  0.00    +0.008 C 
ATOM     14  C   UNL     1       1.302  -2.144  -3.136  0.00  0.00    +0.022 C 
ATOM     15  C   UNL     1       1.073  -1.826  -1.860  0.00  0.00    +0.126 C 
ATOM     16  H   UNL     1      -2.106  -0.027  -5.547  0.00  0.00    +0.113 HD
ATOM     17  H   UNL     1       0.432   0.091  -6.404  0.00  0.00    -0.055 HD
ENDROOT
BRANCH   8  18
ATOM     18  S   UNL     1      -3.824   2.328  -6.731  0.00  0.00    +0.209 S 
ATOM     19  O   UNL     1      -4.575   1.263  -7.297  0.00  0.00    -0.126 OA
ATOM     20  O   UNL     1      -4.007   2.762  -5.390  0.00  0.00    -0.126 OA
BRANCH  18  21
ATOM     21  O   UNL     1      -4.057   3.543  -7.617  0.00  0.00    -0.339 OA
BRANCH  21  22
ATOM     22  C   UNL     1      -4.105   3.258  -8.945  0.00  0.00    +0.157 A 
ATOM     23  C   UNL     1      -2.943   3.276  -9.703  0.00  0.00    +0.048 A 
ATOM     24  C   UNL     1      -2.996   2.985 -11.052  0.00  0.00    +0.004 A 
ATOM     25  C   UNL     1      -4.205   2.676 -11.648  0.00  0.00    +0.000 A 
ATOM     26  C   UNL     1      -5.364   2.659 -10.895  0.00  0.00    +0.004 A 
ATOM     27  C   UNL     1      -5.316   2.943  -9.544  0.00  0.00    +0.048 A 
ENDBRANCH  21  22
ENDBRANCH  18  21
ENDBRANCH   8  18
BRANCH   1  29
ATOM     28  C   UNL     1      -0.022   1.810   0.012  0.00  0.00    +0.090 C 
ATOM     29  S   UNL     1       0.002  -0.004   0.002  0.00  0.00    -0.125 S 
ENDBRANCH   1  29
BRANCH  15  30
ATOM     30  O   UNL     1       1.039  -2.795  -0.907  0.00  0.00    -0.506 OA
ATOM     31  H   UNL     1       0.863  -2.464  -0.016  0.00  0.00    +0.292 HD
ENDBRANCH  15  30
TORSDOF 5
