REMARK  Name = ZINC36540626
REMARK  14 active torsions:
REMARK  status: ('A' for Active; 'I' for Inactive)
REMARK    1  A    between atoms: C_1  and  C_2
REMARK    2  A    between atoms: C_2  and  C_3
REMARK    3  A    between atoms: C_2  and  C_4
REMARK    4  A    between atoms: C_2  and  N_5
REMARK    5  A    between atoms: C_6  and  C_8
REMARK    6  A    between atoms: C_8  and  C_10
REMARK    7  A    between atoms: C_8  and  N_19
REMARK    8  A    between atoms: C_11  and  O_18
REMARK    9  A    between atoms: C_13  and  O_17
REMARK   10  A    between atoms: C_15  and  O_16
REMARK   11  A    between atoms: N_19  and  C_20
REMARK   12  A    between atoms: C_27  and  C_29
REMARK   13  A    between atoms: C_34  and  O_35
REMARK   14  A    between atoms: O_35  and  C_36
REMARK                            x       y       z     vdW  Elec       q    Type
REMARK                         _______ _______ _______ _____ _____    ______ ____
ROOT
ATOM      1  C   UNL     1       3.168  -0.364  -2.333  0.00  0.00    +0.204 C 
ENDROOT
BRANCH   1   2
ATOM      2  C   UNL     1       3.500  -1.815  -2.099  0.00  0.00    +0.065 A 
ATOM      3  C   UNL     1       4.582  -2.159  -1.303  0.00  0.00    +0.129 A 
ATOM      4  C   UNL     1       4.888  -3.495  -1.088  0.00  0.00    +0.091 A 
ATOM      5  C   UNL     1       4.111  -4.486  -1.668  0.00  0.00    +0.124 A 
ATOM      6  C   UNL     1       3.028  -4.142  -2.463  0.00  0.00    +0.091 A 
ATOM      7  C   UNL     1       2.720  -2.807  -2.675  0.00  0.00    +0.129 A 
BRANCH   7   8
ATOM      8  O   UNL     1       1.656  -2.470  -3.450  0.00  0.00    -0.506 OA
ATOM      9  H   UNL     1       1.869  -2.368  -4.388  0.00  0.00    +0.292 HD
ENDBRANCH   7   8
BRANCH   5  10
ATOM     10  O   UNL     1       4.412  -5.795  -1.458  0.00  0.00    -0.507 OA
ATOM     11  H   UNL     1       3.975  -6.179  -0.686  0.00  0.00    +0.292 HD
ENDBRANCH   5  10
BRANCH   3  12
ATOM     12  O   UNL     1       5.344  -1.188  -0.735  0.00  0.00    -0.506 OA
ATOM     13  H   UNL     1       5.040  -0.912   0.141  0.00  0.00    +0.292 HD
ENDBRANCH   3  12
ENDBRANCH   1   2
BRANCH   1  15
ATOM     14  N   UNL     1       1.722  -0.008  -0.357  0.00  0.00    -0.309 N 
ATOM     15  C   UNL     1       2.858   0.299  -1.015  0.00  0.00    +0.239 C 
ATOM     16  O   UNL     1       3.630   1.109  -0.548  0.00  0.00    -0.273 OA
ATOM     17  H   UNL     1       1.105  -0.656  -0.731  0.00  0.00    +0.149 HD
BRANCH  14  19
ATOM     18  C   UNL     1       1.335   2.151   0.724  0.00  0.00    +0.031 C 
ATOM     19  C   UNL     1       1.421   0.636   0.923  0.00  0.00    +0.026 C 
ATOM     20  C   UNL     1       2.529   0.316   1.929  0.00  0.00    +0.031 C 
ATOM     21  C   UNL     1       0.084   0.115   1.455  0.00  0.00    +0.031 C 
ENDBRANCH  14  19
ENDBRANCH   1  15
BRANCH   1  22
ATOM     22  N   UNL     1       4.311   0.304  -2.958  0.00  0.00    -0.250 N 
ATOM     23  C   UNL     1       4.209   1.590  -3.350  0.00  0.00    +0.255 C 
ATOM     24  O   UNL     1       3.197   2.220  -3.111  0.00  0.00    -0.269 OA
BRANCH  22  25
ATOM     25  C   UNL     1       5.510  -0.392  -3.149  0.00  0.00    +0.056 A 
ATOM     26  C   UNL     1       5.576  -1.423  -4.077  0.00  0.00    +0.025 A 
ATOM     27  C   UNL     1       6.760  -2.108  -4.263  0.00  0.00    +0.002 A 
ATOM     28  C   UNL     1       7.881  -1.769  -3.527  0.00  0.00    +0.002 A 
ATOM     29  C   UNL     1       7.819  -0.743  -2.602  0.00  0.00    +0.022 A 
ATOM     30  C   UNL     1       6.639  -0.050  -2.414  0.00  0.00    +0.062 A 
ATOM     31 CL   UNL     1       6.564   1.243  -1.258  0.00  0.00    -0.082 Cl
ENDBRANCH  22  25
BRANCH  23  32
ATOM     32  C   UNL     1       5.325   2.232  -4.070  0.00  0.00    +0.079 A 
ATOM     33  C   UNL     1       6.034   1.524  -5.044  0.00  0.00    +0.017 A 
ATOM     34  C   UNL     1       7.075   2.130  -5.713  0.00  0.00    +0.001 A 
ATOM     35  C   UNL     1       7.423   3.440  -5.424  0.00  0.00    +0.004 A 
ATOM     36  C   UNL     1       6.731   4.151  -4.463  0.00  0.00    +0.046 A 
ATOM     37  C   UNL     1       5.677   3.559  -3.785  0.00  0.00    +0.132 A 
BRANCH  37  38
ATOM     38  O   UNL     1       4.992   4.258  -2.845  0.00  0.00    -0.494 OA
ATOM     39  C   UNL     1       5.408   5.605  -2.608  0.00  0.00    +0.277 C 
ENDBRANCH  37  38
ENDBRANCH  23  32
ENDBRANCH   1  22
TORSDOF 10
