REMARK  Name = ZINC58949210
REMARK  9 active torsions:
REMARK  status: ('A' for Active; 'I' for Inactive)
REMARK    1  A    between atoms: C_1  and  C_2
REMARK    2  A    between atoms: C_2  and  N_3
REMARK    3  A    between atoms: C_14  and  C_16
REMARK    4  A    between atoms: C_18  and  C_29
REMARK    5  A    between atoms: C_19  and  C_28
REMARK    6  A    between atoms: C_21  and  N_27
REMARK    7  A    between atoms: C_22  and  C_23
REMARK    8  A    between atoms: C_23  and  O_25
REMARK    9  A    between atoms: O_25  and  C_26
REMARK                            x       y       z     vdW  Elec       q    Type
REMARK                         _______ _______ _______ _____ _____    ______ ____
ROOT
ATOM      1  C   UNL     1       5.950  -1.823  -2.278  0.00  0.00    +0.099 C 
ATOM      2  C   UNL     1       6.651  -0.494  -2.195  0.00  0.00    +0.064 C 
ATOM      3  C   UNL     1       7.607  -0.270  -1.286  0.00  0.00    +0.113 C 
ATOM      4  O   UNL     1       7.989  -1.212  -0.408  0.00  0.00    -0.446 OA
ATOM      5  C   UNL     1       7.701  -2.504  -0.644  0.00  0.00    +0.195 C 
ATOM      6  C   UNL     1       6.736  -2.863  -1.527  0.00  0.00    +0.105 C 
ATOM      7  C   UNL     1       8.276   1.079  -1.247  0.00  0.00    +0.087 C 
ENDROOT
BRANCH   1  19
ATOM      8  N   UNL     1       0.697  -1.435  -0.239  0.00  0.00    -0.340 N 
ATOM      9  C   UNL     1      -0.051  -1.769  -1.354  0.00  0.00    +0.050 A 
ATOM     10  C   UNL     1      -1.423  -1.869  -1.566  0.00  0.00    +0.026 A 
ATOM     11  C   UNL     1      -1.905  -2.229  -2.806  0.00  0.00    +0.002 A 
ATOM     12  C   UNL     1      -1.034  -2.495  -3.851  0.00  0.00    +0.001 A 
ATOM     13  C   UNL     1       0.328  -2.401  -3.661  0.00  0.00    +0.010 A 
ATOM     14  C   UNL     1       0.829  -2.038  -2.413  0.00  0.00    +0.008 A 
ATOM     15  C   UNL     1       2.192  -1.849  -1.883  0.00  0.00    +0.008 A 
ATOM     16  C   UNL     1       2.047  -1.472  -0.539  0.00  0.00    +0.050 A 
ATOM     17  C   UNL     1       3.183  -1.218   0.222  0.00  0.00    +0.027 A 
ATOM     18  C   UNL     1       4.435  -1.333  -0.345  0.00  0.00    +0.006 A 
ATOM     19  C   UNL     1       4.575  -1.702  -1.674  0.00  0.00    -0.034 A 
ATOM     20  C   UNL     1       3.462  -1.967  -2.442  0.00  0.00    +0.015 A 
BRANCH   8  22
ATOM     21  C   UNL     1      -0.103   0.424   1.134  0.00  0.00    +0.027 C 
ATOM     22  C   UNL     1       0.140  -1.085   1.069  0.00  0.00    +0.119 C 
ENDBRANCH   8  22
ENDBRANCH   1  19
BRANCH   2  23
ATOM     23  C   UNL     1       6.280   0.572  -3.124  0.00  0.00    +0.242 C 
ATOM     24  O   UNL     1       6.641   0.519  -4.285  0.00  0.00    -0.271 OA
ATOM     25  N   UNL     1       5.539   1.612  -2.695  0.00  0.00    -0.325 N 
ATOM     26  H   UNL     1       5.251   1.654  -1.770  0.00  0.00    +0.145 HD
ATOM     27  H   UNL     1       5.293   2.320  -3.312  0.00  0.00    +0.145 HD
ENDBRANCH   2  23
BRANCH   5  28
ATOM     28  N   UNL     1       8.398  -3.477   0.021  0.00  0.00    -0.329 N 
ATOM     29  H   UNL     1       9.019  -3.234   0.724  0.00  0.00    +0.145 HD
ATOM     30  H   UNL     1       8.270  -4.410  -0.212  0.00  0.00    +0.145 HD
ENDBRANCH   5  28
BRANCH   6  31
ATOM     31  C   UNL     1       6.469  -4.224  -1.743  0.00  0.00    +0.341 C 
ATOM     32  O   UNL     1       6.919  -4.784  -2.727  0.00  0.00    -0.245 OA
BRANCH  31  33
ATOM     33  O   UNL     1       5.713  -4.912  -0.860  0.00  0.00    -0.465 OA
ATOM     34  C   UNL     1       5.482  -6.293  -1.143  0.00  0.00    +0.280 C 
ENDBRANCH  31  33
ENDBRANCH   6  31
TORSDOF 6
