REMARK  Name = ZINC66724127
REMARK  9 active torsions:
REMARK  status: ('A' for Active; 'I' for Inactive)
REMARK    1  A    between atoms: C_1  and  C_2
REMARK    2  A    between atoms: C_5  and  C_24
REMARK    3  A    between atoms: N_6  and  C_7
REMARK    4  A    between atoms: C_8  and  C_12
REMARK    5  A    between atoms: N_14  and  C_15
REMARK    6  A    between atoms: C_15  and  C_16
REMARK    7  A    between atoms: C_16  and  C_17
REMARK    8  A    between atoms: C_17  and  C_18
REMARK    9  A    between atoms: C_20  and  C_23
REMARK                            x       y       z     vdW  Elec       q    Type
REMARK                         _______ _______ _______ _____ _____    ______ ____
ROOT
ATOM      1  C   UNL     1       0.180  -2.379   3.607  0.00  0.00    +0.247 C 
ATOM      2  O   UNL     1       0.187  -3.020   2.573  0.00  0.00    -0.270 OA
ATOM      3  N   UNL     1       0.369  -3.001   4.787  0.00  0.00    -0.311 N 
ATOM      4  H   UNL     1       0.363  -2.490   5.612  0.00  0.00    +0.149 HD
ENDROOT
BRANCH   1   6
ATOM      5  C   UNL     1      -0.127  -0.236   2.371  0.00  0.00    +0.097 A 
ATOM      6  C   UNL     1      -0.036  -0.928   3.569  0.00  0.00    +0.068 A 
ATOM      7  C   UNL     1      -0.165  -0.148   4.778  0.00  0.00    +0.023 A 
ATOM      8  C   UNL     1      -0.360   1.173   4.605  0.00  0.00    +0.048 A 
ATOM      9  S   UNL     1      -0.362   1.359   2.835  0.00  0.00    -0.078 S 
BRANCH   5  15
ATOM     10  C   UNL     1      -2.493  -1.425   0.832  0.00  0.00    +0.064 C 
ATOM     11  C   UNL     1      -1.068  -1.285   0.362  0.00  0.00    +0.021 A 
ATOM     12  C   UNL     1      -0.592  -1.662  -0.841  0.00  0.00    +0.023 A 
ATOM     13  C   UNL     1       0.784  -1.353  -0.868  0.00  0.00    +0.023 A 
ATOM     14  C   UNL     1       1.097  -0.797   0.320  0.00  0.00    +0.021 A 
ATOM     15  N   UNL     1      -0.037  -0.747   1.080  0.00  0.00    -0.311 N 
ATOM     16  C   UNL     1       2.462  -0.310   0.735  0.00  0.00    +0.064 C 
ENDBRANCH   5  15
ENDBRANCH   1   6
BRANCH   3  17
ATOM     17  C   UNL     1       0.585  -4.449   4.826  0.00  0.00    +0.105 C 
BRANCH  17  18
ATOM     18  C   UNL     1       0.772  -4.899   6.276  0.00  0.00    +0.028 C 
BRANCH  18  19
ATOM     19  C   UNL     1       0.997  -6.412   6.316  0.00  0.00    +0.100 C 
BRANCH  19  20
ATOM     20  C   UNL     1       1.181  -6.855   7.744  0.00  0.00    +0.227 A 
ATOM     21  N   UNL     1       0.233  -7.237   8.554  0.00  0.00    -0.196 NA
ATOM     22  C   UNL     1       0.749  -7.561   9.745  0.00  0.00    +0.169 A 
ATOM     23  N   UNL     1       2.039  -7.388   9.707  0.00  0.00    -0.062 NA
ATOM     24  O   UNL     1       2.347  -6.930   8.399  0.00  0.00    -0.338 OA
ATOM     25  C   UNL     1      -0.035  -8.047  10.937  0.00  0.00    +0.091 C 
ENDBRANCH  19  20
ENDBRANCH  18  19
ENDBRANCH  17  18
ENDBRANCH   3  17
TORSDOF 6
