REMARK  Name = ZINC38751210
REMARK  6 active torsions:
REMARK  status: ('A' for Active; 'I' for Inactive)
REMARK    1  A    between atoms: C_1  and  C_2
REMARK    2  A    between atoms: C_7  and  N_8
REMARK    3  A    between atoms: C_10  and  C_15
REMARK    4  A    between atoms: N_17  and  C_18
REMARK    5  A    between atoms: C_18  and  C_19
REMARK    6  A    between atoms: C_21  and  C_24
REMARK                            x       y       z     vdW  Elec       q    Type
REMARK                         _______ _______ _______ _____ _____    ______ ____
ROOT
ATOM      1  C   UNL     1      -1.489   1.851   5.163  0.00  0.00    +0.218 C 
ATOM      2  O   UNL     1      -2.355   2.388   4.505  0.00  0.00    -0.275 OA
ATOM      3  N   UNL     1      -1.222   2.288   6.410  0.00  0.00    -0.309 N 
ATOM      4  H   UNL     1      -0.529   1.858   6.936  0.00  0.00    +0.149 HD
ENDROOT
BRANCH   1   7
ATOM      5  N   UNL     1       0.025  -0.015   2.417  0.00  0.00    -0.270 N 
ATOM      6  C   UNL     1      -1.185   0.373   3.151  0.00  0.00    +0.127 C 
ATOM      7  C   UNL     1      -0.711   0.697   4.585  0.00  0.00    +0.101 C 
ATOM      8  C   UNL     1       0.766   1.088   4.348  0.00  0.00    +0.110 C 
ATOM      9  C   UNL     1       1.136   0.374   3.066  0.00  0.00    +0.221 C 
ATOM     10  O   UNL     1       2.269   0.184   2.680  0.00  0.00    -0.275 OA
BRANCH   5  17
ATOM     11  C   UNL     1      -0.018   1.503   0.010  0.00  0.00    +0.045 C 
ATOM     12  C   UNL     1       0.002  -0.004   0.002  0.00  0.00    -0.029 A 
ATOM     13  C   UNL     1       0.006  -0.689  -1.198  0.00  0.00    +0.005 A 
ATOM     14  C   UNL     1       0.025  -2.071  -1.206  0.00  0.00    +0.000 A 
ATOM     15  C   UNL     1       0.040  -2.773  -0.014  0.00  0.00    +0.002 A 
ATOM     16  C   UNL     1       0.037  -2.094   1.188  0.00  0.00    +0.024 A 
ATOM     17  C   UNL     1       0.023  -0.706   1.200  0.00  0.00    +0.039 A 
ENDBRANCH   5  17
ENDBRANCH   1   7
BRANCH   3  18
ATOM     18  C   UNL     1      -1.979   3.410   6.971  0.00  0.00    +0.163 C 
BRANCH  18  19
ATOM     19  C   UNL     1      -1.490   3.697   8.367  0.00  0.00    +0.101 A 
ATOM     20  C   UNL     1      -0.528   4.655   8.720  0.00  0.00    +0.077 A 
ATOM     21  C   UNL     1      -0.363   4.607  10.070  0.00  0.00    +0.168 A 
ATOM     22  O   UNL     1      -1.188   3.657  10.550  0.00  0.00    -0.354 OA
ATOM     23  N   UNL     1      -1.892   3.101   9.455  0.00  0.00    -0.081 NA
BRANCH  21  24
ATOM     24  C   UNL     1       0.556   5.447  10.866  0.00  0.00    +0.024 A 
ATOM     25  C   UNL     1       1.355   6.403  10.235  0.00  0.00    +0.015 A 
ATOM     26  C   UNL     1       2.212   7.184  10.980  0.00  0.00    +0.050 A 
ATOM     27  C   UNL     1       2.284   7.026  12.358  0.00  0.00    +0.162 A 
ATOM     28  C   UNL     1       1.488   6.077  12.993  0.00  0.00    +0.163 A 
ATOM     29  C   UNL     1       0.624   5.292  12.251  0.00  0.00    +0.061 A 
ATOM     30  O   UNL     1       1.542   5.915  14.344  0.00  0.00    -0.485 OA
ATOM     31  C   UNL     1       2.683   6.463  15.013  0.00  0.00    +0.270 C 
ATOM     32  C   UNL     1       2.914   7.885  14.484  0.00  0.00    +0.270 C 
ATOM     33  O   UNL     1       3.140   7.806  13.072  0.00  0.00    -0.485 OA
ENDBRANCH  21  24
ENDBRANCH  18  19
ENDBRANCH   3  18
TORSDOF 5
