REMARK  Name = ZINC20720643
REMARK  5 active torsions:
REMARK  status: ('A' for Active; 'I' for Inactive)
REMARK    1  A    between atoms: C_1  and  C_2
REMARK    2  A    between atoms: C_3  and  N_9
REMARK    3  A    between atoms: C_16  and  O_18
REMARK    4  A    between atoms: N_25  and  C_28
REMARK    5  A    between atoms: C_28  and  C_29
REMARK                            x       y       z     vdW  Elec       q    Type
REMARK                         _______ _______ _______ _____ _____    ______ ____
ROOT
ATOM      1  N   UNL     1      -0.161  -0.120  -2.480  0.00  0.00    -0.214 N 
ATOM      2  C   UNL     1      -0.348  -0.725  -3.675  0.00  0.00    +0.164 A 
ATOM      3  C   UNL     1      -0.389   0.278  -4.638  0.00  0.00    +0.036 A 
ATOM      4  C   UNL     1      -0.214   1.489  -3.996  0.00  0.00    +0.142 A 
ATOM      5  N   UNL     1      -0.082   1.264  -2.709  0.00  0.00    -0.173 NA
ATOM      6  C   UNL     1      -0.599  -0.045  -6.091  0.00  0.00    +0.112 C 
ATOM      7  C   UNL     1      -0.053  -1.446  -6.365  0.00  0.00    +0.121 C 
ATOM      8  C   UNL     1      -0.399  -2.396  -5.255  0.00  0.00    +0.191 C 
ATOM      9  N   UNL     1      -0.506  -2.037  -4.010  0.00  0.00    -0.197 NA
ATOM     10  C   UNL     1      -2.042   0.058  -6.469  0.00  0.00    -0.006 A 
ATOM     11  C   UNL     1      -3.157  -0.614  -6.018  0.00  0.00    +0.007 A 
ATOM     12  C   UNL     1      -4.376  -0.269  -6.591  0.00  0.00    +0.000 A 
ATOM     13  C   UNL     1      -4.462   0.702  -7.568  0.00  0.00    +0.002 A 
ATOM     14  C   UNL     1      -3.345   1.382  -8.027  0.00  0.00    +0.024 A 
ATOM     15  C   UNL     1      -2.115   1.046  -7.460  0.00  0.00    +0.041 A 
ATOM     16  N   UNL     1      -0.856   1.556  -7.724  0.00  0.00    -0.261 N 
ATOM     17  C   UNL     1       0.096   0.972  -6.966  0.00  0.00    +0.236 C 
ATOM     18  O   UNL     1       1.284   1.218  -6.983  0.00  0.00    -0.274 OA
ENDROOT
BRANCH   1  21
ATOM     19  C   UNL     1      -1.705   0.910  -0.322  0.00  0.00    +0.047 C 
ATOM     20  C   UNL     1      -0.806  -0.289  -0.157  0.00  0.00    -0.007 A 
ATOM     21  C   UNL     1      -0.069  -0.758  -1.237  0.00  0.00    +0.072 A 
ATOM     22  C   UNL     1       0.759  -1.862  -1.081  0.00  0.00    +0.028 A 
ATOM     23  C   UNL     1       0.847  -2.490   0.146  0.00  0.00    +0.004 A 
ATOM     24  C   UNL     1       0.113  -2.022   1.219  0.00  0.00    +0.020 A 
ATOM     25  C   UNL     1      -0.709  -0.918   1.069  0.00  0.00    +0.046 A 
ATOM     26 CL   UNL     1      -1.624  -0.328   2.421  0.00  0.00    -0.083 Cl
ENDBRANCH   1  21
BRANCH   8  27
ATOM     27  O   UNL     1      -0.609  -3.692  -5.565  0.00  0.00    -0.495 OA
ATOM     28  H   UNL     1      -0.827  -4.248  -4.805  0.00  0.00    +0.293 HD
ENDBRANCH   8  27
BRANCH  16  29
ATOM     29  C   UNL     1      -0.588   2.605  -8.712  0.00  0.00    +0.209 C 
BRANCH  29  30
ATOM     30  C   UNL     1      -0.687   3.955  -8.050  0.00  0.00    +0.228 C 
ATOM     31  O   UNL     1      -0.955   4.033  -6.869  0.00  0.00    -0.274 OA
ATOM     32  N   UNL     1      -0.478   5.075  -8.769  0.00  0.00    -0.328 N 
ATOM     33  H   UNL     1      -0.264   5.013  -9.713  0.00  0.00    +0.145 HD
ATOM     34  H   UNL     1      -0.542   5.944  -8.343  0.00  0.00    +0.145 HD
ENDBRANCH  29  30
ENDBRANCH  16  29
TORSDOF 4
