REMARK  Name = ZINC19010423
REMARK  12 active torsions:
REMARK  status: ('A' for Active; 'I' for Inactive)
REMARK    1  A    between atoms: C_1  and  O_2
REMARK    2  A    between atoms: O_2  and  C_3
REMARK    3  A    between atoms: C_3  and  C_4
REMARK    4  A    between atoms: C_4  and  N_5
REMARK    5  A    between atoms: C_6  and  C_8
REMARK    6  A    between atoms: C_12  and  N_13
REMARK    7  A    between atoms: C_14  and  C_16
REMARK    8  A    between atoms: C_16  and  O_17
REMARK    9  A    between atoms: O_17  and  C_18
REMARK   10  A    between atoms: C_18  and  C_20
REMARK   11  A    between atoms: C_23  and  O_27
REMARK   12  A    between atoms: C_25  and  O_26
REMARK                            x       y       z     vdW  Elec       q    Type
REMARK                         _______ _______ _______ _____ _____    ______ ____
ROOT
ATOM      1  N   UNL     1      -0.017   1.382   0.010  0.00  0.00    -0.277 N 
ATOM      2  C   UNL     1       1.141   2.072   0.002  0.00  0.00    +0.255 C 
ATOM      3  O   UNL     1       2.200   1.480  -0.011  0.00  0.00    -0.272 OA
ATOM      4  H   UNL     1      -0.863   1.856   0.016  0.00  0.00    +0.155 HD
ENDROOT
BRANCH   1   9
ATOM      5  C   UNL     1      -1.073  -0.881   0.013  0.00  0.00    +0.069 A 
ATOM      6  C   UNL     1      -0.780  -2.304  -0.003  0.00  0.00    -0.023 A 
ATOM      7  C   UNL     1       0.533  -2.620  -0.016  0.00  0.00    -0.004 A 
ATOM      8  S   UNL     1       1.374  -1.062  -0.016  0.00  0.00    -0.077 S 
ATOM      9  C   UNL     1       0.002  -0.004   0.002  0.00  0.00    +0.084 A 
ATOM     10  C   UNL     1       1.132  -3.993  -0.028  0.00  0.00    +0.043 C 
ATOM     11  C   UNL     1       0.038  -5.000   0.356  0.00  0.00    +0.005 C 
ATOM     12  C   UNL     1      -1.218  -4.703  -0.467  0.00  0.00    +0.005 C 
ATOM     13  C   UNL     1      -1.848  -3.390   0.002  0.00  0.00    +0.037 C 
BRANCH   5  15
ATOM     14  N   UNL     1      -3.072  -0.170   1.214  0.00  0.00    -0.309 N 
ATOM     15  C   UNL     1      -2.455  -0.390   0.036  0.00  0.00    +0.247 C 
ATOM     16  O   UNL     1      -3.044  -0.181  -1.008  0.00  0.00    -0.270 OA
ATOM     17  H   UNL     1      -2.603  -0.337   2.046  0.00  0.00    +0.149 HD
BRANCH  14  18
ATOM     18  C   UNL     1      -4.452   0.321   1.237  0.00  0.00    +0.132 C 
BRANCH  18  19
ATOM     19  C   UNL     1      -4.911   0.484   2.687  0.00  0.00    +0.178 C 
BRANCH  19  21
ATOM     20  C   UNL     1      -4.487   1.739   4.685  0.00  0.00    +0.194 C 
ATOM     21  O   UNL     1      -4.136   1.505   3.320  0.00  0.00    -0.381 OA
ENDBRANCH  19  21
ENDBRANCH  18  19
ENDBRANCH  14  18
ENDBRANCH   5  15
ENDBRANCH   1   9
BRANCH   2  22
ATOM     22  C   UNL     1       1.121   3.579   0.011  0.00  0.00    +0.328 C 
BRANCH  22  23
ATOM     23  O   UNL     1       2.483   4.082   0.000  0.00  0.00    -0.452 OA
BRANCH  23  24
ATOM     24  C   UNL     1       2.641   5.420   0.006  0.00  0.00    +0.343 C 
ATOM     25  O   UNL     1       1.668   6.147   0.019  0.00  0.00    -0.245 OA
BRANCH  24  26
ATOM     26  C   UNL     1       3.993   6.001  -0.004  0.00  0.00    +0.100 A 
ATOM     27  C   UNL     1       5.116   5.167  -0.019  0.00  0.00    +0.022 A 
ATOM     28  C   UNL     1       6.370   5.707  -0.029  0.00  0.00    +0.046 A 
ATOM     29  C   UNL     1       6.542   7.088  -0.023  0.00  0.00    +0.120 A 
ATOM     30  C   UNL     1       5.439   7.930  -0.008  0.00  0.00    +0.091 A 
ATOM     31  C   UNL     1       4.162   7.395  -0.004  0.00  0.00    +0.134 A 
BRANCH  31  32
ATOM     32  O   UNL     1       3.080   8.212   0.005  0.00  0.00    -0.506 OA
ATOM     33  H   UNL     1       2.773   8.449   0.891  0.00  0.00    +0.292 HD
ENDBRANCH  31  32
BRANCH  29  34
ATOM     34  O   UNL     1       7.793   7.614  -0.034  0.00  0.00    -0.507 OA
ATOM     35  H   UNL     1       8.146   7.771  -0.920  0.00  0.00    +0.292 HD
ENDBRANCH  29  34
ENDBRANCH  24  26
ENDBRANCH  23  24
ENDBRANCH  22  23
ENDBRANCH   2  22
TORSDOF 11
