REMARK  Name = ZINC66136132
REMARK  9 active torsions:
REMARK  status: ('A' for Active; 'I' for Inactive)
REMARK    1  A    between atoms: C_1  and  C_2
REMARK    2  A    between atoms: C_2  and  N_3
REMARK    3  A    between atoms: C_4  and  C_6
REMARK    4  A    between atoms: C_7  and  C_24
REMARK    5  A    between atoms: C_11  and  C_12
REMARK    6  A    between atoms: C_12  and  C_14
REMARK    7  A    between atoms: C_12  and  O_15
REMARK    8  A    between atoms: O_15  and  C_16
REMARK    9  A    between atoms: C_20  and  C_22
REMARK                            x       y       z     vdW  Elec       q    Type
REMARK                         _______ _______ _______ _____ _____    ______ ____
ROOT
ATOM      1  C   UNL     1       1.751  -1.914  -2.826  0.00  0.00    +0.083 A 
ATOM      2  C   UNL     1       3.128  -2.151  -2.926  0.00  0.00    +0.056 A 
ATOM      3  N   UNL     1       3.598  -2.748  -4.005  0.00  0.00    -0.219 NA
ATOM      4  C   UNL     1       2.786  -3.121  -4.986  0.00  0.00    +0.213 A 
ATOM      5  N   UNL     1       1.477  -2.915  -4.929  0.00  0.00    -0.215 NA
ATOM      6  C   UNL     1       0.928  -2.330  -3.881  0.00  0.00    +0.099 A 
ATOM      7  N   UNL     1       3.319  -3.742  -6.096  0.00  0.00    -0.327 N 
ATOM      8  C   UNL     1       4.059  -1.730  -1.818  0.00  0.00    +0.066 C 
ATOM      9  H   UNL     1       4.274  -3.899  -6.153  0.00  0.00    +0.145 HD
ATOM     10  H   UNL     1       2.738  -4.021  -6.822  0.00  0.00    +0.145 HD
ENDROOT
BRANCH   1  12
ATOM     11  N   UNL     1       1.057   0.092  -1.611  0.00  0.00    -0.312 N 
ATOM     12  C   UNL     1       1.181  -1.250  -1.638  0.00  0.00    +0.248 C 
ATOM     13  O   UNL     1       0.823  -1.913  -0.684  0.00  0.00    -0.270 OA
ATOM     14  H   UNL     1       1.342   0.621  -2.372  0.00  0.00    +0.149 HD
BRANCH  11  16
ATOM     15  C   UNL     1       0.463   2.264  -0.657  0.00  0.00    +0.024 C 
ATOM     16  C   UNL     1       0.491   0.751  -0.431  0.00  0.00    +0.101 C 
ENDBRANCH  11  16
ENDBRANCH   1  12
BRANCH   6  17
ATOM     17  C   UNL     1      -0.561  -2.106  -3.823  0.00  0.00    +0.220 C 
ATOM     18  C   UNL     1      -1.265  -3.432  -3.524  0.00  0.00    +0.059 C 
BRANCH  17  19
ATOM     19  O   UNL     1      -1.016  -1.599  -5.079  0.00  0.00    -0.483 OA
BRANCH  19  20
ATOM     20  C   UNL     1      -2.163  -0.870  -5.072  0.00  0.00    +0.122 A 
ATOM     21  C   UNL     1      -2.895  -0.739  -3.900  0.00  0.00    +0.046 A 
ATOM     22  C   UNL     1      -4.060   0.003  -3.895  0.00  0.00    +0.004 A 
ATOM     23  C   UNL     1      -4.498   0.614  -5.056  0.00  0.00    +0.003 A 
ATOM     24  C   UNL     1      -3.771   0.483  -6.224  0.00  0.00    -0.047 A 
ATOM     25  C   UNL     1      -2.602  -0.253  -6.234  0.00  0.00    +0.049 A 
ATOM     26  C   UNL     1      -4.252   1.149  -7.488  0.00  0.00    +0.044 C 
ENDBRANCH  19  20
ENDBRANCH  17  19
ENDBRANCH   6  17
TORSDOF 5
