REMARK  Name = ZINC09220300
REMARK  11 active torsions:
REMARK  status: ('A' for Active; 'I' for Inactive)
REMARK    1  A    between atoms: C_1  and  C_2
REMARK    2  A    between atoms: C_2  and  C_3
REMARK    3  A    between atoms: C_8  and  N_9
REMARK    4  A    between atoms: N_9  and  C_10
REMARK    5  A    between atoms: C_10  and  C_11
REMARK    6  A    between atoms: N_13  and  C_14
REMARK    7  A    between atoms: N_13  and  C_16
REMARK    8  A    between atoms: C_14  and  C_15
REMARK    9  A    between atoms: C_17  and  N_32
REMARK   10  A    between atoms: N_18  and  C_25
REMARK   11  A    between atoms: C_25  and  C_26
REMARK                            x       y       z     vdW  Elec       q    Type
REMARK                         _______ _______ _______ _____ _____    ______ ____
ROOT
ATOM      1  C   UNL     1       1.160   2.937   0.046  0.00  0.00    +0.140 A 
ATOM      2  C   UNL     1       0.749   2.269   1.181  0.00  0.00    +0.128 A 
ATOM      3  N   UNL     1      -0.425   1.551   1.149  0.00  0.00    -0.276 N 
ATOM      4  C   UNL     1      -1.165   1.506   0.027  0.00  0.00    +0.331 A 
ATOM      5  O   UNL     1      -2.201   0.870   0.021  0.00  0.00    -0.246 OA
ATOM      6  N   UNL     1      -0.777   2.146  -1.090  0.00  0.00    -0.273 N 
ATOM      7  H   UNL     1      -1.342   2.090  -1.914  0.00  0.00    +0.173 HD
ATOM      8  C   UNL     1       0.364   2.863  -1.113  0.00  0.00    +0.277 A 
ATOM      9  O   UNL     1       0.704   3.443  -2.130  0.00  0.00    -0.266 OA
ENDROOT
BRANCH   1  12
ATOM     10  C   UNL     1       2.319   5.023  -0.093  0.00  0.00    +0.237 C 
ATOM     11  O   UNL     1       1.252   5.598  -0.129  0.00  0.00    -0.274 OA
ATOM     12  N   UNL     1       2.359   3.681   0.046  0.00  0.00    -0.263 N 
BRANCH  12  13
ATOM     13  C   UNL     1       3.646   2.998   0.198  0.00  0.00    +0.110 C 
ATOM     14  C   UNL     1       4.247   2.731  -1.183  0.00  0.00    +0.025 C 
ENDBRANCH  12  13
BRANCH  10  15
ATOM     15  C   UNL     1       3.602   5.807  -0.205  0.00  0.00    +0.198 C 
BRANCH  15  16
ATOM     16  N   UNL     1       3.292   7.232  -0.347  0.00  0.00    -0.335 N 
ATOM     17  H   UNL     1       2.369   7.529  -0.357  0.00  0.00    +0.147 HD
BRANCH  16  23
ATOM     18  C   UNL     1       4.035   9.514  -0.603  0.00  0.00    -0.027 A 
ATOM     19  C   UNL     1       5.061  10.431  -0.722  0.00  0.00    +0.005 A 
ATOM     20  C   UNL     1       6.376  10.006  -0.706  0.00  0.00    +0.000 A 
ATOM     21  C   UNL     1       6.670   8.661  -0.573  0.00  0.00    +0.002 A 
ATOM     22  C   UNL     1       5.650   7.739  -0.448  0.00  0.00    +0.023 A 
ATOM     23  C   UNL     1       4.327   8.162  -0.468  0.00  0.00    +0.031 A 
BRANCH  18  25
ATOM     24  C   UNL     1       2.111  10.166   0.819  0.00  0.00    +0.009 C 
ATOM     25  C   UNL     1       2.602   9.978  -0.618  0.00  0.00    +0.033 C 
ENDBRANCH  18  25
ENDBRANCH  16  23
ENDBRANCH  15  16
ENDBRANCH  10  15
ENDBRANCH   1  12
BRANCH   2  26
ATOM     26  N   UNL     1       1.502   2.319   2.329  0.00  0.00    -0.343 N 
ATOM     27  H   UNL     1       2.349   2.792   2.333  0.00  0.00    +0.144 HD
ATOM     28  H   UNL     1       1.187   1.883   3.136  0.00  0.00    +0.144 HD
ENDBRANCH   2  26
BRANCH   3  29
ATOM     29  C   UNL     1      -0.874   0.837   2.347  0.00  0.00    +0.163 C 
BRANCH  29  30
ATOM     30  C   UNL     1      -1.744   1.746   3.177  0.00  0.00    -0.028 A 
ATOM     31  C   UNL     1      -1.177   2.544   4.153  0.00  0.00    +0.005 A 
ATOM     32  C   UNL     1      -1.975   3.381   4.911  0.00  0.00    +0.000 A 
ATOM     33  C   UNL     1      -3.341   3.412   4.699  0.00  0.00    +0.000 A 
ATOM     34  C   UNL     1      -3.908   2.610   3.727  0.00  0.00    +0.000 A 
ATOM     35  C   UNL     1      -3.110   1.777   2.965  0.00  0.00    +0.005 A 
ENDBRANCH  29  30
ENDBRANCH   3  29
TORSDOF 9
