REMARK  Name = ZINC12114624
REMARK  5 active torsions:
REMARK  status: ('A' for Active; 'I' for Inactive)
REMARK    1  A    between atoms: C_1  and  N_2
REMARK    2  A    between atoms: C_6  and  C_7
REMARK    3  A    between atoms: C_7  and  O_29
REMARK    4  A    between atoms: C_12  and  C_13
REMARK    5  A    between atoms: C_12  and  N_54
REMARK                            x       y       z     vdW  Elec       q    Type
REMARK                         _______ _______ _______ _____ _____    ______ ____
ROOT
ATOM      1  C   UNL     1      -1.011  -2.184   0.706  0.00  0.00    +0.019 C 
ENDROOT
BRANCH   1   2
ATOM      2  C   UNL     1      -0.861  -0.688   0.801  0.00  0.00    +0.208 C 
ATOM      3  O   UNL     1      -1.429  -0.076   1.682  0.00  0.00    -0.277 OA
ATOM      4  N   UNL     1      -0.097  -0.029  -0.092  0.00  0.00    -0.240 N 
ATOM      5  C   UNL     1       0.662  -0.764  -1.013  0.00  0.00    +0.055 A 
ATOM      6  C   UNL     1       1.272  -1.948  -0.629  0.00  0.00    +0.025 A 
ATOM      7  C   UNL     1       2.018  -2.669  -1.544  0.00  0.00    +0.002 A 
ATOM      8  C   UNL     1       2.168  -2.214  -2.840  0.00  0.00    +0.001 A 
ATOM      9  C   UNL     1       1.566  -1.031  -3.233  0.00  0.00    +0.017 A 
ATOM     10  C   UNL     1       0.815  -0.308  -2.324  0.00  0.00    +0.035 A 
ATOM     11  S   UNL     1       0.036   1.204  -2.796  0.00  0.00    -0.086 S 
ATOM     12  C   UNL     1      -0.022   2.091  -1.271  0.00  0.00    +0.035 A 
ATOM     13  C   UNL     1      -0.083   1.371  -0.075  0.00  0.00    +0.055 A 
ATOM     14  C   UNL     1      -0.129   2.057   1.129  0.00  0.00    +0.025 A 
ATOM     15  C   UNL     1      -0.114   3.440   1.138  0.00  0.00    +0.002 A 
ATOM     16  C   UNL     1      -0.053   4.148  -0.048  0.00  0.00    +0.001 A 
ATOM     17  C   UNL     1      -0.007   3.474  -1.257  0.00  0.00    +0.017 A 
ENDBRANCH   1   2
BRANCH   1  23
ATOM     18  C   UNL     1      -4.787  -3.745   1.966  0.00  0.00    +0.120 C 
ATOM     19  C   UNL     1      -3.502  -4.490   2.336  0.00  0.00    +0.024 C 
ATOM     20  C   UNL     1      -2.379  -4.061   1.390  0.00  0.00    -0.075 C 
ATOM     21  C   UNL     1      -3.380  -1.873   1.100  0.00  0.00    -0.075 C 
ATOM     22  C   UNL     1      -4.533  -2.237   2.038  0.00  0.00    +0.024 C 
ATOM     23  N   UNL     1      -2.167  -2.604   1.525  0.00  0.00    +0.386 N 
ATOM     24  H   UNL     1      -1.974  -2.386   2.510  0.00  0.00    -0.081 HD
BRANCH  18  30
ATOM     25  C   UNL     1      -6.073  -6.544   2.298  0.00  0.00    +0.150 C 
ATOM     26  N   UNL     1      -6.431  -5.346   3.062  0.00  0.00    -0.335 N 
ATOM     27  C   UNL     1      -7.382  -5.262   4.043  0.00  0.00    +0.106 A 
ATOM     28  C   UNL     1      -7.388  -3.985   4.472  0.00  0.00    +0.130 A 
ATOM     29  N   UNL     1      -6.462  -3.309   3.775  0.00  0.00    -0.238 NA
ATOM     30  C   UNL     1      -5.883  -4.119   2.931  0.00  0.00    +0.141 A 
ENDBRANCH  18  30
BRANCH  18  31
ATOM     31  O   UNL     1      -5.179  -4.100   0.638  0.00  0.00    -0.381 OA
ATOM     32  H   UNL     1      -5.988  -3.664   0.337  0.00  0.00    +0.211 HD
ENDBRANCH  18  31
ENDBRANCH   1  23
TORSDOF 4
