REMARK  Name = ZINC56206794
REMARK  11 active torsions:
REMARK  status: ('A' for Active; 'I' for Inactive)
REMARK    1  A    between atoms: C_1  and  C_2
REMARK    2  A    between atoms: C_5  and  N_9
REMARK    3  A    between atoms: C_6  and  C_8
REMARK    4  A    between atoms: C_10  and  C_12
REMARK    5  A    between atoms: C_12  and  C_14
REMARK    6  A    between atoms: C_12  and  N_15
REMARK    7  A    between atoms: N_15  and  C_16
REMARK    8  A    between atoms: C_19  and  O_23
REMARK    9  A    between atoms: C_21  and  C_22
REMARK   10  A    between atoms: O_23  and  C_24
REMARK   11  A    between atoms: C_24  and  C_25
REMARK                            x       y       z     vdW  Elec       q    Type
REMARK                         _______ _______ _______ _____ _____    ______ ____
ROOT
ATOM      1  N   UNL     1      -0.232  -6.826  -2.567  0.00  0.00    -0.333 N 
ATOM      2  H   UNL     1      -0.586  -6.246  -3.259  0.00  0.00    +0.147 HD
ENDROOT
BRANCH   1   3
ATOM      3  C   UNL     1       0.185  -8.123  -2.885  0.00  0.00    +0.031 A 
ATOM      4  C   UNL     1       0.687  -8.955  -1.893  0.00  0.00    +0.027 A 
ATOM      5  C   UNL     1       1.099 -10.235  -2.208  0.00  0.00    +0.047 A 
ATOM      6  C   UNL     1       1.011 -10.690  -3.515  0.00  0.00    +0.122 A 
ATOM      7  C   UNL     1       0.510  -9.860  -4.507  0.00  0.00    +0.050 A 
ATOM      8  C   UNL     1       0.093  -8.581  -4.193  0.00  0.00    -0.026 A 
ATOM      9  C   UNL     1      -0.457  -7.681  -5.269  0.00  0.00    +0.046 C 
BRANCH   6  10
ATOM     10  O   UNL     1       1.417 -11.950  -3.825  0.00  0.00    -0.483 OA
BRANCH  10  11
ATOM     11  C   UNL     1       1.922 -12.750  -2.754  0.00  0.00    +0.324 C 
BRANCH  11  12
ATOM     12  C   UNL     1       2.319 -14.104  -3.283  0.00  0.00    +0.248 C 
ATOM     13  O   UNL     1       2.183 -14.359  -4.461  0.00  0.00    -0.272 OA
ATOM     14  N   UNL     1       2.826 -15.032  -2.447  0.00  0.00    -0.327 N 
ATOM     15  H   UNL     1       2.935 -14.829  -1.505  0.00  0.00    +0.145 HD
ATOM     16  H   UNL     1       3.082 -15.904  -2.788  0.00  0.00    +0.145 HD
ENDBRANCH  11  12
ENDBRANCH  10  11
ENDBRANCH   6  10
ENDBRANCH   1   3
BRANCH   1  17
ATOM     17  C   UNL     1      -0.134  -6.343  -1.187  0.00  0.00    +0.154 C 
ATOM     18  C   UNL     1      -1.376  -6.777  -0.406  0.00  0.00    +0.038 C 
BRANCH  17  20
ATOM     19  N   UNL     1       0.059  -4.170  -0.021  0.00  0.00    -0.284 N 
ATOM     20  C   UNL     1      -0.040  -4.839  -1.187  0.00  0.00    +0.237 C 
ATOM     21  O   UNL     1      -0.054  -4.230  -2.236  0.00  0.00    -0.273 OA
ATOM     22  H   UNL     1       0.135  -4.658   0.814  0.00  0.00    +0.155 HD
BRANCH  19  27
ATOM     23  C   UNL     1       0.025   1.503   0.005  0.00  0.00    +0.044 C 
ATOM     24  C   UNL     1       0.034  -0.004  -0.002  0.00  0.00    -0.050 A 
ATOM     25  C   UNL     1       0.631  -0.685  -1.046  0.00  0.00    +0.005 A 
ATOM     26  C   UNL     1       0.641  -2.066  -1.055  0.00  0.00    +0.024 A 
ATOM     27  C   UNL     1       0.051  -2.771  -0.014  0.00  0.00    +0.036 A 
ATOM     28  C   UNL     1      -0.548  -2.083   1.033  0.00  0.00    -0.029 A 
ATOM     29  C   UNL     1      -0.550  -0.702   1.039  0.00  0.00    +0.008 A 
ATOM     30  C   UNL     1      -1.190  -2.844   2.165  0.00  0.00    +0.045 C 
ENDBRANCH  19  27
ENDBRANCH  17  20
ENDBRANCH   1  17
TORSDOF 7
