REMARK  Name = ZINC59829900
REMARK  14 active torsions:
REMARK  status: ('A' for Active; 'I' for Inactive)
REMARK    1  A    between atoms: C_1  and  C_2
REMARK    2  A    between atoms: C_4  and  O_32
REMARK    3  A    between atoms: C_7  and  N_8
REMARK    4  A    between atoms: C_9  and  C_11
REMARK    5  A    between atoms: C_11  and  S_12
REMARK    6  A    between atoms: S_12  and  C_13
REMARK    7  A    between atoms: N_17  and  N_18
REMARK    8  A    between atoms: N_19  and  N_20
REMARK    9  A    between atoms: C_21  and  C_22
REMARK   10  A    between atoms: C_23  and  C_31
REMARK   11  A    between atoms: N_25  and  C_28
REMARK   12  A    between atoms: C_26  and  C_27
REMARK   13  A    between atoms: C_28  and  C_29
REMARK   14  A    between atoms: O_32  and  C_33
REMARK                            x       y       z     vdW  Elec       q    Type
REMARK                         _______ _______ _______ _____ _____    ______ ____
ROOT
ATOM      1  C   UNL     1      -0.383  -0.107   7.688  0.00  0.00    +0.210 A 
ATOM      2  N   UNL     1      -0.406   1.204   7.703  0.00  0.00    -0.119 NA
ATOM      3  N   UNL     1      -0.513   1.620   9.036  0.00  0.00    -0.109 NA
ATOM      4  C   UNL     1      -0.551   0.550   9.793  0.00  0.00    +0.254 A 
ATOM      5  N   UNL     1      -0.477  -0.546   8.978  0.00  0.00    -0.211 N 
ATOM      6  N   UNL     1      -0.654   0.532  11.176  0.00  0.00    -0.204 N 
ATOM      7  H   UNL     1      -0.674  -0.314  11.650  0.00  0.00    +0.177 HD
ENDROOT
BRANCH   5   8
ATOM      8  N   UNL     1      -0.492  -1.850   9.383  0.00  0.00    -0.294 N 
ATOM      9  H   UNL     1       0.443  -2.184   9.564  0.00  0.00    +0.163 HD
ATOM     10  H   UNL     1      -1.082  -1.970  10.194  0.00  0.00    +0.163 HD
ENDBRANCH   5   8
BRANCH   6  11
ATOM     11  N   UNL     1      -0.728   1.736  11.888  0.00  0.00    -0.187 NA
ATOM     12  C   UNL     1      -0.825   1.720  13.182  0.00  0.00    +0.141 C 
BRANCH  12  13
ATOM     13  C   UNL     1      -0.903   2.988  13.933  0.00  0.00    +0.038 A 
ATOM     14  C   UNL     1      -0.891   4.288  13.383  0.00  0.00    +0.069 A 
ATOM     15  N   UNL     1      -0.977   5.146  14.364  0.00  0.00    -0.175 NA
ATOM     16  N   UNL     1      -1.048   4.444  15.573  0.00  0.00    -0.264 N 
ATOM     17  C   UNL     1      -1.007   3.123  15.300  0.00  0.00    +0.045 A 
ATOM     18  C   UNL     1      -1.062   2.002  16.306  0.00  0.00    +0.066 C 
ATOM     19  C   UNL     1      -0.795   4.628  11.918  0.00  0.00    +0.068 C 
BRANCH  16  20
ATOM     20  C   UNL     1      -1.153   5.041  16.906  0.00  0.00    +0.170 C 
BRANCH  20  21
ATOM     21  C   UNL     1      -2.606   5.216  17.265  0.00  0.00    -0.012 C 
ATOM     22  C   UNL     1      -3.074   4.699  18.374  0.00  0.00    +0.006 C 
ENDBRANCH  20  21
ENDBRANCH  16  20
ENDBRANCH  12  13
ENDBRANCH   6  11
BRANCH   1  23
ATOM     23  S   UNL     1      -0.258  -1.124   6.254  0.00  0.00    -0.075 S 
BRANCH  23  24
ATOM     24  C   UNL     1      -0.167   0.059   4.883  0.00  0.00    +0.173 C 
BRANCH  24  26
ATOM     25  N   UNL     1       0.025  -0.011   2.418  0.00  0.00    -0.285 N 
ATOM     26  C   UNL     1      -0.056  -0.689   3.580  0.00  0.00    +0.227 C 
ATOM     27  O   UNL     1      -0.040  -1.902   3.577  0.00  0.00    -0.275 OA
ATOM     28  H   UNL     1       0.079   0.957   2.424  0.00  0.00    +0.155 HD
BRANCH  25  35
ATOM     29  C   UNL     1      -1.264   1.184   0.182  0.00  0.00    +0.046 C 
ATOM     30  C   UNL     1      -0.584  -0.158   0.085  0.00  0.00    -0.026 A 
ATOM     31  C   UNL     1      -0.571  -0.840  -1.116  0.00  0.00    +0.050 A 
ATOM     32  C   UNL     1       0.055  -2.074  -1.206  0.00  0.00    +0.120 A 
ATOM     33  C   UNL     1       0.668  -2.625  -0.089  0.00  0.00    +0.047 A 
ATOM     34  C   UNL     1       0.655  -1.944   1.111  0.00  0.00    +0.027 A 
ATOM     35  C   UNL     1       0.034  -0.705   1.201  0.00  0.00    +0.037 A 
BRANCH  32  36
ATOM     36  O   UNL     1       0.067  -2.745  -2.388  0.00  0.00    -0.495 OA
ATOM     37  C   UNL     1       0.729  -4.012  -2.409  0.00  0.00    +0.277 C 
ENDBRANCH  32  36
ENDBRANCH  25  35
ENDBRANCH  24  26
ENDBRANCH  23  24
ENDBRANCH   1  23
TORSDOF 10
