REMARK  Name = ZINC13020500
REMARK  9 active torsions:
REMARK  status: ('A' for Active; 'I' for Inactive)
REMARK    1  A    between atoms: C_1  and  C_2
REMARK    2  A    between atoms: C_5  and  C_8
REMARK    3  A    between atoms: C_11  and  S_16
REMARK    4  A    between atoms: N_12  and  C_13
REMARK    5  A    between atoms: C_13  and  C_14
REMARK    6  A    between atoms: S_16  and  C_17
REMARK    7  A    between atoms: C_17  and  C_18
REMARK    8  A    between atoms: N_23  and  C_24
REMARK    9  A    between atoms: C_24  and  C_25
REMARK                            x       y       z     vdW  Elec       q    Type
REMARK                         _______ _______ _______ _____ _____    ______ ____
ROOT
ATOM      1  C   UNL     1      -3.690  -1.308   0.080  0.00  0.00    +0.165 A 
ATOM      2  N   UNL     1      -3.824  -0.003   0.077  0.00  0.00    -0.128 NA
ATOM      3  N   UNL     1      -2.668   0.556   0.013  0.00  0.00    -0.122 NA
ATOM      4  C   UNL     1      -1.726  -0.359  -0.037  0.00  0.00    +0.193 A 
ATOM      5  N   UNL     1      -2.343  -1.577   0.007  0.00  0.00    -0.291 N 
ENDROOT
BRANCH   1  10
ATOM      6  C   UNL     1      -7.939  -5.180   0.350  0.00  0.00    +0.044 C 
ATOM      7  C   UNL     1      -6.827  -4.166   0.279  0.00  0.00    -0.050 A 
ATOM      8  C   UNL     1      -7.097  -2.874  -0.134  0.00  0.00    +0.004 A 
ATOM      9  C   UNL     1      -6.083  -1.941  -0.201  0.00  0.00    +0.012 A 
ATOM     10  C   UNL     1      -4.782  -2.303   0.149  0.00  0.00    +0.019 A 
ATOM     11  C   UNL     1      -4.514  -3.610   0.560  0.00  0.00    +0.012 A 
ATOM     12  C   UNL     1      -5.539  -4.532   0.628  0.00  0.00    +0.004 A 
ENDBRANCH   1  10
BRANCH   5  13
ATOM     13  C   UNL     1      -1.703  -2.894  -0.018  0.00  0.00    +0.250 C 
BRANCH  13  14
ATOM     14  C   UNL     1      -1.352  -3.309   1.387  0.00  0.00    +0.375 C 
ATOM     15  O   UNL     1      -1.609  -2.579   2.315  0.00  0.00    -0.244 OA
ATOM     16  O   UNL     1      -0.752  -4.490   1.609  0.00  0.00    -0.244 OA
ENDBRANCH  13  14
ENDBRANCH   5  13
BRANCH   4  17
ATOM     17  S   UNL     1       0.009  -0.069  -0.136  0.00  0.00    -0.077 S 
BRANCH  17  18
ATOM     18  C   UNL     1       0.025   1.741  -0.152  0.00  0.00    +0.173 C 
BRANCH  18  19
ATOM     19  C   UNL     1       1.448   2.230  -0.235  0.00  0.00    +0.231 C 
ATOM     20  O   UNL     1       2.361   1.433  -0.279  0.00  0.00    -0.274 OA
ATOM     21  N   UNL     1       1.705   3.553  -0.260  0.00  0.00    -0.240 N 
ATOM     22  C   UNL     1       2.978   3.990  -0.334  0.00  0.00    +0.306 C 
ATOM     23  O   UNL     1       3.893   3.192  -0.378  0.00  0.00    -0.252 OA
ATOM     24  N   UNL     1       3.236   5.313  -0.359  0.00  0.00    -0.291 N 
ATOM     25  H   UNL     1       0.975   4.190  -0.225  0.00  0.00    +0.159 HD
ATOM     26  H   UNL     1       2.505   5.950  -0.324  0.00  0.00    +0.151 HD
BRANCH  24  27
ATOM     27  C   UNL     1       4.619   5.788  -0.440  0.00  0.00    +0.219 C 
BRANCH  27  28
ATOM     28  C   UNL     1       4.632   7.318  -0.453  0.00  0.00    +0.405 C 
ATOM     29  F   UNL     1       4.041   7.800   0.720  0.00  0.00    -0.169 F 
ATOM     30  F   UNL     1       5.953   7.772  -0.530  0.00  0.00    -0.169 F 
ATOM     31  F   UNL     1       3.914   7.781  -1.561  0.00  0.00    -0.169 F 
ENDBRANCH  27  28
ENDBRANCH  24  27
ENDBRANCH  18  19
ENDBRANCH  17  18
ENDBRANCH   4  17
TORSDOF 8
