REMARK  Name = ZINC66663422
REMARK  6 active torsions:
REMARK  status: ('A' for Active; 'I' for Inactive)
REMARK    1  A    between atoms: C_3  and  C_9
REMARK    2  A    between atoms: C_9  and  N_10
REMARK    3  A    between atoms: C_11  and  N_15
REMARK    4  A    between atoms: C_16  and  C_18
REMARK    5  A    between atoms: C_18  and  N_19
REMARK    6  A    between atoms: N_22  and  C_23
REMARK                            x       y       z     vdW  Elec       q    Type
REMARK                         _______ _______ _______ _____ _____    ______ ____
ROOT
ATOM      1  N   UNL     1       4.227   2.223   1.332  0.00  0.00    -0.246 N 
ATOM      2  C   UNL     1       3.975   3.164   2.270  0.00  0.00    +0.124 A 
ATOM      3  C   UNL     1       4.683   2.833   3.385  0.00  0.00    +0.065 A 
ATOM      4  C   UNL     1       5.385   1.656   3.112  0.00  0.00    +0.136 A 
ATOM      5  N   UNL     1       5.109   1.287   1.887  0.00  0.00    -0.178 NA
ENDROOT
BRANCH   2   6
ATOM      6  N   UNL     1       3.142   4.272   2.122  0.00  0.00    -0.269 N 
ATOM      7  C   UNL     1       2.980   5.136   3.145  0.00  0.00    +0.235 C 
ATOM      8  O   UNL     1       3.560   4.948   4.194  0.00  0.00    -0.274 OA
ATOM      9  H   UNL     1       2.678   4.422   1.283  0.00  0.00    +0.156 HD
BRANCH   7  10
ATOM     10  C   UNL     1       2.080   6.333   2.985  0.00  0.00    +0.202 C 
BRANCH  10  11
ATOM     11  N   UNL     1       2.073   7.109   4.228  0.00  0.00    -0.291 N 
ATOM     12  C   UNL     1       1.332   8.231   4.318  0.00  0.00    +0.300 C 
ATOM     13  O   UNL     1       0.669   8.600   3.368  0.00  0.00    -0.253 OA
ATOM     14  N   UNL     1       1.327   8.944   5.461  0.00  0.00    -0.297 N 
ATOM     15  H   UNL     1       2.602   6.815   4.986  0.00  0.00    +0.151 HD
ATOM     16  H   UNL     1       1.856   8.650   6.219  0.00  0.00    +0.151 HD
BRANCH  14  17
ATOM     17  C   UNL     1       0.521  10.164   5.559  0.00  0.00    +0.075 C 
ATOM     18  C   UNL     1       1.165  11.385   6.220  0.00  0.00    +0.024 C 
ATOM     19  C   UNL     1       0.073  10.604   6.954  0.00  0.00    +0.024 C 
ENDBRANCH  14  17
ENDBRANCH  10  11
ENDBRANCH   7  10
ENDBRANCH   2   6
BRANCH   1  20
ATOM     20  C   UNL     1       3.671   2.185  -0.023  0.00  0.00    +0.182 C 
BRANCH  20  23
ATOM     21  C   UNL     1      -0.017   1.379   0.010  0.00  0.00    +0.020 A 
ATOM     22  C   UNL     1       1.171   2.087   0.002  0.00  0.00    +0.008 A 
ATOM     23  C   UNL     1       2.377   1.413  -0.013  0.00  0.00    -0.008 A 
ATOM     24  C   UNL     1       2.397   0.029  -0.021  0.00  0.00    +0.047 A 
ATOM     25  C   UNL     1       1.210  -0.679  -0.013  0.00  0.00    +0.040 A 
ATOM     26  C   UNL     1       0.002  -0.004   0.002  0.00  0.00    +0.042 A 
ATOM     27 CL   UNL     1      -1.489  -0.893   0.012  0.00  0.00    -0.083 Cl
ATOM     28 CL   UNL     1       3.913  -0.817  -0.041  0.00  0.00    -0.083 Cl
ENDBRANCH  20  23
ENDBRANCH   1  20
TORSDOF 6
