REMARK  Name = ZINC12568606
REMARK  15 active torsions:
REMARK  status: ('A' for Active; 'I' for Inactive)
REMARK    1  A    between atoms: C_1  and  C_2
REMARK    2  A    between atoms: C_2  and  N_3
REMARK    3  A    between atoms: N_3  and  C_4
REMARK    4  A    between atoms: N_3  and  C_6
REMARK    5  A    between atoms: C_4  and  C_5
REMARK    6  A    between atoms: C_9  and  C_12
REMARK    7  A    between atoms: N_14  and  N_15
REMARK    8  A    between atoms: C_16  and  C_18
REMARK    9  A    between atoms: C_18  and  O_19
REMARK   10  A    between atoms: O_19  and  C_20
REMARK   11  A    between atoms: C_20  and  C_22
REMARK   12  A    between atoms: C_22  and  N_23
REMARK   13  A    between atoms: C_28  and  C_35
REMARK   14  A    between atoms: C_31  and  C_33
REMARK   15  A    between atoms: C_31  and  C_34
REMARK                            x       y       z     vdW  Elec       q    Type
REMARK                         _______ _______ _______ _____ _____    ______ ____
ROOT
ATOM      1  C   UNL     1       2.352   0.588  -0.020  0.00  0.00    +0.329 C 
ENDROOT
BRANCH   1   3
ATOM      2  N   UNL     1      -0.121   0.529   0.003  0.00  0.00    -0.231 N 
ATOM      3  C   UNL     1       1.007   1.267  -0.003  0.00  0.00    +0.267 C 
ATOM      4  O   UNL     1       0.939   2.478   0.004  0.00  0.00    -0.271 OA
ATOM      5  H   UNL     1      -0.067  -0.440  -0.004  0.00  0.00    +0.173 HD
BRANCH   2   8
ATOM      6  C   UNL     1      -2.499   0.422   0.012  0.00  0.00    +0.260 C 
ATOM      7  O   UNL     1      -2.431  -0.792   0.004  0.00  0.00    -0.269 OA
ATOM      8  N   UNL     1      -1.371   1.160   0.012  0.00  0.00    -0.230 N 
ATOM      9  H   UNL     1      -1.426   2.129   0.018  0.00  0.00    +0.173 HD
BRANCH   6  13
ATOM     10  C   UNL     1      -6.290   2.336   0.041  0.00  0.00    +0.030 A 
ATOM     11  C   UNL     1      -6.213   0.946   0.032  0.00  0.00    +0.024 A 
ATOM     12  C   UNL     1      -4.986   0.323   0.022  0.00  0.00    +0.015 A 
ATOM     13  C   UNL     1      -3.816   1.087   0.022  0.00  0.00    +0.038 A 
ATOM     14  C   UNL     1      -3.896   2.483   0.037  0.00  0.00    +0.015 A 
ATOM     15  C   UNL     1      -5.126   3.100   0.041  0.00  0.00    +0.024 A 
BRANCH  10  16
ATOM     16  N   UNL     1      -7.531   2.963   0.050  0.00  0.00    -0.330 N 
BRANCH  16  18
ATOM     17  C   UNL     1      -7.647   4.944  -1.379  0.00  0.00    +0.024 C 
ATOM     18  C   UNL     1      -7.613   4.425   0.060  0.00  0.00    +0.102 C 
ENDBRANCH  16  18
BRANCH  16  19
ATOM     19  C   UNL     1      -8.756   2.160   0.050  0.00  0.00    +0.102 C 
ATOM     20  C   UNL     1      -9.177   1.872   1.493  0.00  0.00    +0.024 C 
ENDBRANCH  16  19
ENDBRANCH  10  16
ENDBRANCH   6  13
ENDBRANCH   2   8
ENDBRANCH   1   3
BRANCH   1  21
ATOM     21  O   UNL     1       3.401   1.592  -0.023  0.00  0.00    -0.454 OA
BRANCH  21  22
ATOM     22  C   UNL     1       4.668   1.149  -0.037  0.00  0.00    +0.326 C 
ATOM     23  O   UNL     1       4.893  -0.038  -0.046  0.00  0.00    -0.249 OA
BRANCH  22  24
ATOM     24  C   UNL     1       5.810   2.132  -0.042  0.00  0.00    +0.238 C 
BRANCH  24  25
ATOM     25  N   UNL     1       7.081   1.405  -0.058  0.00  0.00    -0.213 N 
ATOM     26  C   UNL     1       7.752   1.026   1.050  0.00  0.00    +0.247 C 
ATOM     27  O   UNL     1       7.431   1.216   2.203  0.00  0.00    -0.273 OA
ATOM     28  C   UNL     1       8.987   0.313   0.550  0.00  0.00    +0.113 C 
ATOM     29  C   UNL     1      10.243   1.039   1.020  0.00  0.00    +0.038 C 
ATOM     30  C   UNL     1      11.482   0.325   0.473  0.00  0.00    -0.011 C 
ATOM     31  C   UNL     1      11.494  -1.123   0.967  0.00  0.00    +0.009 C 
ATOM     32  C   UNL     1      10.239  -1.844   0.470  0.00  0.00    -0.032 C 
ATOM     33  C   UNL     1       8.996  -1.138   1.017  0.00  0.00    +0.041 C 
ATOM     34  C   UNL     1      10.258  -3.295   0.957  0.00  0.00    +0.011 C 
ATOM     35  C   UNL     1      10.208  -1.820  -1.059  0.00  0.00    +0.011 C 
ATOM     36  C   UNL     1      12.742   1.042   0.962  0.00  0.00    +0.007 C 
ATOM     37  N   UNL     1       8.871   0.381  -0.913  0.00  0.00    -0.285 N 
ATOM     38  C   UNL     1       7.724   1.038  -1.173  0.00  0.00    +0.310 C 
ATOM     39  O   UNL     1       7.319   1.272  -2.295  0.00  0.00    -0.252 OA
ATOM     40  H   UNL     1       9.496   0.024  -1.562  0.00  0.00    +0.151 HD
ENDBRANCH  24  25
ENDBRANCH  22  24
ENDBRANCH  21  22
ENDBRANCH   1  21
TORSDOF 10
