REMARK  Name = ZINC55156709
REMARK  11 active torsions:
REMARK  status: ('A' for Active; 'I' for Inactive)
REMARK    1  A    between atoms: C_1  and  C_2
REMARK    2  A    between atoms: C_2  and  C_3
REMARK    3  A    between atoms: C_3  and  O_4
REMARK    4  A    between atoms: O_4  and  C_5
REMARK    5  A    between atoms: C_8  and  N_12
REMARK    6  A    between atoms: C_9  and  C_11
REMARK    7  A    between atoms: N_12  and  C_13
REMARK    8  A    between atoms: C_13  and  C_15
REMARK    9  A    between atoms: C_13  and  C_16
REMARK   10  A    between atoms: N_21  and  C_22
REMARK   11  A    between atoms: C_22  and  C_23
REMARK                            x       y       z     vdW  Elec       q    Type
REMARK                         _______ _______ _______ _____ _____    ______ ____
ROOT
ATOM      1  C   UNL     1       3.790  -3.567  -6.631  0.00  0.00    +0.154 C 
ATOM      2  C   UNL     1       5.213  -3.173  -6.232  0.00  0.00    +0.038 C 
ENDROOT
BRANCH   1   3
ATOM      3  C   UNL     1       3.829  -4.364  -7.910  0.00  0.00    +0.240 C 
ATOM      4  O   UNL     1       3.400  -5.497  -7.931  0.00  0.00    -0.273 OA
ATOM      5  N   UNL     1       4.341  -3.816  -9.030  0.00  0.00    -0.239 N 
ATOM      6  C   UNL     1       4.375  -4.528 -10.173  0.00  0.00    +0.306 C 
ATOM      7  O   UNL     1       3.945  -5.664 -10.195  0.00  0.00    -0.252 OA
ATOM      8  N   UNL     1       4.887  -3.980 -11.293  0.00  0.00    -0.297 N 
ATOM      9  H   UNL     1       4.684  -2.909  -9.012  0.00  0.00    +0.159 HD
ATOM     10  H   UNL     1       5.231  -3.073 -11.276  0.00  0.00    +0.150 HD
BRANCH   8  11
ATOM     11  C   UNL     1       4.925  -4.754 -12.536  0.00  0.00    +0.137 C 
BRANCH  11  12
ATOM     12  C   UNL     1       5.549  -3.906 -13.646  0.00  0.00    +0.135 C 
ATOM     13  C   UNL     1       5.567  -4.695 -14.980  0.00  0.00    +0.035 C 
ATOM     14  C   UNL     1       5.594  -3.532 -16.010  0.00  0.00    +0.031 C 
ATOM     15  C   UNL     1       4.742  -2.453 -15.307  0.00  0.00    +0.160 C 
ATOM     16  O   UNL     1       4.740  -2.748 -13.904  0.00  0.00    -0.375 OA
ENDBRANCH  11  12
ENDBRANCH   8  11
ENDBRANCH   1   3
BRANCH   1  17
ATOM     17  N   UNL     1       3.192  -4.379  -5.568  0.00  0.00    -0.333 N 
ATOM     18  H   UNL     1       3.227  -5.347  -5.620  0.00  0.00    +0.147 HD
BRANCH  17  22
ATOM     19  C   UNL     1       1.342  -2.530  -2.323  0.00  0.00    +0.121 A 
ATOM     20  C   UNL     1       1.908  -1.761  -3.329  0.00  0.00    +0.047 A 
ATOM     21  C   UNL     1       2.522  -2.373  -4.404  0.00  0.00    +0.027 A 
ATOM     22  C   UNL     1       2.571  -3.759  -4.478  0.00  0.00    +0.031 A 
ATOM     23  C   UNL     1       2.004  -4.528  -3.471  0.00  0.00    -0.026 A 
ATOM     24  C   UNL     1       1.396  -3.914  -2.394  0.00  0.00    +0.050 A 
ATOM     25  C   UNL     1       2.058  -6.032  -3.550  0.00  0.00    +0.046 C 
BRANCH  19  26
ATOM     26  O   UNL     1       0.738  -1.926  -1.265  0.00  0.00    -0.492 OA
BRANCH  26  27
ATOM     27  C   UNL     1       0.718  -0.497  -1.257  0.00  0.00    +0.229 C 
BRANCH  27  29
ATOM     28  C   UNL     1      -0.019   1.526   0.010  0.00  0.00    +0.007 C 
ATOM     29  C   UNL     1       0.002  -0.004   0.002  0.00  0.00    +0.038 C 
ENDBRANCH  27  29
ENDBRANCH  26  27
ENDBRANCH  19  26
ENDBRANCH  17  22
ENDBRANCH   1  17
TORSDOF 8
