REMARK  Name = ZINC39584374
REMARK  7 active torsions:
REMARK  status: ('A' for Active; 'I' for Inactive)
REMARK    1  A    between atoms: C_1  and  C_2
REMARK    2  A    between atoms: C_5  and  C_9
REMARK    3  A    between atoms: C_7  and  C_8
REMARK    4  A    between atoms: C_11  and  C_15
REMARK    5  A    between atoms: N_17  and  N_18
REMARK    6  A    between atoms: C_19  and  C_20
REMARK    7  A    between atoms: C_21  and  C_25
REMARK                            x       y       z     vdW  Elec       q    Type
REMARK                         _______ _______ _______ _____ _____    ______ ____
ROOT
ATOM      1  C   UNL     1       0.061  -4.256  -0.021  0.00  0.00    +0.092 C 
ATOM      2  C   UNL     1       0.071  -5.018  -1.132  0.00  0.00    +0.041 C 
ATOM      3  C   UNL     1       0.090  -6.439  -0.597  0.00  0.00    +0.240 C 
ATOM      4  N   UNL     1       0.088  -6.249   0.863  0.00  0.00    -0.170 NA
ATOM      5  N   UNL     1       0.077  -5.037   1.090  0.00  0.00    -0.153 NA
ENDROOT
BRANCH   1  10
ATOM      6  C   UNL     1      -0.018   1.503   0.010  0.00  0.00    +0.044 C 
ATOM      7  C   UNL     1       0.002  -0.004   0.002  0.00  0.00    -0.047 A 
ATOM      8  C   UNL     1       0.006  -0.687  -1.201  0.00  0.00    +0.004 A 
ATOM      9  C   UNL     1       0.025  -2.066  -1.215  0.00  0.00    +0.010 A 
ATOM     10  C   UNL     1       0.041  -2.772  -0.013  0.00  0.00    +0.002 A 
ATOM     11  C   UNL     1       0.037  -2.080   1.196  0.00  0.00    +0.013 A 
ATOM     12  C   UNL     1       0.023  -0.699   1.197  0.00  0.00    -0.047 A 
ATOM     13  C   UNL     1       0.025   0.051   2.504  0.00  0.00    +0.044 C 
ENDBRANCH   1  10
BRANCH   3  14
ATOM     14  C   UNL     1      -1.138  -7.191  -1.041  0.00  0.00    +0.263 C 
ATOM     15  O   UNL     1      -2.073  -7.329  -0.281  0.00  0.00    -0.271 OA
ATOM     16  N   UNL     1      -1.197  -7.711  -2.283  0.00  0.00    -0.205 N 
ATOM     17  H   UNL     1      -0.450  -7.601  -2.892  0.00  0.00    +0.177 HD
BRANCH  16  18
ATOM     18  N   UNL     1      -2.339  -8.411  -2.696  0.00  0.00    -0.187 NA
ATOM     19  C   UNL     1      -2.397  -8.912  -3.895  0.00  0.00    +0.145 C 
BRANCH  19  20
ATOM     20  C   UNL     1      -3.592  -9.644  -4.327  0.00  0.00    +0.035 A 
ATOM     21  C   UNL     1      -3.850 -10.253  -5.543  0.00  0.00    -0.035 A 
ATOM     22  C   UNL     1      -5.059 -10.886  -5.713  0.00  0.00    +0.011 A 
ATOM     23  C   UNL     1      -5.955 -10.895  -4.691  0.00  0.00    +0.046 A 
ATOM     24  S   UNL     1      -5.090  -9.989  -3.419  0.00  0.00    -0.095 S 
ATOM     25  C   UNL     1      -2.832 -10.223  -6.653  0.00  0.00    +0.045 C 
ENDBRANCH  19  20
ENDBRANCH  16  18
ENDBRANCH   3  14
TORSDOF 4
