REMARK  Name = ZINC07408916
REMARK  6 active torsions:
REMARK  status: ('A' for Active; 'I' for Inactive)
REMARK    1  A    between atoms: C_1  and  C_2
REMARK    2  A    between atoms: C_5  and  C_26
REMARK    3  A    between atoms: C_6  and  S_8
REMARK    4  A    between atoms: S_8  and  N_11
REMARK    5  A    between atoms: N_11  and  N_12
REMARK    6  A    between atoms: C_13  and  C_15
REMARK                            x       y       z     vdW  Elec       q    Type
REMARK                         _______ _______ _______ _____ _____    ______ ____
ROOT
ATOM      1  N   UNL     1      -2.426  -4.799   1.536  0.00  0.00    -0.229 N 
ATOM      2  C   UNL     1      -2.840  -6.026   1.909  0.00  0.00    +0.272 C 
ATOM      3  O   UNL     1      -2.807  -6.348   3.078  0.00  0.00    -0.270 OA
ATOM      4  H   UNL     1      -2.453  -4.541   0.601  0.00  0.00    +0.171 HD
ENDROOT
BRANCH   2   5
ATOM      5  C   UNL     1      -3.345  -6.998   0.874  0.00  0.00    +0.297 C 
ATOM      6  C   UNL     1      -2.200  -7.388  -0.071  0.00  0.00    +0.283 C 
ATOM      7  O   UNL     1      -2.709  -8.320  -1.031  0.00  0.00    -0.484 OA
ATOM      8  C   UNL     1      -3.471  -9.339  -0.548  0.00  0.00    +0.162 A 
ATOM      9  C   UNL     1      -3.691 -10.458  -1.338  0.00  0.00    +0.049 A 
ATOM     10  C   UNL     1      -4.465 -11.500  -0.863  0.00  0.00    +0.004 A 
ATOM     11  C   UNL     1      -5.023 -11.430   0.400  0.00  0.00    +0.004 A 
ATOM     12  C   UNL     1      -4.807 -10.318   1.192  0.00  0.00    +0.049 A 
ATOM     13  C   UNL     1      -4.030  -9.270   0.722  0.00  0.00    +0.163 A 
ATOM     14  O   UNL     1      -3.820  -8.185   1.518  0.00  0.00    -0.472 OA
ENDBRANCH   2   5
BRANCH   1  15
ATOM     15  N   UNL     1      -1.957  -3.895   2.498  0.00  0.00    -0.108 NA
ATOM     16  H   UNL     1      -2.520  -3.651   3.250  0.00  0.00    +0.172 HD
BRANCH  15  17
ATOM     17  S   UNL     1      -0.442  -3.242   2.352  0.00  0.00    +0.074 S 
ATOM     18  O   UNL     1       0.467  -4.333   2.300  0.00  0.00    -0.152 OA
ATOM     19  O   UNL     1      -0.346  -2.216   3.331  0.00  0.00    -0.152 OA
BRANCH  17  25
ATOM     20  C   UNL     1       1.544  -2.769  -2.459  0.00  0.00    +0.044 C 
ATOM     21  C   UNL     1       0.580  -2.276  -1.412  0.00  0.00    -0.049 A 
ATOM     22  C   UNL     1      -0.246  -1.201  -1.683  0.00  0.00    +0.004 A 
ATOM     23  C   UNL     1      -1.130  -0.749  -0.723  0.00  0.00    +0.005 A 
ATOM     24  C   UNL     1      -1.190  -1.372   0.510  0.00  0.00    -0.024 A 
ATOM     25  C   UNL     1      -0.366  -2.448   0.781  0.00  0.00    +0.110 A 
ATOM     26  C   UNL     1       0.516  -2.903  -0.181  0.00  0.00    +0.032 A 
ATOM     27  C   UNL     1      -2.154  -0.879   1.558  0.00  0.00    +0.046 C 
ENDBRANCH  17  25
ENDBRANCH  15  17
ENDBRANCH   1  15
TORSDOF 4
