REMARK  Name = ZINC21022390
REMARK  8 active torsions:
REMARK  status: ('A' for Active; 'I' for Inactive)
REMARK    1  A    between atoms: C_1  and  C_2
REMARK    2  A    between atoms: C_8  and  S_26
REMARK    3  A    between atoms: C_12  and  C_14
REMARK    4  A    between atoms: N_16  and  C_17
REMARK    5  A    between atoms: C_17  and  C_18
REMARK    6  A    between atoms: C_18  and  C_19
REMARK    7  A    between atoms: C_19  and  N_20
REMARK    8  A    between atoms: S_26  and  N_29
REMARK                            x       y       z     vdW  Elec       q    Type
REMARK                         _______ _______ _______ _____ _____    ______ ____
ROOT
ATOM      1  C   UNL     1       9.128  -3.405   3.240  0.00  0.00    +0.109 C 
ATOM      2  C   UNL     1      10.068  -2.681   4.169  0.00  0.00    +0.217 C 
ATOM      3  O   UNL     1      10.891  -3.304   4.805  0.00  0.00    -0.276 OA
ATOM      4  N   UNL     1       9.992  -1.341   4.294  0.00  0.00    -0.259 N 
ATOM      5  C   UNL     1      10.749  -0.576   5.187  0.00  0.00    +0.040 A 
ATOM      6  C   UNL     1      11.711  -0.988   6.112  0.00  0.00    +0.026 A 
ATOM      7  C   UNL     1      12.351  -0.063   6.908  0.00  0.00    +0.030 A 
ATOM      8  C   UNL     1      12.045   1.281   6.798  0.00  0.00    +0.106 A 
ATOM      9  C   UNL     1      11.094   1.697   5.885  0.00  0.00    +0.034 A 
ATOM     10  C   UNL     1      10.450   0.773   5.084  0.00  0.00    -0.022 A 
ATOM     11  C   UNL     1       9.388   0.952   4.019  0.00  0.00    +0.069 C 
ATOM     12  C   UNL     1       9.105  -0.473   3.515  0.00  0.00    +0.171 C 
ENDROOT
BRANCH  12  13
ATOM     13  C   UNL     1       7.665  -0.839   3.764  0.00  0.00    +0.234 C 
ATOM     14  O   UNL     1       7.368  -1.509   4.731  0.00  0.00    -0.274 OA
ATOM     15  N   UNL     1       6.707  -0.423   2.913  0.00  0.00    -0.314 N 
ATOM     16  H   UNL     1       6.977   0.184   2.036  0.00  0.00    +0.149 HD
BRANCH  15  17
ATOM     17  C   UNL     1       5.307  -0.779   3.154  0.00  0.00    +0.102 C 
BRANCH  17  18
ATOM     18  C   UNL     1       4.431  -0.186   2.048  0.00  0.00    +0.000 C 
BRANCH  18  19
ATOM     19  C   UNL     1       2.969  -0.557   2.301  0.00  0.00    -0.077 C 
BRANCH  19  20
ATOM     20  N   UNL     1       2.128   0.012   1.239  0.00  0.00    +0.380 N 
ATOM     21  C   UNL     1       0.760  -0.515   1.312  0.00  0.00    -0.079 C 
ATOM     22  C   UNL     1      -0.045  -0.016   0.110  0.00  0.00    -0.019 C 
ATOM     23  C   UNL     1      -0.067   1.515   0.117  0.00  0.00    -0.004 C 
ATOM     24  C   UNL     1       1.372   2.038   0.090  0.00  0.00    -0.019 C 
ATOM     25  C   UNL     1       2.136   1.479   1.292  0.00  0.00    -0.079 C 
ATOM     26  H   UNL     1       2.554  -0.290   0.271  0.00  0.00    -0.082 HD
ENDBRANCH  19  20
ENDBRANCH  18  19
ENDBRANCH  17  18
ENDBRANCH  15  17
ENDBRANCH  12  13
BRANCH   8  27
ATOM     27  S   UNL     1      12.866   2.461   7.817  0.00  0.00    +0.061 S 
ATOM     28  O   UNL     1      14.102   1.874   8.203  0.00  0.00    -0.153 OA
ATOM     29  O   UNL     1      12.793   3.706   7.137  0.00  0.00    -0.153 OA
BRANCH  27  30
ATOM     30  N   UNL     1      11.967   2.623   9.199  0.00  0.00    -0.177 NA
ATOM     31  C   UNL     1      10.879   3.590   9.405  0.00  0.00    +0.109 C 
ATOM     32  C   UNL     1      10.355   3.391  10.842  0.00  0.00    +0.018 C 
ATOM     33  C   UNL     1      11.556   2.717  11.557  0.00  0.00    +0.018 C 
ATOM     34  C   UNL     1      12.130   1.826  10.428  0.00  0.00    +0.109 C 
ENDBRANCH  27  30
ENDBRANCH   8  27
TORSDOF 7
