REMARK  Name = ZINC02044483
REMARK  4 active torsions:
REMARK  status: ('A' for Active; 'I' for Inactive)
REMARK    1  A    between atoms: C_1  and  C_2
REMARK    2  A    between atoms: C_5  and  C_8
REMARK    3  A    between atoms: C_8  and  C_9
REMARK    4  A    between atoms: C_9  and  C_16
REMARK                            x       y       z     vdW  Elec       q    Type
REMARK                         _______ _______ _______ _____ _____    ______ ____
ROOT
ATOM      1  C   UNL     1       2.164   0.734  -0.015  0.00  0.00    +0.142 C 
ATOM      2  C   UNL     1       1.261  -0.484  -0.013  0.00  0.00    +0.249 C 
ATOM      3  O   UNL     1       1.601  -1.648  -0.021  0.00  0.00    -0.273 OA
ATOM      4  N   UNL     1       0.002  -0.004   0.002  0.00  0.00    -0.238 N 
ATOM      5  C   UNL     1      -0.016   1.334   0.009  0.00  0.00    +0.307 C 
ATOM      6  O   UNL     1      -1.035   1.996   0.018  0.00  0.00    -0.252 OA
ATOM      7  N   UNL     1       1.220   1.865   0.000  0.00  0.00    -0.281 N 
ATOM      8  H   UNL     1      -0.793  -0.560   0.007  0.00  0.00    +0.159 HD
ATOM      9  H   UNL     1       1.446   2.808   0.003  0.00  0.00    +0.152 HD
ENDROOT
BRANCH   1  10
ATOM     10  C   UNL     1       3.012   0.763  -1.260  0.00  0.00    -0.015 A 
ATOM     11  C   UNL     1       4.258   0.165  -1.262  0.00  0.00    +0.006 A 
ATOM     12  C   UNL     1       5.034   0.189  -2.406  0.00  0.00    +0.000 A 
ATOM     13  C   UNL     1       4.567   0.817  -3.545  0.00  0.00    +0.000 A 
ATOM     14  C   UNL     1       3.323   1.419  -3.542  0.00  0.00    +0.000 A 
ATOM     15  C   UNL     1       2.545   1.393  -2.399  0.00  0.00    +0.006 A 
ENDBRANCH   1  10
BRANCH   1  16
ATOM     16  C   UNL     1       3.046   0.752   1.235  0.00  0.00    +0.075 C 
BRANCH  16  21
ATOM     17  C   UNL     1      -0.294   0.840   5.950  0.00  0.00    +0.044 C 
ATOM     18  C   UNL     1       0.577   0.817   4.720  0.00  0.00    -0.050 A 
ATOM     19  C   UNL     1       0.973  -0.391   4.176  0.00  0.00    +0.003 A 
ATOM     20  C   UNL     1       1.772  -0.412   3.048  0.00  0.00    +0.004 A 
ATOM     21  C   UNL     1       2.175   0.775   2.465  0.00  0.00    -0.045 A 
ATOM     22  C   UNL     1       1.783   1.982   3.012  0.00  0.00    +0.004 A 
ATOM     23  C   UNL     1       0.980   2.003   4.137  0.00  0.00    +0.003 A 
ENDBRANCH  16  21
ENDBRANCH   1  16
TORSDOF 3
