REMARK  Name = ZINC43569682
REMARK  4 active torsions:
REMARK  status: ('A' for Active; 'I' for Inactive)
REMARK    1  A    between atoms: C_4  and  S_8
REMARK    2  A    between atoms: C_6  and  N_7
REMARK    3  A    between atoms: S_8  and  C_9
REMARK    4  A    between atoms: N_13  and  C_14
REMARK                            x       y       z     vdW  Elec       q    Type
REMARK                         _______ _______ _______ _____ _____    ______ ____
ROOT
ATOM      1  C   UNL     1      -0.030   1.368  -0.067  0.00  0.00    +0.040 A 
ATOM      2  C   UNL     1       0.895   1.538  -1.074  0.00  0.00    +0.085 A 
ATOM      3  N   UNL     1       2.062   0.920  -1.035  0.00  0.00    -0.356 N 
ATOM      4  C   UNL     1       2.393   0.115  -0.035  0.00  0.00    +0.083 A 
ATOM      5  C   UNL     1       1.515  -0.107   1.016  0.00  0.00    +0.056 A 
ATOM      6  C   UNL     1       0.277   0.529   1.007  0.00  0.00    +0.028 A 
ATOM      7  H   UNL     1       2.693   1.058  -1.759  0.00  0.00    +0.166 HD
ENDROOT
BRANCH   6   8
ATOM      8  N   UNL     1      -0.632   0.335   2.043  0.00  0.00    -0.358 N 
ATOM      9  H   UNL     1      -1.492   0.784   2.024  0.00  0.00    +0.142 HD
ATOM     10  H   UNL     1      -0.407  -0.251   2.783  0.00  0.00    +0.142 HD
ENDBRANCH   6   8
BRANCH   4  11
ATOM     11  S   UNL     1       3.965  -0.681  -0.042  0.00  0.00    -0.031 S 
BRANCH  11  12
ATOM     12  C   UNL     1       5.115   0.645  -0.195  0.00  0.00    +0.216 A 
ATOM     13  N   UNL     1       4.833   1.930  -0.175  0.00  0.00    -0.101 NA
ATOM     14  N   UNL     1       5.902   2.627  -0.311  0.00  0.00    -0.022 NA
ATOM     15  N   UNL     1       6.929   1.856  -0.425  0.00  0.00    -0.043 NA
ATOM     16  N   UNL     1       6.455   0.534  -0.348  0.00  0.00    -0.217 N 
BRANCH  16  17
ATOM     17  C   UNL     1       7.243  -0.699  -0.422  0.00  0.00    +0.112 C 
ATOM     18  C   UNL     1       8.767  -0.566  -0.396  0.00  0.00    +0.029 C 
ATOM     19  C   UNL     1       8.054  -0.944  -1.696  0.00  0.00    +0.029 C 
ENDBRANCH  16  17
ENDBRANCH  11  12
ENDBRANCH   4  11
TORSDOF 4
