REMARK  Name = ZINC01238766
REMARK  10 active torsions:
REMARK  status: ('A' for Active; 'I' for Inactive)
REMARK    1  A    between atoms: C_1  and  C_2
REMARK    2  A    between atoms: C_2  and  C_39
REMARK    3  A    between atoms: N_11  and  C_29
REMARK    4  A    between atoms: C_14  and  S_17
REMARK    5  A    between atoms: S_17  and  C_18
REMARK    6  A    between atoms: C_18  and  C_19
REMARK    7  A    between atoms: N_21  and  C_22
REMARK    8  A    between atoms: N_21  and  C_23
REMARK    9  A    between atoms: C_29  and  C_30
REMARK   10  A    between atoms: C_30  and  C_31
REMARK                            x       y       z     vdW  Elec       q    Type
REMARK                         _______ _______ _______ _____ _____    ______ ____
ROOT
ATOM      1  C   UNL     1       0.025   1.166   0.044  0.00  0.00    +0.041 C 
ATOM      2  C   UNL     1       0.001  -0.364   0.064  0.00  0.00    +0.068 C 
ATOM      3  C   UNL     1      -1.454  -0.849   0.058  0.00  0.00    +0.071 C 
ATOM      4  C   UNL     1      -2.061  -0.519   1.415  0.00  0.00    -0.018 A 
ATOM      5  C   UNL     1      -1.262  -0.232   2.464  0.00  0.00    +0.021 A 
ATOM      6  S   UNL     1      -2.375   0.081   3.799  0.00  0.00    -0.072 S 
ATOM      7  C   UNL     1      -3.831  -0.156   3.010  0.00  0.00    +0.102 A 
ATOM      8  C   UNL     1      -3.492  -0.482   1.701  0.00  0.00    +0.074 A 
ATOM      9  C   UNL     1      -4.618  -0.746   0.776  0.00  0.00    +0.264 A 
ATOM     10  O   UNL     1      -4.399  -1.038  -0.386  0.00  0.00    -0.267 OA
ATOM     11  N   UNL     1      -5.882  -0.662   1.223  0.00  0.00    -0.276 N 
ATOM     12  C   UNL     1      -6.161  -0.333   2.538  0.00  0.00    +0.240 A 
ATOM     13  N   UNL     1      -5.145  -0.082   3.422  0.00  0.00    -0.249 N 
ATOM     14  C   UNL     1      -5.708   0.214   4.635  0.00  0.00    +0.198 A 
ATOM     15  N   UNL     1      -7.011   0.151   4.505  0.00  0.00    -0.120 NA
ATOM     16  N   UNL     1      -7.298  -0.196   3.180  0.00  0.00    -0.109 NA
ATOM     17  C   UNL     1       0.235  -0.200   2.447  0.00  0.00    +0.203 C 
ATOM     18  O   UNL     1       0.673  -0.834   1.235  0.00  0.00    -0.368 OA
ATOM     19  C   UNL     1       0.715  -0.897  -1.180  0.00  0.00    +0.041 C 
ENDROOT
BRANCH  14  20
ATOM     20  S   UNL     1      -4.834   0.612   6.113  0.00  0.00    -0.076 S 
BRANCH  20  21
ATOM     21  C   UNL     1      -6.144   0.893   7.336  0.00  0.00    +0.173 C 
BRANCH  21  22
ATOM     22  C   UNL     1      -5.524   1.246   8.663  0.00  0.00    +0.230 C 
ATOM     23  O   UNL     1      -4.318   1.303   8.774  0.00  0.00    -0.274 OA
ATOM     24  N   UNL     1      -6.311   1.500   9.728  0.00  0.00    -0.274 N 
ATOM     25  C   UNL     1      -7.767   1.546   9.569  0.00  0.00    +0.138 C 
BRANCH  24  26
ATOM     26  C   UNL     1      -5.737   1.719  10.985  0.00  0.00    +0.036 A 
ATOM     27  C   UNL     1      -4.973   2.856  11.213  0.00  0.00    +0.023 A 
ATOM     28  C   UNL     1      -4.409   3.069  12.455  0.00  0.00    +0.002 A 
ATOM     29  C   UNL     1      -4.603   2.152  13.471  0.00  0.00    +0.000 A 
ATOM     30  C   UNL     1      -5.363   1.018  13.248  0.00  0.00    +0.002 A 
ATOM     31  C   UNL     1      -5.936   0.802  12.010  0.00  0.00    +0.023 A 
ENDBRANCH  24  26
ENDBRANCH  21  22
ENDBRANCH  20  21
ENDBRANCH  14  20
BRANCH  11  32
ATOM     32  C   UNL     1      -6.988  -0.925   0.299  0.00  0.00    +0.133 C 
BRANCH  32  33
ATOM     33  C   UNL     1      -7.340  -2.414   0.334  0.00  0.00    +0.057 C 
BRANCH  33  34
ATOM     34  C   UNL     1      -8.478  -2.684  -0.616  0.00  0.00    -0.046 A 
ATOM     35  C   UNL     1      -9.784  -2.596  -0.173  0.00  0.00    +0.004 A 
ATOM     36  C   UNL     1     -10.828  -2.844  -1.044  0.00  0.00    +0.000 A 
ATOM     37  C   UNL     1     -10.565  -3.179  -2.360  0.00  0.00    +0.000 A 
ATOM     38  C   UNL     1      -9.259  -3.266  -2.803  0.00  0.00    +0.000 A 
ATOM     39  C   UNL     1      -8.215  -3.014  -1.933  0.00  0.00    +0.004 A 
ENDBRANCH  33  34
ENDBRANCH  32  33
ENDBRANCH  11  32
TORSDOF 7
