REMARK  Name = ZINC20445978
REMARK  6 active torsions:
REMARK  status: ('A' for Active; 'I' for Inactive)
REMARK    1  A    between atoms: C_1  and  C_2
REMARK    2  A    between atoms: C_2  and  C_18
REMARK    3  A    between atoms: C_4  and  N_9
REMARK    4  A    between atoms: N_12  and  C_15
REMARK    5  A    between atoms: C_15  and  C_16
REMARK    6  A    between atoms: C_16  and  O_17
REMARK                            x       y       z     vdW  Elec       q    Type
REMARK                         _______ _______ _______ _____ _____    ______ ____
ROOT
ATOM      1  N   UNL     1      -2.503  -2.623   0.846  0.00  0.00    -0.331 N 
ATOM      2  C   UNL     1      -3.638  -1.995   1.540  0.00  0.00    +0.120 C 
ATOM      3  C   UNL     1      -4.938  -2.497   0.891  0.00  0.00    +0.103 C 
ATOM      4  N   UNL     1      -4.944  -3.966   0.894  0.00  0.00    -0.297 NA
ATOM      5  C   UNL     1      -3.849  -4.505   0.078  0.00  0.00    +0.103 C 
ATOM      6  C   UNL     1      -2.507  -4.085   0.688  0.00  0.00    +0.120 C 
ENDROOT
BRANCH   1  10
ATOM      7  C   UNL     1      -0.246   1.752   0.539  0.00  0.00    +0.011 C 
ATOM      8  C   UNL     1      -0.161   0.225   0.554  0.00  0.00    -0.023 C 
ATOM      9  C   UNL     1      -1.566  -0.369   0.422  0.00  0.00    +0.057 C 
ATOM     10  C   UNL     1      -1.473  -1.871   0.366  0.00  0.00    +0.010 C 
ATOM     11  C   UNL     1      -0.388  -2.485  -0.151  0.00  0.00    +0.064 C 
ATOM     12  C   UNL     1       0.698  -1.760  -0.651  0.00  0.00    +0.158 C 
ATOM     13  O   UNL     1       1.657  -2.350  -1.109  0.00  0.00    -0.293 OA
ATOM     14  C   UNL     1       0.693  -0.253  -0.625  0.00  0.00    +0.085 C 
ATOM     15  C   UNL     1       0.471  -0.241   1.867  0.00  0.00    +0.011 C 
ENDBRANCH   1  10
BRANCH   4  16
ATOM     16  C   UNL     1      -6.242  -4.487   0.444  0.00  0.00    +0.112 C 
BRANCH  16  17
ATOM     17  C   UNL     1      -6.404  -5.932   0.919  0.00  0.00    +0.171 C 
BRANCH  17  18
ATOM     18  O   UNL     1      -6.441  -5.963   2.347  0.00  0.00    -0.394 OA
ATOM     19  H   UNL     1      -6.554  -6.922   2.874  0.00  0.00    +0.209 HD
ENDBRANCH  17  18
ENDBRANCH  16  17
ENDBRANCH   4  16
TORSDOF 4
