REMARK  Name = ZINC06135228
REMARK  8 active torsions:
REMARK  status: ('A' for Active; 'I' for Inactive)
REMARK    1  A    between atoms: C_1  and  C_2
REMARK    2  A    between atoms: C_2  and  C_3
REMARK    3  A    between atoms: C_10  and  C_15
REMARK    4  A    between atoms: C_15  and  C_17
REMARK    5  A    between atoms: C_15  and  N_70
REMARK    6  A    between atoms: N_21  and  C_22
REMARK    7  A    between atoms: C_22  and  C_23
REMARK    8  A    between atoms: N_31  and  C_34
REMARK                            x       y       z     vdW  Elec       q    Type
REMARK                         _______ _______ _______ _____ _____    ______ ____
ROOT
ATOM      1  C   UNL     1       1.383   3.500  -0.069  0.00  0.00    +0.039 C 
ENDROOT
BRANCH   1   9
ATOM      2  C   UNL     1       6.229   6.674   2.107  0.00  0.00    -0.047 A 
ATOM      3  C   UNL     1       7.160   6.169   1.210  0.00  0.00    +0.005 A 
ATOM      4  C   UNL     1       6.788   5.253   0.250  0.00  0.00    +0.026 A 
ATOM      5  C   UNL     1       5.466   4.829   0.177  0.00  0.00    +0.049 A 
ATOM      6  C   UNL     1       4.524   5.342   1.088  0.00  0.00    -0.001 A 
ATOM      7  C   UNL     1       4.924   6.271   2.055  0.00  0.00    +0.013 A 
ATOM      8  C   UNL     1       3.133   4.893   1.000  0.00  0.00    +0.017 A 
ATOM      9  C   UNL     1       2.804   3.987   0.046  0.00  0.00    +0.011 A 
ATOM     10  C   UNL     1       3.788   3.502  -0.843  0.00  0.00    +0.251 A 
ATOM     11  O   UNL     1       3.470   2.692  -1.696  0.00  0.00    -0.268 OA
ATOM     12  N   UNL     1       5.066   3.913  -0.773  0.00  0.00    -0.322 N 
ATOM     13  H   UNL     1       5.737   3.549  -1.420  0.00  0.00    +0.169 HD
BRANCH   2  15
ATOM     14  C   UNL     1       6.510   9.090   2.588  0.00  0.00    +0.009 C 
ATOM     15  C   UNL     1       6.660   7.674   3.148  0.00  0.00    +0.032 C 
ENDBRANCH   2  15
ENDBRANCH   1   9
BRANCH   1  21
ATOM     16  C   UNL     1      -0.019   1.526   0.010  0.00  0.00    -0.058 C 
ATOM     17  C   UNL     1       0.002  -0.004   0.002  0.00  0.00    +0.086 C 
ATOM     18  N   UNL     1       0.746  -0.488   1.173  0.00  0.00    -0.333 N 
ATOM     19  C   UNL     1       2.126   0.018   1.163  0.00  0.00    +0.086 C 
ATOM     20  C   UNL     1       2.105   1.549   1.171  0.00  0.00    -0.058 C 
ATOM     21  N   UNL     1       1.373   2.022  -0.023  0.00  0.00    +0.391 N 
ATOM     22  H   UNL     1       1.837   1.659  -0.864  0.00  0.00    -0.080 HD
BRANCH  18  23
ATOM     23  C   UNL     1       0.725  -1.884   1.239  0.00  0.00    +0.030 A 
ATOM     24  C   UNL     1       0.051  -2.616   0.270  0.00  0.00    +0.026 A 
ATOM     25  C   UNL     1       0.036  -3.995   0.333  0.00  0.00    +0.040 A 
ATOM     26  C   UNL     1       0.683  -4.649   1.368  0.00  0.00    +0.124 A 
ATOM     27  C   UNL     1       1.351  -3.921   2.338  0.00  0.00    +0.040 A 
ATOM     28  C   UNL     1       1.374  -2.542   2.276  0.00  0.00    +0.026 A 
ATOM     29  F   UNL     1       0.663  -5.998   1.431  0.00  0.00    -0.205 F 
ENDBRANCH  18  23
ENDBRANCH   1  21
BRANCH   1  30
ATOM     30  C   UNL     1       0.802   3.950  -1.385  0.00  0.00    +0.143 A 
ATOM     31  N   UNL     1       1.069   3.454  -2.568  0.00  0.00    -0.115 NA
ATOM     32  N   UNL     1       0.374   4.103  -3.437  0.00  0.00    -0.023 NA
ATOM     33  N   UNL     1      -0.322   5.006  -2.840  0.00  0.00    -0.044 NA
ATOM     34  N   UNL     1      -0.086   4.943  -1.573  0.00  0.00    -0.228 N 
BRANCH  34  35
ATOM     35  C   UNL     1      -0.674   5.793  -0.535  0.00  0.00    +0.178 C 
BRANCH  35  36
ATOM     36  C   UNL     1       0.205   7.029  -0.329  0.00  0.00    +0.140 C 
ATOM     37  C   UNL     1      -0.344   7.872   0.842  0.00  0.00    +0.035 C 
ATOM     38  C   UNL     1      -0.140   9.323   0.326  0.00  0.00    +0.031 C 
ATOM     39  C   UNL     1      -0.385   9.133  -1.192  0.00  0.00    +0.160 C 
ATOM     40  O   UNL     1       0.175   7.847  -1.504  0.00  0.00    -0.375 OA
ENDBRANCH  35  36
ENDBRANCH  34  35
ENDBRANCH   1  30
TORSDOF 7
