REMARK  Name = ZINC08934136
REMARK  6 active torsions:
REMARK  status: ('A' for Active; 'I' for Inactive)
REMARK    1  A    between atoms: C_1  and  C_2
REMARK    2  A    between atoms: C_3  and  C_28
REMARK    3  A    between atoms: C_4  and  N_27
REMARK    4  A    between atoms: C_5  and  C_14
REMARK    5  A    between atoms: N_6  and  C_7
REMARK    6  A    between atoms: C_14  and  C_16
REMARK                            x       y       z     vdW  Elec       q    Type
REMARK                         _______ _______ _______ _____ _____    ______ ____
ROOT
ATOM      1  C   UNL     1      -2.192   4.092   2.335  0.00  0.00    +0.065 C 
ATOM      2  C   UNL     1      -2.261   3.034   1.264  0.00  0.00    +0.041 A 
ATOM      3  C   UNL     1      -1.871   3.197  -0.051  0.00  0.00    +0.094 A 
ATOM      4  C   UNL     1      -2.102   1.966  -0.717  0.00  0.00    +0.071 A 
ATOM      5  C   UNL     1      -2.620   1.090   0.233  0.00  0.00    +0.112 A 
ATOM      6  N   UNL     1      -2.705   1.775   1.437  0.00  0.00    -0.308 N 
ENDROOT
BRANCH   6   7
ATOM      7  C   UNL     1      -3.179   1.241   2.642  0.00  0.00    +0.047 A 
ATOM      8  C   UNL     1      -4.509   0.858   2.758  0.00  0.00    +0.027 A 
ATOM      9  C   UNL     1      -4.972   0.327   3.945  0.00  0.00    +0.017 A 
ATOM     10  C   UNL     1      -4.115   0.187   5.023  0.00  0.00    +0.018 A 
ATOM     11  C   UNL     1      -2.791   0.572   4.912  0.00  0.00    +0.017 A 
ATOM     12  C   UNL     1      -2.321   1.099   3.725  0.00  0.00    +0.027 A 
ATOM     13 BR   UNL     1      -4.756  -0.533   6.650  0.00  0.00    -0.050 Br
ENDBRANCH   6   7
BRANCH   4  14
ATOM     14  N   UNL     1      -1.855   1.688  -2.050  0.00  0.00    -0.355 N 
ATOM     15  H   UNL     1      -2.126   0.836  -2.426  0.00  0.00    +0.142 HD
ATOM     16  H   UNL     1      -1.415   2.347  -2.609  0.00  0.00    +0.142 HD
ENDBRANCH   4  14
BRANCH   5  17
ATOM     17  C   UNL     1      -2.990  -0.245   0.012  0.00  0.00    +0.188 C 
ATOM     18  O   UNL     1      -4.136  -0.517  -0.289  0.00  0.00    -0.290 OA
BRANCH  17  19
ATOM     19  C   UNL     1      -1.966  -1.343   0.148  0.00  0.00    +0.036 C 
ATOM     20  C   UNL     1      -1.312  -1.262   1.529  0.00  0.00    +0.018 C 
ATOM     21  C   UNL     1      -0.273  -2.377   1.667  0.00  0.00    -0.010 C 
ATOM     22  C   UNL     1      -0.957  -3.735   1.505  0.00  0.00    +0.007 C 
ATOM     23  C   UNL     1      -1.611  -3.816   0.124  0.00  0.00    -0.010 C 
ATOM     24  C   UNL     1      -2.650  -2.702  -0.014  0.00  0.00    +0.018 C 
ATOM     25  C   UNL     1      -0.540  -3.652  -0.957  0.00  0.00    +0.007 C 
ATOM     26  C   UNL     1       0.144  -2.293  -0.795  0.00  0.00    -0.010 C 
ATOM     27  C   UNL     1       0.797  -2.212   0.587  0.00  0.00    +0.007 C 
ATOM     28  C   UNL     1      -0.895  -1.179  -0.933  0.00  0.00    +0.018 C 
ENDBRANCH  17  19
ENDBRANCH   5  17
BRANCH   3  29
ATOM     29  C   UNL     1      -1.336   4.390  -0.635  0.00  0.00    +0.103 C 
ATOM     30  N   UNL     1      -0.911   5.336  -1.098  0.00  0.00    -0.191 NA
ENDBRANCH   3  29
TORSDOF 5
