REMARK  Name = ZINC66684225
REMARK  11 active torsions:
REMARK  status: ('A' for Active; 'I' for Inactive)
REMARK    1  A    between atoms: C_1  and  C_2
REMARK    2  A    between atoms: C_5  and  N_14
REMARK    3  A    between atoms: C_7  and  C_8
REMARK    4  A    between atoms: N_10  and  C_11
REMARK    5  A    between atoms: C_11  and  C_12
REMARK    6  A    between atoms: C_11  and  C_13
REMARK    7  A    between atoms: N_17  and  C_18
REMARK    8  A    between atoms: C_18  and  C_19
REMARK    9  A    between atoms: C_19  and  C_20
REMARK   10  A    between atoms: C_23  and  N_26
REMARK   11  A    between atoms: C_27  and  C_29
REMARK                            x       y       z     vdW  Elec       q    Type
REMARK                         _______ _______ _______ _____ _____    ______ ____
ROOT
ATOM      1  N   UNL     1       0.367  -5.244  -0.552  0.00  0.00    -0.269 N 
ATOM      2  C   UNL     1       0.419  -6.006  -1.663  0.00  0.00    +0.304 C 
ATOM      3  O   UNL     1       0.312  -5.491  -2.759  0.00  0.00    -0.253 OA
ATOM      4  N   UNL     1       0.590  -7.339  -1.558  0.00  0.00    -0.299 N 
ATOM      5  H   UNL     1       0.386  -5.661   0.323  0.00  0.00    +0.156 HD
ATOM      6  H   UNL     1       0.676  -7.750  -0.684  0.00  0.00    +0.150 HD
ENDROOT
BRANCH   1  11
ATOM      7  C   UNL     1       0.051   0.414  -0.976  0.00  0.00    +0.044 C 
ATOM      8  C   UNL     1       0.132  -1.086  -0.867  0.00  0.00    -0.038 A 
ATOM      9  C   UNL     1       0.847  -1.665   0.162  0.00  0.00    +0.006 A 
ATOM     10  C   UNL     1       0.925  -3.041   0.267  0.00  0.00    +0.023 A 
ATOM     11  C   UNL     1       0.284  -3.851  -0.663  0.00  0.00    +0.035 A 
ATOM     12  C   UNL     1      -0.437  -3.280  -1.699  0.00  0.00    +0.036 A 
ATOM     13  C   UNL     1      -0.520  -1.891  -1.802  0.00  0.00    +0.041 A 
BRANCH  13  14
ATOM     14  C   UNL     1      -1.291  -1.273  -2.902  0.00  0.00    +0.245 C 
ATOM     15  O   UNL     1      -1.297  -0.065  -3.037  0.00  0.00    -0.270 OA
ATOM     16  N   UNL     1      -1.988  -2.050  -3.756  0.00  0.00    -0.309 N 
ATOM     17  H   UNL     1      -1.983  -3.014  -3.648  0.00  0.00    +0.149 HD
BRANCH  16  18
ATOM     18  C   UNL     1      -2.752  -1.438  -4.845  0.00  0.00    +0.067 C 
ATOM     19  C   UNL     1      -1.831  -1.201  -6.044  0.00  0.00    +0.027 C 
ATOM     20  C   UNL     1      -3.892  -2.372  -5.256  0.00  0.00    +0.027 C 
ENDBRANCH  16  18
ENDBRANCH  13  14
ENDBRANCH   1  11
BRANCH   4  21
ATOM     21  C   UNL     1       0.647  -8.167  -2.765  0.00  0.00    +0.110 C 
BRANCH  21  22
ATOM     22  C   UNL     1       0.847  -9.632  -2.370  0.00  0.00    +0.054 C 
BRANCH  22  23
ATOM     23  C   UNL     1       0.905 -10.483  -3.612  0.00  0.00    -0.046 A 
ATOM     24  C   UNL     1      -0.257 -11.018  -4.137  0.00  0.00    +0.005 A 
ATOM     25  C   UNL     1      -0.206 -11.799  -5.275  0.00  0.00    +0.023 A 
ATOM     26  C   UNL     1       1.013 -12.047  -5.892  0.00  0.00    +0.033 A 
ATOM     27  C   UNL     1       2.178 -11.509  -5.362  0.00  0.00    +0.023 A 
ATOM     28  C   UNL     1       2.120 -10.725  -4.226  0.00  0.00    +0.005 A 
BRANCH  26  29
ATOM     29  N   UNL     1       1.067 -12.839  -7.044  0.00  0.00    -0.286 N 
ATOM     30  C   UNL     1       0.060 -12.797  -7.938  0.00  0.00    +0.214 C 
ATOM     31  O   UNL     1      -0.848 -12.007  -7.793  0.00  0.00    -0.276 OA
ATOM     32  C   UNL     1       0.062 -13.733  -9.119  0.00  0.00    +0.109 C 
ATOM     33  H   UNL     1       1.830 -13.417  -7.200  0.00  0.00    +0.155 HD
ENDBRANCH  26  29
ENDBRANCH  22  23
ENDBRANCH  21  22
ENDBRANCH   4  21
TORSDOF 7
