REMARK  Name = ZINC48843758
REMARK  5 active torsions:
REMARK  status: ('A' for Active; 'I' for Inactive)
REMARK    1  A    between atoms: C_1  and  C_2
REMARK    2  A    between atoms: C_5  and  N_11
REMARK    3  A    between atoms: C_6  and  C_8
REMARK    4  A    between atoms: N_14  and  C_15
REMARK    5  A    between atoms: C_21  and  N_23
REMARK                            x       y       z     vdW  Elec       q    Type
REMARK                         _______ _______ _______ _____ _____    ______ ____
ROOT
ATOM      1  N   UNL     1       0.051  -4.112  -0.039  0.00  0.00    -0.269 N 
ATOM      2  C   UNL     1      -0.035  -4.759  -1.218  0.00  0.00    +0.304 C 
ATOM      3  O   UNL     1      -0.032  -4.129  -2.258  0.00  0.00    -0.253 OA
ATOM      4  N   UNL     1      -0.124  -6.103  -1.244  0.00  0.00    -0.298 N 
ATOM      5  H   UNL     1       0.114  -4.615   0.787  0.00  0.00    +0.156 HD
ATOM      6  H   UNL     1      -0.126  -6.605  -0.414  0.00  0.00    +0.150 HD
ENDROOT
BRANCH   1  11
ATOM      7  C   UNL     1       0.051   1.564   0.076  0.00  0.00    +0.044 C 
ATOM      8  C   UNL     1       0.046   0.057   0.054  0.00  0.00    -0.050 A 
ATOM      9  C   UNL     1       0.666  -0.619  -0.985  0.00  0.00    +0.005 A 
ATOM     10  C   UNL     1       0.669  -1.998  -1.018  0.00  0.00    +0.024 A 
ATOM     11  C   UNL     1       0.050  -2.720  -0.007  0.00  0.00    +0.049 A 
ATOM     12  C   UNL     1      -0.579  -2.039   1.048  0.00  0.00    +0.085 A 
ATOM     13  C   UNL     1      -0.569  -0.640   1.070  0.00  0.00    +0.020 A 
BRANCH  12  14
ATOM     14  C   UNL     1      -1.240  -2.792   2.126  0.00  0.00    +0.388 C 
ATOM     15  O   UNL     1      -1.863  -2.196   2.995  0.00  0.00    -0.241 OA
ATOM     16  O   UNL     1      -1.167  -4.013   2.154  0.00  0.00    -0.241 OA
ENDBRANCH  12  14
ENDBRANCH   1  11
BRANCH   4  17
ATOM     17  C   UNL     1      -0.217  -6.806  -2.526  0.00  0.00    +0.060 C 
ATOM     18  C   UNL     1      -1.678  -6.848  -2.979  0.00  0.00    +0.021 C 
ATOM     19  C   UNL     1      -1.776  -7.582  -4.318  0.00  0.00    +0.002 C 
ATOM     20  C   UNL     1      -1.252  -9.010  -4.155  0.00  0.00    -0.001 C 
ATOM     21  C   UNL     1       0.209  -8.969  -3.701  0.00  0.00    -0.014 C 
ATOM     22  C   UNL     1       0.306  -8.235  -2.363  0.00  0.00    -0.054 C 
BRANCH  22  23
ATOM     23  N   UNL     1       1.709  -8.195  -1.927  0.00  0.00    +0.381 N 
ATOM     24  H   UNL     1       1.773  -7.711  -1.044  0.00  0.00    -0.090 HD
ATOM     25  H   UNL     1       2.054  -9.137  -1.820  0.00  0.00    -0.090 HD
ATOM     26  H   UNL     1       2.262  -7.711  -2.618  0.00  0.00    -0.090 HD
ENDBRANCH  22  23
ENDBRANCH   4  17
TORSDOF 4
