REMARK  Name = ZINC15484799
REMARK  13 active torsions:
REMARK  status: ('A' for Active; 'I' for Inactive)
REMARK    1  A    between atoms: C_1  and  C_2
REMARK    2  A    between atoms: C_2  and  N_3
REMARK    3  A    between atoms: N_3  and  C_4
REMARK    4  A    between atoms: C_4  and  C_5
REMARK    5  A    between atoms: C_6  and  C_8
REMARK    6  A    between atoms: C_8  and  N_58
REMARK    7  A    between atoms: C_9  and  N_58
REMARK    8  A    between atoms: C_10  and  C_11
REMARK    9  A    between atoms: C_10  and  N_58
REMARK   10  A    between atoms: N_13  and  C_14
REMARK   11  A    between atoms: C_14  and  C_15
REMARK   12  A    between atoms: C_15  and  N_16
REMARK   13  A    between atoms: C_20  and  C_21
REMARK                            x       y       z     vdW  Elec       q    Type
REMARK                         _______ _______ _______ _____ _____    ______ ____
ROOT
ATOM      1  C   UNL     1      -1.800  -1.069  -0.887  0.00  0.00    +0.123 C 
ENDROOT
BRANCH   1   4
ATOM      2  C   UNL     1      -3.700  -2.226  -1.880  0.00  0.00    +0.197 C 
ATOM      3  O   UNL     1      -3.206  -2.038  -2.972  0.00  0.00    -0.278 OA
ATOM      4  N   UNL     1      -3.075  -1.781  -0.772  0.00  0.00    -0.315 N 
ATOM      5  H   UNL     1      -3.470  -1.931   0.101  0.00  0.00    +0.149 HD
BRANCH   2   6
ATOM      6  C   UNL     1      -5.013  -2.958  -1.763  0.00  0.00    +0.019 C 
BRANCH   6   8
ATOM      7  C   UNL     1      -5.817  -2.147  -3.898  0.00  0.00    -0.095 C 
ATOM      8  N   UNL     1      -5.463  -3.350  -3.115  0.00  0.00    +0.389 N 
ATOM      9  H   UNL     1      -4.699  -3.845  -3.590  0.00  0.00    -0.081 HD
BRANCH   8  10
ATOM     10  C   UNL     1      -6.630  -4.251  -3.017  0.00  0.00    +0.019 C 
BRANCH  10  12
ATOM     11  N   UNL     1      -7.948  -5.676  -4.551  0.00  0.00    -0.304 N 
ATOM     12  C   UNL     1      -6.930  -4.808  -4.385  0.00  0.00    +0.199 C 
ATOM     13  O   UNL     1      -6.255  -4.476  -5.336  0.00  0.00    -0.278 OA
BRANCH  11  15
ATOM     14  C   UNL     1      -9.944  -5.116  -3.253  0.00  0.00    +0.024 C 
ATOM     15  C   UNL     1      -8.763  -6.077  -3.401  0.00  0.00    +0.104 C 
ENDBRANCH  11  15
BRANCH  11  16
ATOM     16  C   UNL     1      -8.240  -6.218  -5.880  0.00  0.00    +0.104 C 
ATOM     17  C   UNL     1      -7.444  -7.507  -6.091  0.00  0.00    +0.024 C 
ENDBRANCH  11  16
ENDBRANCH  10  12
ENDBRANCH   8  10
ENDBRANCH   6   8
ENDBRANCH   2   6
ENDBRANCH   1   4
BRANCH   1  18
ATOM     18  C   UNL     1      -1.309  -0.675   0.508  0.00  0.00    +0.136 C 
BRANCH  18  19
ATOM     19  N   UNL     1      -0.033   0.036   0.393  0.00  0.00    -0.227 N 
ATOM     20  C   UNL     1      -0.037   1.351   0.259  0.00  0.00    +0.260 C 
ATOM     21  O   UNL     1      -1.073   1.988   0.223  0.00  0.00    -0.269 OA
ATOM     22  C   UNL     1       1.282   2.009   0.149  0.00  0.00    +0.080 C 
ATOM     23  C   UNL     1       1.584   3.323   0.004  0.00  0.00    +0.029 C 
ATOM     24  S   UNL     1       2.371   0.595   0.257  0.00  0.00    -0.026 S 
ATOM     25  C   UNL     1       1.118  -0.666   0.427  0.00  0.00    +0.286 C 
ATOM     26  O   UNL     1       1.266  -1.867   0.544  0.00  0.00    -0.262 OA
BRANCH  23  27
ATOM     27  C   UNL     1       2.980   3.772   0.104  0.00  0.00    -0.005 A 
ATOM     28  C   UNL     1       3.942   2.950   0.702  0.00  0.00    +0.009 A 
ATOM     29  C   UNL     1       5.250   3.376   0.787  0.00  0.00    +0.001 A 
ATOM     30  C   UNL     1       5.612   4.618   0.294  0.00  0.00    +0.001 A 
ATOM     31  C   UNL     1       4.667   5.440  -0.294  0.00  0.00    +0.020 A 
ATOM     32  C   UNL     1       3.353   5.027  -0.392  0.00  0.00    +0.048 A 
ATOM     33 CL   UNL     1       2.168   6.060  -1.129  0.00  0.00    -0.083 Cl
ENDBRANCH  23  27
ENDBRANCH  18  19
ENDBRANCH   1  18
TORSDOF 10
