REMARK  Name = ZINC14478486
REMARK  5 active torsions:
REMARK  status: ('A' for Active; 'I' for Inactive)
REMARK    1  A    between atoms: C_1  and  C_2
REMARK    2  A    between atoms: C_7  and  C_8
REMARK    3  A    between atoms: C_19  and  S_24
REMARK    4  A    between atoms: S_24  and  N_27
REMARK    5  A    between atoms: N_27  and  C_28
REMARK                            x       y       z     vdW  Elec       q    Type
REMARK                         _______ _______ _______ _____ _____    ______ ____
ROOT
ATOM      1  C   UNL     1      -0.247   0.750   2.340  0.00  0.00    +0.105 C 
ATOM      2  C   UNL     1       1.177   1.236   2.544  0.00  0.00    +0.029 C 
ATOM      3  C   UNL     1       1.696   2.308   1.577  0.00  0.00    +0.033 C 
ATOM      4  C   UNL     1       2.711   3.047   2.453  0.00  0.00    -0.030 C 
ATOM      5  C   UNL     1       2.386   2.914   3.733  0.00  0.00    -0.023 C 
ATOM      6  C   UNL     1       1.140   2.096   3.843  0.00  0.00    +0.049 C 
ATOM      7  C   UNL     1       0.868   1.189   4.979  0.00  0.00    -0.018 A 
ATOM      8  C   UNL     1       1.420   1.381   6.228  0.00  0.00    +0.034 A 
ATOM      9  C   UNL     1       1.124   0.513   7.262  0.00  0.00    +0.109 A 
ATOM     10  C   UNL     1       0.271  -0.554   7.046  0.00  0.00    +0.030 A 
ATOM     11  C   UNL     1      -0.282  -0.758   5.799  0.00  0.00    +0.025 A 
ATOM     12  C   UNL     1       0.014   0.105   4.750  0.00  0.00    +0.031 A 
ATOM     13  N   UNL     1      -0.534  -0.142   3.485  0.00  0.00    -0.336 N 
ATOM     14  H   UNL     1      -1.111  -0.912   3.356  0.00  0.00    +0.147 HD
ENDROOT
BRANCH   1  21
ATOM     15  C   UNL     1      -2.847   0.139   1.238  0.00  0.00    +0.044 C 
ATOM     16  C   UNL     1      -1.600  -0.305   0.518  0.00  0.00    -0.045 A 
ATOM     17  C   UNL     1      -1.700  -1.001  -0.673  0.00  0.00    +0.004 A 
ATOM     18  C   UNL     1      -0.556  -1.408  -1.333  0.00  0.00    +0.000 A 
ATOM     19  C   UNL     1       0.688  -1.121  -0.803  0.00  0.00    +0.000 A 
ATOM     20  C   UNL     1       0.788  -0.425   0.387  0.00  0.00    +0.006 A 
ATOM     21  C   UNL     1      -0.356  -0.013   1.045  0.00  0.00    -0.024 A 
ENDBRANCH   1  21
BRANCH   9  22
ATOM     22  S   UNL     1       1.836   0.765   8.854  0.00  0.00    +0.072 S 
ATOM     23  O   UNL     1       1.945  -0.517   9.457  0.00  0.00    -0.150 OA
ATOM     24  O   UNL     1       2.957   1.618   8.668  0.00  0.00    -0.150 OA
BRANCH  22  25
ATOM     25  N   UNL     1       0.736   1.618   9.752  0.00  0.00    -0.216 N 
ATOM     26  H   UNL     1       0.350   1.223  10.550  0.00  0.00    +0.174 HD
BRANCH  25  27
ATOM     27  C   UNL     1       0.365   2.906   9.361  0.00  0.00    +0.048 A 
ATOM     28  C   UNL     1       1.334   3.820   8.965  0.00  0.00    +0.024 A 
ATOM     29  C   UNL     1       0.963   5.093   8.579  0.00  0.00    +0.002 A 
ATOM     30  C   UNL     1      -0.370   5.459   8.587  0.00  0.00    +0.000 A 
ATOM     31  C   UNL     1      -1.337   4.552   8.981  0.00  0.00    +0.002 A 
ATOM     32  C   UNL     1      -0.974   3.276   9.363  0.00  0.00    +0.024 A 
ENDBRANCH  25  27
ENDBRANCH  22  25
ENDBRANCH   9  22
TORSDOF 4
