REMARK  Name = ZINC09419041
REMARK  8 active torsions:
REMARK  status: ('A' for Active; 'I' for Inactive)
REMARK    1  A    between atoms: C_1  and  C_2
REMARK    2  A    between atoms: C_4  and  O_30
REMARK    3  A    between atoms: C_6  and  C_29
REMARK    4  A    between atoms: C_7  and  C_13
REMARK    5  A    between atoms: C_13  and  C_14
REMARK    6  A    between atoms: N_16  and  C_17
REMARK    7  A    between atoms: C_17  and  C_18
REMARK    8  A    between atoms: C_20  and  C_23
REMARK                            x       y       z     vdW  Elec       q    Type
REMARK                         _______ _______ _______ _____ _____    ______ ____
ROOT
ATOM      1  C   UNL     1      -2.196   1.266  -0.005  0.00  0.00    +0.138 C 
ENDROOT
BRANCH   1   8
ATOM      2  C   UNL     1      -9.142   5.111  -0.787  0.00  0.00    +0.044 C 
ATOM      3  C   UNL     1      -7.837   4.363  -0.885  0.00  0.00    -0.043 A 
ATOM      4  C   UNL     1      -7.369   3.961  -2.125  0.00  0.00    +0.049 A 
ATOM      5  C   UNL     1      -6.174   3.273  -2.231  0.00  0.00    +0.128 A 
ATOM      6  C   UNL     1      -5.439   2.985  -1.070  0.00  0.00    +0.062 A 
ATOM      7  C   UNL     1      -4.170   2.258  -1.141  0.00  0.00    -0.026 A 
ATOM      8  C   UNL     1      -3.507   2.010   0.018  0.00  0.00    +0.049 A 
ATOM      9  C   UNL     1      -4.051   2.446   1.244  0.00  0.00    +0.341 A 
ATOM     10  O   UNL     1      -3.449   2.213   2.276  0.00  0.00    -0.245 OA
ATOM     11  O   UNL     1      -5.212   3.116   1.301  0.00  0.00    -0.422 OA
ATOM     12  C   UNL     1      -5.921   3.395   0.185  0.00  0.00    +0.143 A 
ATOM     13  C   UNL     1      -7.123   4.085   0.263  0.00  0.00    +0.050 A 
ATOM     14  C   UNL     1      -3.615   1.799  -2.465  0.00  0.00    +0.045 C 
BRANCH   5  15
ATOM     15  O   UNL     1      -5.716   2.880  -3.446  0.00  0.00    -0.506 OA
ATOM     16  H   UNL     1      -6.016   2.001  -3.714  0.00  0.00    +0.292 HD
ENDBRANCH   5  15
ENDBRANCH   1   8
BRANCH   1  17
ATOM     17  C   UNL     1      -1.063   2.249  -0.148  0.00  0.00    +0.218 C 
ATOM     18  O   UNL     1      -1.296   3.437  -0.224  0.00  0.00    -0.275 OA
ATOM     19  N   UNL     1       0.210   1.808  -0.192  0.00  0.00    -0.306 N 
ATOM     20  H   UNL     1       0.396   0.858  -0.132  0.00  0.00    +0.149 HD
BRANCH  19  21
ATOM     21  C   UNL     1       1.311   2.763  -0.337  0.00  0.00    +0.203 C 
BRANCH  21  22
ATOM     22  C   UNL     1       2.621   2.018  -0.366  0.00  0.00    +0.245 A 
ATOM     23  N   UNL     1       3.229   1.553  -1.429  0.00  0.00    -0.190 NA
ATOM     24  C   UNL     1       4.359   0.966  -0.975  0.00  0.00    +0.202 A 
ATOM     25  N   UNL     1       4.371   1.108   0.325  0.00  0.00    -0.056 NA
ATOM     26  O   UNL     1       3.384   1.713   0.688  0.00  0.00    -0.336 OA
BRANCH  24  27
ATOM     27  C   UNL     1       5.392   0.288  -1.797  0.00  0.00    +0.022 A 
ATOM     28  C   UNL     1       5.243   0.208  -3.180  0.00  0.00    +0.012 A 
ATOM     29  C   UNL     1       6.209  -0.419  -3.940  0.00  0.00    +0.001 A 
ATOM     30  C   UNL     1       7.319  -0.977  -3.330  0.00  0.00    +0.000 A 
ATOM     31  C   UNL     1       7.469  -0.904  -1.957  0.00  0.00    +0.001 A 
ATOM     32  C   UNL     1       6.511  -0.275  -1.188  0.00  0.00    +0.012 A 
ENDBRANCH  24  27
ENDBRANCH  21  22
ENDBRANCH  19  21
ENDBRANCH   1  17
TORSDOF 6
