REMARK  Name = ZINC07813564
REMARK  9 active torsions:
REMARK  status: ('A' for Active; 'I' for Inactive)
REMARK    1  A    between atoms: C_1  and  C_2
REMARK    2  A    between atoms: C_5  and  C_8
REMARK    3  A    between atoms: C_8  and  N_9
REMARK    4  A    between atoms: C_10  and  C_12
REMARK    5  A    between atoms: C_17  and  N_18
REMARK    6  A    between atoms: C_19  and  C_21
REMARK    7  A    between atoms: C_21  and  N_54
REMARK    8  A    between atoms: C_22  and  C_23
REMARK    9  A    between atoms: C_22  and  N_54
REMARK                            x       y       z     vdW  Elec       q    Type
REMARK                         _______ _______ _______ _____ _____    ______ ____
ROOT
ATOM      1  C   UNL     1       1.294  -0.727  -0.020  0.00  0.00    +0.058 A 
ATOM      2  C   UNL     1       2.495  -0.024  -0.143  0.00  0.00    +0.015 A 
ATOM      3  C   UNL     1       3.692  -0.705  -0.156  0.00  0.00    +0.001 A 
ATOM      4  C   UNL     1       3.712  -2.087  -0.058  0.00  0.00    +0.002 A 
ATOM      5  C   UNL     1       2.534  -2.796   0.059  0.00  0.00    +0.024 A 
ATOM      6  C   UNL     1       1.318  -2.126   0.079  0.00  0.00    +0.045 A 
ENDROOT
BRANCH   1   8
ATOM      7  N   UNL     1      -0.006   1.344   0.006  0.00  0.00    -0.307 N 
ATOM      8  C   UNL     1       0.009  -0.004   0.000  0.00  0.00    +0.246 C 
ATOM      9  O   UNL     1      -1.037  -0.623   0.012  0.00  0.00    -0.270 OA
ATOM     10  H   UNL     1       0.829   1.838  -0.004  0.00  0.00    +0.149 HD
BRANCH   7  11
ATOM     11  C   UNL     1      -1.282   2.062   0.019  0.00  0.00    +0.139 C 
BRANCH  11  16
ATOM     12  C   UNL     1      -0.290   7.755   0.033  0.00  0.00    +0.044 C 
ATOM     13  C   UNL     1      -0.549   6.271   0.030  0.00  0.00    -0.050 A 
ATOM     14  C   UNL     1      -0.677   5.594  -1.169  0.00  0.00    +0.003 A 
ATOM     15  C   UNL     1      -0.915   4.232  -1.172  0.00  0.00    +0.005 A 
ATOM     16  C   UNL     1      -1.023   3.547   0.023  0.00  0.00    -0.030 A 
ATOM     17  C   UNL     1      -0.900   4.224   1.222  0.00  0.00    +0.005 A 
ATOM     18  C   UNL     1      -0.658   5.585   1.225  0.00  0.00    +0.003 A 
ENDBRANCH  11  16
ENDBRANCH   7  11
ENDBRANCH   1   8
BRANCH   6  19
ATOM     19  N   UNL     1       0.128  -2.840   0.198  0.00  0.00    -0.286 N 
ATOM     20  C   UNL     1       0.084  -3.956   0.952  0.00  0.00    +0.200 C 
ATOM     21  O   UNL     1       1.052  -4.287   1.603  0.00  0.00    -0.278 OA
ATOM     22  H   UNL     1      -0.669  -2.534  -0.262  0.00  0.00    +0.155 HD
BRANCH  20  23
ATOM     23  C   UNL     1      -1.169  -4.794   0.986  0.00  0.00    +0.015 C 
BRANCH  23  24
ATOM     24  N   UNL     1      -0.955  -5.948   1.879  0.00  0.00    +0.386 N 
ATOM     25  H   UNL     1      -0.736  -5.609   2.823  0.00  0.00    -0.085 HD
ATOM     26  H   UNL     1      -0.170  -6.508   1.526  0.00  0.00    -0.085 HD
BRANCH  24  27
ATOM     27  C   UNL     1      -2.167  -6.787   1.931  0.00  0.00    -0.050 C 
BRANCH  27  28
ATOM     28  C   UNL     1      -1.915  -7.974   2.863  0.00  0.00    +0.101 C 
ATOM     29  C   UNL     1      -3.172  -8.862   2.931  0.00  0.00    +0.032 C 
ATOM     30  C   UNL     1      -2.682 -10.250   2.452  0.00  0.00    +0.030 C 
ATOM     31  C   UNL     1      -1.153 -10.153   2.686  0.00  0.00    +0.160 C 
ATOM     32  O   UNL     1      -0.847  -8.784   2.346  0.00  0.00    -0.378 OA
ENDBRANCH  27  28
ENDBRANCH  24  27
ENDBRANCH  23  24
ENDBRANCH  20  23
ENDBRANCH   6  19
TORSDOF 8
