REMARK  Name = ZINC35344458
REMARK  7 active torsions:
REMARK  status: ('A' for Active; 'I' for Inactive)
REMARK    1  A    between atoms: C_4  and  N_7
REMARK    2  A    between atoms: C_8  and  C_30
REMARK    3  A    between atoms: C_11  and  S_12
REMARK    4  A    between atoms: S_12  and  C_13
REMARK    5  A    between atoms: C_13  and  C_14
REMARK    6  A    between atoms: C_16  and  C_19
REMARK    7  A    between atoms: C_24  and  C_27
REMARK                            x       y       z     vdW  Elec       q    Type
REMARK                         _______ _______ _______ _____ _____    ______ ____
ROOT
ATOM      1  C   UNL     1       5.473   0.123   3.228  0.00  0.00    +0.140 C 
ENDROOT
BRANCH   1   2
ATOM      2  C   UNL     1       5.814   0.642   4.601  0.00  0.00    +0.089 A 
ATOM      3  N   UNL     1       5.426   0.176   5.757  0.00  0.00    -0.239 NA
ATOM      4  C   UNL     1       5.850   0.794   6.864  0.00  0.00    +0.133 A 
ATOM      5  C   UNL     1       6.666   1.876   6.675  0.00  0.00    +0.080 A 
ATOM      6  S   UNL     1       6.787   1.950   5.001  0.00  0.00    -0.079 S 
BRANCH   4   7
ATOM      7  C   UNL     1       5.461   0.336   8.209  0.00  0.00    +0.265 C 
ATOM      8  O   UNL     1       5.739   1.008   9.184  0.00  0.00    -0.268 OA
ATOM      9  N   UNL     1       4.798  -0.827   8.360  0.00  0.00    -0.296 N 
ATOM     10  C   UNL     1       4.260  -1.219   9.670  0.00  0.00    +0.109 C 
ATOM     11  C   UNL     1       4.778  -2.618  10.017  0.00  0.00    +0.032 C 
ATOM     12  C   UNL     1       4.430  -3.583   8.882  0.00  0.00    +0.078 C 
ATOM     13  C   UNL     1       5.112  -3.122   7.591  0.00  0.00    +0.032 C 
ATOM     14  C   UNL     1       4.594  -1.726   7.215  0.00  0.00    +0.109 C 
BRANCH  12  15
ATOM     15  C   UNL     1       4.908  -4.968   9.235  0.00  0.00    +0.214 C 
ATOM     16  O   UNL     1       5.471  -5.163  10.291  0.00  0.00    -0.276 OA
ATOM     17  N   UNL     1       4.710  -5.989   8.378  0.00  0.00    -0.329 N 
ATOM     18  H   UNL     1       4.259  -5.832   7.533  0.00  0.00    +0.145 HD
ATOM     19  H   UNL     1       5.017  -6.880   8.606  0.00  0.00    +0.145 HD
ENDBRANCH  12  15
ENDBRANCH   4   7
ENDBRANCH   1   2
BRANCH   1  20
ATOM     20  S   UNL     1       3.971   0.944   2.626  0.00  0.00    -0.079 S 
BRANCH  20  25
ATOM     21  N   UNL     1       2.688   0.538   0.171  0.00  0.00    -0.268 N 
ATOM     22  C   UNL     1       2.899  -0.252  -0.940  0.00  0.00    +0.205 A 
ATOM     23  N   UNL     1       3.982  -0.962  -0.707  0.00  0.00    -0.125 NA
ATOM     24  N   UNL     1       4.454  -0.675   0.453  0.00  0.00    -0.122 NA
ATOM     25  C   UNL     1       3.709   0.238   1.033  0.00  0.00    +0.197 A 
BRANCH  21  29
ATOM     26  C   UNL     1      -0.398   3.275   0.769  0.00  0.00    +0.000 A 
ATOM     27  C   UNL     1       0.909   3.718   0.680  0.00  0.00    +0.002 A 
ATOM     28  C   UNL     1       1.934   2.813   0.482  0.00  0.00    +0.026 A 
ATOM     29  C   UNL     1       1.651   1.458   0.372  0.00  0.00    +0.051 A 
ATOM     30  C   UNL     1       0.337   1.017   0.462  0.00  0.00    +0.026 A 
ATOM     31  C   UNL     1      -0.683   1.927   0.660  0.00  0.00    +0.002 A 
ENDBRANCH  21  29
BRANCH  22  32
ATOM     32  C   UNL     1       2.070  -0.293  -2.155  0.00  0.00    +0.172 A 
ATOM     33  C   UNL     1       2.424  -0.851  -3.347  0.00  0.00    +0.053 A 
ATOM     34  C   UNL     1       1.337  -0.664  -4.221  0.00  0.00    +0.042 A 
ATOM     35  C   UNL     1       0.382  -0.008  -3.530  0.00  0.00    +0.196 A 
ATOM     36  O   UNL     1       0.826   0.209  -2.281  0.00  0.00    -0.460 OA
ENDBRANCH  22  32
ENDBRANCH  20  25
ENDBRANCH   1  20
TORSDOF 7
