REMARK  Name = ZINC55104794
REMARK  7 active torsions:
REMARK  status: ('A' for Active; 'I' for Inactive)
REMARK    1  A    between atoms: C_1  and  C_2
REMARK    2  A    between atoms: C_9  and  N_14
REMARK    3  A    between atoms: N_14  and  S_15
REMARK    4  A    between atoms: S_15  and  C_18
REMARK    5  A    between atoms: C_18  and  C_19
REMARK    6  A    between atoms: C_24  and  C_25
REMARK    7  A    between atoms: C_24  and  C_26
REMARK                            x       y       z     vdW  Elec       q    Type
REMARK                         _______ _______ _______ _____ _____    ______ ____
ROOT
ATOM      1  N   UNL     1       0.118  -5.852   2.336  0.00  0.00    -0.102 NA
ENDROOT
BRANCH   1   9
ATOM      2  C   UNL     1      -0.019   1.526   0.010  0.00  0.00    +0.062 C 
ATOM      3  C   UNL     1       0.002  -0.004   0.002  0.00  0.00    +0.256 C 
ATOM      4  C   UNL     1      -1.413  -0.525   0.011  0.00  0.00    +0.258 C 
ATOM      5  O   UNL     1      -2.306   0.131  -0.480  0.00  0.00    -0.271 OA
ATOM      6  N   UNL     1      -1.680  -1.726   0.568  0.00  0.00    -0.279 N 
ATOM      7  C   UNL     1      -0.635  -2.449   1.161  0.00  0.00    +0.078 A 
ATOM      8  C   UNL     1      -0.783  -3.795   1.452  0.00  0.00    +0.053 A 
ATOM      9  C   UNL     1       0.264  -4.493   2.039  0.00  0.00    +0.076 A 
ATOM     10  C   UNL     1       1.455  -3.842   2.333  0.00  0.00    +0.030 A 
ATOM     11  C   UNL     1       1.603  -2.498   2.041  0.00  0.00    +0.049 A 
ATOM     12  C   UNL     1       0.562  -1.799   1.455  0.00  0.00    +0.143 A 
ATOM     13  O   UNL     1       0.695  -0.477   1.160  0.00  0.00    -0.478 OA
ATOM     14  H   UNL     1      -2.582  -2.083   0.559  0.00  0.00    +0.155 HD
ENDBRANCH   1   9
BRANCH   1  15
ATOM     15  S   UNL     1       1.367  -6.685   3.037  0.00  0.00    +0.063 S 
ATOM     16  O   UNL     1       2.409  -6.656   2.071  0.00  0.00    -0.154 OA
ATOM     17  O   UNL     1       1.541  -6.075   4.309  0.00  0.00    -0.154 OA
BRANCH  15  18
ATOM     18  C   UNL     1       0.745  -8.377   3.235  0.00  0.00    +0.205 C 
BRANCH  18  19
ATOM     19  C   UNL     1       1.827  -9.246   3.881  0.00  0.00    +0.055 C 
ATOM     20  C   UNL     1       2.274  -8.822   5.313  0.00  0.00    +0.017 C 
ATOM     21  C   UNL     1       2.932 -10.089   5.906  0.00  0.00    +0.005 C 
ATOM     22  C   UNL     1       2.825 -11.152   4.770  0.00  0.00    +0.003 C 
ATOM     23  C   UNL     1       1.451 -10.749   4.126  0.00  0.00    -0.018 C 
ATOM     24  C   UNL     1       0.289 -10.899   5.110  0.00  0.00    +0.012 C 
ATOM     25  C   UNL     1       1.188 -11.497   2.817  0.00  0.00    +0.012 C 
ATOM     26  C   UNL     1       3.822 -10.652   3.679  0.00  0.00    +0.079 C 
ATOM     27  C   UNL     1       3.127  -9.400   3.080  0.00  0.00    +0.142 C 
ATOM     28  O   UNL     1       3.530  -8.686   2.193  0.00  0.00    -0.297 OA
ENDBRANCH  18  19
ENDBRANCH  15  18
ENDBRANCH   1  15
TORSDOF 4
