REMARK  Name = ZINC59016251
REMARK  7 active torsions:
REMARK  status: ('A' for Active; 'I' for Inactive)
REMARK    1  A    between atoms: C_4  and  C_7
REMARK    2  A    between atoms: C_8  and  C_9
REMARK    3  A    between atoms: N_10  and  N_11
REMARK    4  A    between atoms: C_14  and  S_17
REMARK    5  A    between atoms: S_17  and  C_18
REMARK    6  A    between atoms: C_18  and  C_19
REMARK    7  A    between atoms: N_21  and  C_22
REMARK                            x       y       z     vdW  Elec       q    Type
REMARK                         _______ _______ _______ _____ _____    ______ ____
ROOT
ATOM      1  N   UNL     1       6.195  -4.699  -0.148  0.00  0.00    -0.205 N 
ATOM      2  C   UNL     1       6.219  -6.082  -0.146  0.00  0.00    +0.232 A 
ATOM      3  N   UNL     1       5.167  -6.874  -0.137  0.00  0.00    -0.186 NA
ATOM      4  C   UNL     1       5.565  -8.150  -0.138  0.00  0.00    +0.211 A 
ATOM      5  N   UNL     1       6.877  -8.188  -0.148  0.00  0.00    -0.144 NA
ATOM      6  N   UNL     1       7.324  -6.857  -0.160  0.00  0.00    -0.245 N 
ATOM      7  H   UNL     1       7.027  -4.200  -0.160  0.00  0.00    +0.177 HD
ATOM      8  H   UNL     1       8.246  -6.554  -0.172  0.00  0.00    +0.192 HD
ENDROOT
BRANCH   1  10
ATOM      9  C   UNL     1       4.948  -2.717  -0.135  0.00  0.00    +0.130 C 
ATOM     10  N   UNL     1       4.970  -4.020  -0.133  0.00  0.00    -0.188 NA
BRANCH   9  12
ATOM     11  C   UNL     1       3.686  -0.680  -0.122  0.00  0.00    +0.009 C 
ATOM     12  C   UNL     1       3.709  -2.029  -0.120  0.00  0.00    +0.022 C 
BRANCH  11  16
ATOM     13  C   UNL     1      -0.023   1.378  -0.077  0.00  0.00    +0.000 A 
ATOM     14  C   UNL     1       1.161   2.094  -0.094  0.00  0.00    +0.001 A 
ATOM     15  C   UNL     1       2.371   1.432  -0.108  0.00  0.00    +0.008 A 
ATOM     16  C   UNL     1       2.399   0.034  -0.106  0.00  0.00    -0.025 A 
ATOM     17  C   UNL     1       1.198  -0.682  -0.089  0.00  0.00    +0.008 A 
ATOM     18  C   UNL     1      -0.004  -0.006  -0.075  0.00  0.00    +0.001 A 
ENDBRANCH  11  16
ENDBRANCH   9  12
ENDBRANCH   1  10
BRANCH   4  19
ATOM     19  S   UNL     1       4.501  -9.555  -0.127  0.00  0.00    -0.075 S 
BRANCH  19  20
ATOM     20  C   UNL     1       5.639 -10.967  -0.133  0.00  0.00    +0.173 C 
BRANCH  20  21
ATOM     21  C   UNL     1       4.847 -12.250  -0.125  0.00  0.00    +0.228 C 
ATOM     22  O   UNL     1       3.635 -12.214  -0.115  0.00  0.00    -0.275 OA
ATOM     23  N   UNL     1       5.487 -13.436  -0.128  0.00  0.00    -0.284 N 
ATOM     24  H   UNL     1       6.453 -13.466  -0.201  0.00  0.00    +0.155 HD
BRANCH  23  25
ATOM     25  C   UNL     1       4.756 -14.626  -0.025  0.00  0.00    +0.053 A 
ATOM     26  C   UNL     1       3.500 -14.723  -0.611  0.00  0.00    +0.025 A 
ATOM     27  C   UNL     1       2.781 -15.898  -0.508  0.00  0.00    +0.003 A 
ATOM     28  C   UNL     1       3.308 -16.977   0.177  0.00  0.00    +0.021 A 
ATOM     29  C   UNL     1       4.559 -16.884   0.762  0.00  0.00    +0.061 A 
ATOM     30  C   UNL     1       5.287 -15.712   0.658  0.00  0.00    +0.080 A 
ATOM     31 CL   UNL     1       6.859 -15.598   1.386  0.00  0.00    -0.080 Cl
ATOM     32 CL   UNL     1       5.217 -18.241   1.622  0.00  0.00    -0.082 Cl
ENDBRANCH  23  25
ENDBRANCH  20  21
ENDBRANCH  19  20
ENDBRANCH   4  19
TORSDOF 7
