REMARK  Name = ZINC65182325
REMARK  12 active torsions:
REMARK  status: ('A' for Active; 'I' for Inactive)
REMARK    1  A    between atoms: C_1  and  C_2
REMARK    2  A    between atoms: C_2  and  C_3
REMARK    3  A    between atoms: C_6  and  C_34
REMARK    4  A    between atoms: C_11  and  C_13
REMARK    5  A    between atoms: C_16  and  C_19
REMARK    6  A    between atoms: C_19  and  C_20
REMARK    7  A    between atoms: C_20  and  N_21
REMARK    8  A    between atoms: N_21  and  C_22
REMARK    9  A    between atoms: C_23  and  C_25
REMARK   10  A    between atoms: C_28  and  N_31
REMARK   11  A    between atoms: N_31  and  C_32
REMARK   12  A    between atoms: N_31  and  C_33
REMARK                            x       y       z     vdW  Elec       q    Type
REMARK                         _______ _______ _______ _____ _____    ______ ____
ROOT
ATOM      1  C   UNL     1      -0.574  -2.655  -1.777  0.00  0.00    +0.318 C 
ATOM      2  N   UNL     1      -0.292  -4.062  -2.104  0.00  0.00    -0.291 N 
ATOM      3  C   UNL     1      -0.822  -4.295  -3.351  0.00  0.00    +0.139 C 
ATOM      4  N   UNL     1      -1.381  -3.244  -3.829  0.00  0.00    -0.072 NA
ATOM      5  O   UNL     1      -1.284  -2.158  -2.922  0.00  0.00    -0.367 OA
ATOM      6  H   UNL     1       0.178  -4.702  -1.546  0.00  0.00    +0.151 HD
ENDROOT
BRANCH   1  15
ATOM      7  C   UNL     1       0.433  -0.456  -1.167  0.00  0.00    -0.033 C 
ATOM      8  C   UNL     1       0.965   0.331  -2.130  0.00  0.00    -0.000 A 
ATOM      9  C   UNL     1       1.016   1.788  -2.308  0.00  0.00    +0.013 A 
ATOM     10  C   UNL     1       1.632   2.294  -3.400  0.00  0.00    -0.050 A 
ATOM     11  C   UNL     1       2.221   1.465  -4.364  0.00  0.00    +0.005 A 
ATOM     12  C   UNL     1       2.215   0.118  -4.270  0.00  0.00    +0.026 A 
ATOM     13  C   UNL     1       1.595  -0.522  -3.162  0.00  0.00    +0.043 A 
ATOM     14  N   UNL     1       1.459  -1.788  -2.850  0.00  0.00    -0.373 N 
ATOM     15  C   UNL     1       0.731  -1.880  -1.579  0.00  0.00    +0.169 C 
ATOM     16  C   UNL     1       1.685   3.788  -3.586  0.00  0.00    +0.044 C 
ATOM     17  H   UNL     1       1.788  -2.538  -3.369  0.00  0.00    +0.160 HD
BRANCH   7  19
ATOM     18  C   UNL     1      -0.376   1.523   0.089  0.00  0.00    +0.008 C 
ATOM     19  C   UNL     1      -0.301  -0.005   0.069  0.00  0.00    +0.030 C 
ENDBRANCH   7  19
ENDBRANCH   1  15
BRANCH   3  20
ATOM     20  C   UNL     1      -0.754  -5.620  -4.068  0.00  0.00    +0.094 C 
BRANCH  20  21
ATOM     21  C   UNL     1      -1.448  -5.501  -5.426  0.00  0.00    +0.115 C 
BRANCH  21  22
ATOM     22  N   UNL     1      -1.381  -6.788  -6.122  0.00  0.00    -0.300 N 
ATOM     23  C   UNL     1      -2.448  -7.776  -5.939  0.00  0.00    +0.132 C 
ATOM     24  C   UNL     1      -0.340  -7.064  -6.932  0.00  0.00    +0.246 C 
ATOM     25  O   UNL     1       0.597  -6.291  -7.002  0.00  0.00    -0.270 OA
BRANCH  24  26
ATOM     26  C   UNL     1      -0.335  -8.303  -7.732  0.00  0.00    +0.037 A 
ATOM     27  C   UNL     1      -1.530  -8.801  -8.259  0.00  0.00    +0.015 A 
ATOM     28  C   UNL     1      -1.523  -9.957  -9.006  0.00  0.00    +0.024 A 
ATOM     29  C   UNL     1      -0.326 -10.630  -9.236  0.00  0.00    +0.029 A 
ATOM     30  C   UNL     1       0.866 -10.137  -8.713  0.00  0.00    +0.024 A 
ATOM     31  C   UNL     1       0.866  -8.978  -7.971  0.00  0.00    +0.015 A 
BRANCH  29  32
ATOM     32  N   UNL     1      -0.322 -11.798  -9.991  0.00  0.00    -0.336 N 
ATOM     33  C   UNL     1      -1.575 -12.318 -10.542  0.00  0.00    +0.129 C 
ATOM     34  C   UNL     1       0.936 -12.508 -10.235  0.00  0.00    +0.129 C 
ENDBRANCH  29  32
ENDBRANCH  24  26
ENDBRANCH  21  22
ENDBRANCH  20  21
ENDBRANCH   3  20
TORSDOF 7
