REMARK  Name = ZINC06935213
REMARK  8 active torsions:
REMARK  status: ('A' for Active; 'I' for Inactive)
REMARK    1  A    between atoms: C_1  and  C_2
REMARK    2  A    between atoms: C_2  and  N_3
REMARK    3  A    between atoms: C_7  and  S_8
REMARK    4  A    between atoms: S_8  and  C_9
REMARK    5  A    between atoms: C_9  and  C_11
REMARK    6  A    between atoms: C_9  and  C_12
REMARK    7  A    between atoms: C_18  and  C_24
REMARK    8  A    between atoms: C_19  and  C_23
REMARK                            x       y       z     vdW  Elec       q    Type
REMARK                         _______ _______ _______ _____ _____    ______ ____
ROOT
ATOM      1  C   UNL     1       4.826  -0.696  -0.949  0.00  0.00    +0.117 C 
ATOM      2  C   UNL     1       4.856  -2.203  -1.212  0.00  0.00    +0.027 C 
ENDROOT
BRANCH   1   3
ATOM      3  C   UNL     1       5.978  -0.320  -0.052  0.00  0.00    +0.124 A 
ATOM      4  N   UNL     1       5.781  -0.239   1.289  0.00  0.00    -0.309 N 
ATOM      5  H   UNL     1       4.901  -0.425   1.651  0.00  0.00    +0.170 HD
ATOM      6  C   UNL     1       6.782   0.093   2.125  0.00  0.00    +0.260 A 
ATOM      7  O   UNL     1       6.588   0.160   3.326  0.00  0.00    -0.267 OA
ATOM      8  C   UNL     1       8.079   0.366   1.580  0.00  0.00    +0.075 A 
ATOM      9  C   UNL     1       9.304   0.739   2.262  0.00  0.00    -0.026 A 
ATOM     10  C   UNL     1      10.417   0.949   1.542  0.00  0.00    -0.008 A 
ATOM     11  S   UNL     1       9.886   0.654  -0.135  0.00  0.00    -0.073 S 
ATOM     12  C   UNL     1       8.186   0.258   0.182  0.00  0.00    +0.116 A 
ATOM     13  N   UNL     1       7.149  -0.082  -0.579  0.00  0.00    -0.225 NA
ATOM     14  C   UNL     1      11.787   1.340   2.032  0.00  0.00    +0.052 C 
ATOM     15  C   UNL     1       9.326   0.890   3.761  0.00  0.00    +0.045 C 
ENDBRANCH   1   3
BRANCH   1  16
ATOM     16  S   UNL     1       3.263  -0.255  -0.142  0.00  0.00    -0.075 S 
BRANCH  16  21
ATOM     17  N   UNL     1       0.691  -0.444  -1.215  0.00  0.00    -0.291 N 
ATOM     18  C   UNL     1       0.091  -0.832  -2.380  0.00  0.00    +0.220 A 
ATOM     19  N   UNL     1       1.028  -1.228  -3.205  0.00  0.00    -0.112 NA
ATOM     20  N   UNL     1       2.262  -1.094  -2.557  0.00  0.00    -0.121 NA
ATOM     21  C   UNL     1       2.039  -0.614  -1.357  0.00  0.00    +0.193 A 
ATOM     22  N   UNL     1      -1.273  -0.809  -2.642  0.00  0.00    -0.295 N 
ATOM     23  C   UNL     1      -1.898   0.349  -3.300  0.00  0.00    +0.136 C 
ATOM     24  C   UNL     1      -2.741  -0.159  -4.476  0.00  0.00    +0.179 C 
ATOM     25  O   UNL     1      -3.627  -1.181  -4.013  0.00  0.00    -0.377 OA
ATOM     26  C   UNL     1      -2.966  -2.339  -3.497  0.00  0.00    +0.179 C 
ATOM     27  C   UNL     1      -2.134  -1.945  -2.276  0.00  0.00    +0.136 C 
BRANCH  17  29
ATOM     28  C   UNL     1      -0.055   1.596  -0.091  0.00  0.00    +0.027 C 
ATOM     29  C   UNL     1       0.008   0.069  -0.024  0.00  0.00    +0.124 C 
ENDBRANCH  17  29
ENDBRANCH  16  21
ENDBRANCH   1  16
TORSDOF 4
