REMARK  Name = ZINC65265778
REMARK  5 active torsions:
REMARK  status: ('A' for Active; 'I' for Inactive)
REMARK    1  A    between atoms: C_1  and  O_2
REMARK    2  A    between atoms: O_2  and  C_3
REMARK    3  A    between atoms: C_3  and  C_4
REMARK    4  A    between atoms: C_4  and  N_5
REMARK    5  A    between atoms: C_21  and  C_23
REMARK                            x       y       z     vdW  Elec       q    Type
REMARK                         _______ _______ _______ _____ _____    ______ ____
ROOT
ATOM      1  N   UNL     1       1.514  -1.991  -0.217  0.00  0.00    -0.373 N 
ATOM      2  C   UNL     1       1.694  -3.267  -0.318  0.00  0.00    +0.095 C 
ATOM      3  N   UNL     1       1.185  -4.144   0.610  0.00  0.00    -0.303 N 
ATOM      4  C   UNL     1      -0.083  -4.679   0.406  0.00  0.00    +0.037 A 
ATOM      5  C   UNL     1      -0.992  -4.730   1.453  0.00  0.00    +0.023 A 
ATOM      6  C   UNL     1      -2.245  -5.273   1.258  0.00  0.00    +0.002 A 
ATOM      7  C   UNL     1      -2.586  -5.766   0.012  0.00  0.00    +0.000 A 
ATOM      8  C   UNL     1      -1.686  -5.710  -1.030  0.00  0.00    +0.007 A 
ATOM      9  C   UNL     1      -0.421  -5.158  -0.854  0.00  0.00    -0.012 A 
ATOM     10  C   UNL     1       0.476  -5.111  -2.065  0.00  0.00    +0.119 C 
ATOM     11  N   UNL     1       1.901  -5.205  -1.719  0.00  0.00    -0.299 NA
ATOM     12  C   UNL     1       2.458  -3.865  -1.449  0.00  0.00    +0.091 C 
ATOM     13  C   UNL     1       3.962  -3.962  -1.142  0.00  0.00    +0.050 C 
ATOM     14  C   UNL     1       4.599  -3.960  -2.550  0.00  0.00    +0.110 C 
ATOM     15  N   UNL     1       3.617  -3.373  -3.475  0.00  0.00    -0.295 N 
ATOM     16  C   UNL     1       2.413  -2.990  -2.710  0.00  0.00    +0.137 C 
ATOM     17  C   UNL     1       3.788  -3.211  -4.802  0.00  0.00    +0.248 C 
ATOM     18  O   UNL     1       2.871  -2.801  -5.487  0.00  0.00    -0.270 OA
ATOM     19  H   UNL     1       1.881  -1.395  -0.888  0.00  0.00    +0.161 HD
ATOM     20  H   UNL     1       2.043  -5.824  -0.935  0.00  0.00    +0.123 HD
ATOM     21  H   UNL     1       1.702  -4.387   1.394  0.00  0.00    +0.153 HD
ENDROOT
BRANCH  17  22
ATOM     22  C   UNL     1       5.089  -3.533  -5.425  0.00  0.00    +0.058 A 
ATOM     23  C   UNL     1       6.276  -3.108  -4.827  0.00  0.00    +0.052 A 
ATOM     24  C   UNL     1       7.489  -3.413  -5.413  0.00  0.00    +0.124 A 
ATOM     25  C   UNL     1       7.528  -4.139  -6.594  0.00  0.00    +0.040 A 
ATOM     26  C   UNL     1       6.355  -4.562  -7.191  0.00  0.00    +0.023 A 
ATOM     27  C   UNL     1       5.136  -4.269  -6.611  0.00  0.00    +0.053 A 
ATOM     28 CL   UNL     1       3.665  -4.809  -7.359  0.00  0.00    -0.083 Cl
ATOM     29  F   UNL     1       8.639  -3.002  -4.836  0.00  0.00    -0.205 F 
ENDBRANCH  17  22
BRANCH   1  30
ATOM     30  C   UNL     1       0.756  -1.444   0.912  0.00  0.00    +0.141 C 
BRANCH  30  31
ATOM     31  C   UNL     1       0.692   0.080   0.793  0.00  0.00    +0.180 C 
BRANCH  31  33
ATOM     32  C   UNL     1      -0.177   1.844  -0.577  0.00  0.00    +0.194 C 
ATOM     33  O   UNL     1      -0.056   0.435  -0.372  0.00  0.00    -0.381 OA
ENDBRANCH  31  33
ENDBRANCH  30  31
ENDBRANCH   1  30
TORSDOF 4
