REMARK  Name = ZINC50417254
REMARK  6 active torsions:
REMARK  status: ('A' for Active; 'I' for Inactive)
REMARK    1  A    between atoms: C_1  and  C_2
REMARK    2  A    between atoms: C_2  and  C_4
REMARK    3  A    between atoms: C_2  and  N_10
REMARK    4  A    between atoms: N_8  and  C_9
REMARK    5  A    between atoms: N_10  and  C_11
REMARK    6  A    between atoms: C_16  and  N_17
REMARK                            x       y       z     vdW  Elec       q    Type
REMARK                         _______ _______ _______ _____ _____    ______ ____
ROOT
ATOM      1  C   UNL     1       2.100  -0.604   1.173  0.00  0.00    +0.051 A 
ATOM      2  C   UNL     1       2.804  -0.252   0.036  0.00  0.00    +0.053 A 
ATOM      3  C   UNL     1       4.193  -0.365   0.019  0.00  0.00    +0.080 A 
ATOM      4  C   UNL     1       4.867  -0.840   1.168  0.00  0.00    +0.067 A 
ATOM      5  C   UNL     1       4.146  -1.192   2.310  0.00  0.00    +0.040 A 
ATOM      6  C   UNL     1       2.772  -1.069   2.312  0.00  0.00    +0.047 A 
ATOM      7  C   UNL     1       6.330  -0.946   1.113  0.00  0.00    +0.259 A 
ATOM      8  O   UNL     1       6.971  -1.348   2.068  0.00  0.00    -0.267 OA
ATOM      9  N   UNL     1       6.940  -0.582  -0.038  0.00  0.00    -0.313 N 
ATOM     10  H   UNL     1       7.906  -0.639  -0.109  0.00  0.00    +0.170 HD
ATOM     11  C   UNL     1       6.213  -0.136  -1.096  0.00  0.00    +0.199 A 
ATOM     12  N   UNL     1       4.919  -0.030  -1.078  0.00  0.00    -0.237 NA
ENDROOT
BRANCH   6  13
ATOM     13  N   UNL     1       2.043  -1.415   3.457  0.00  0.00    -0.357 N 
ATOM     14  H   UNL     1       1.077  -1.333   3.461  0.00  0.00    +0.142 HD
ATOM     15  H   UNL     1       2.506  -1.737   4.247  0.00  0.00    +0.142 HD
ENDBRANCH   6  13
BRANCH   1  16
ATOM     16  N   UNL     1       0.711  -0.489   1.189  0.00  0.00    -0.333 N 
ATOM     17  H   UNL     1       0.213  -0.731   1.986  0.00  0.00    +0.147 HD
BRANCH  16  19
ATOM     18  C   UNL     1      -0.019   1.526   0.010  0.00  0.00    +0.036 C 
ATOM     19  C   UNL     1       0.002  -0.004   0.002  0.00  0.00    +0.135 C 
BRANCH  19  20
ATOM     20  C   UNL     1      -1.412  -0.526   0.013  0.00  0.00    +0.153 A 
ATOM     21  N   UNL     1      -2.224  -0.538   1.034  0.00  0.00    -0.133 NA
ATOM     22  N   UNL     1      -3.349  -1.054   0.686  0.00  0.00    -0.138 NA
ATOM     23  C   UNL     1      -3.307  -1.393  -0.573  0.00  0.00    +0.224 A 
ATOM     24  N   UNL     1      -2.077  -1.063  -1.038  0.00  0.00    -0.319 N 
ATOM     25  C   UNL     1      -1.570  -1.252  -2.399  0.00  0.00    +0.151 C 
ENDBRANCH  19  20
ENDBRANCH  16  19
ENDBRANCH   1  16
TORSDOF 4
