REMARK  Name = ZINC40144272
REMARK  7 active torsions:
REMARK  status: ('A' for Active; 'I' for Inactive)
REMARK    1  A    between atoms: C_5  and  C_7
REMARK    2  A    between atoms: C_10  and  C_12
REMARK    3  A    between atoms: C_12  and  C_14
REMARK    4  A    between atoms: C_12  and  N_27
REMARK    5  A    between atoms: C_14  and  C_16
REMARK    6  A    between atoms: C_14  and  C_18
REMARK    7  A    between atoms: C_28  and  N_29
REMARK                            x       y       z     vdW  Elec       q    Type
REMARK                         _______ _______ _______ _____ _____    ______ ____
ROOT
ATOM      1  C   UNL     1       2.351  -5.401  -1.301  0.00  0.00    +0.196 C 
ENDROOT
BRANCH   1   2
ATOM      2  N   UNL     1       2.388  -5.128  -2.740  0.00  0.00    -0.258 N 
ATOM      3  C   UNL     1       1.767  -5.864  -3.716  0.00  0.00    +0.117 A 
ATOM      4  C   UNL     1       2.043  -5.284  -4.921  0.00  0.00    +0.114 A 
ATOM      5  C   UNL     1       2.854  -4.164  -4.689  0.00  0.00    +0.266 A 
ATOM      6  O   UNL     1       3.293  -3.408  -5.539  0.00  0.00    -0.266 OA
ATOM      7  N   UNL     1       3.058  -4.066  -3.360  0.00  0.00    -0.261 N 
ATOM      8  H   UNL     1       3.580  -3.381  -2.912  0.00  0.00    +0.190 HD
BRANCH   3   9
ATOM      9  N   UNL     1       1.002  -6.984  -3.517  0.00  0.00    -0.343 N 
ATOM     10  H   UNL     1       0.861  -7.322  -2.619  0.00  0.00    +0.144 HD
ATOM     11  H   UNL     1       0.602  -7.439  -4.274  0.00  0.00    +0.144 HD
ENDBRANCH   3   9
ENDBRANCH   1   2
BRANCH   1  15
ATOM     12  C   UNL     1       1.249  -2.160  -0.023  0.00  0.00    +0.137 A 
ATOM     13  C   UNL     1       0.561  -2.976   0.819  0.00  0.00    +0.050 A 
ATOM     14  C   UNL     1       0.881  -4.299   0.454  0.00  0.00    +0.047 A 
ATOM     15  C   UNL     1       1.740  -4.226  -0.582  0.00  0.00    +0.132 A 
ATOM     16  O   UNL     1       1.956  -2.932  -0.871  0.00  0.00    -0.457 OA
BRANCH  12  21
ATOM     17  C   UNL     1      -0.017   1.375   0.010  0.00  0.00    +0.001 A 
ATOM     18  C   UNL     1       1.170   2.087   0.002  0.00  0.00    +0.001 A 
ATOM     19  C   UNL     1       2.383   1.422  -0.013  0.00  0.00    +0.021 A 
ATOM     20  C   UNL     1       2.416   0.041  -0.022  0.00  0.00    +0.052 A 
ATOM     21  C   UNL     1       1.222  -0.683  -0.014  0.00  0.00    +0.036 A 
ATOM     22  C   UNL     1       0.002  -0.004   0.002  0.00  0.00    +0.013 A 
ATOM     23 CL   UNL     1       3.939  -0.792  -0.043  0.00  0.00    -0.083 Cl
ENDBRANCH  12  21
ENDBRANCH   1  15
BRANCH   1  24
ATOM     24  C   UNL     1       3.775  -5.627  -0.788  0.00  0.00    +0.179 C 
BRANCH  24  25
ATOM     25  C   UNL     1       4.387  -6.802  -1.507  0.00  0.00    +0.099 A 
ATOM     26  N   UNL     1       3.961  -8.031  -1.533  0.00  0.00    -0.243 NA
ATOM     27  C   UNL     1       4.602  -8.999  -2.219  0.00  0.00    +0.079 A 
ATOM     28  C   UNL     1       4.290 -10.368  -2.358  0.00  0.00    +0.029 A 
ATOM     29  C   UNL     1       5.080 -11.185  -3.107  0.00  0.00    +0.002 A 
ATOM     30  C   UNL     1       6.212 -10.709  -3.755  0.00  0.00    +0.001 A 
ATOM     31  C   UNL     1       6.550  -9.374  -3.643  0.00  0.00    +0.017 A 
ATOM     32  C   UNL     1       5.758  -8.540  -2.890  0.00  0.00    +0.039 A 
ATOM     33  S   UNL     1       5.772  -6.819  -2.464  0.00  0.00    -0.071 S 
ENDBRANCH  24  25
BRANCH  24  34
ATOM     34  C   UNL     1       3.739  -5.901   0.657  0.00  0.00    +0.075 C 
ATOM     35  N   UNL     1       3.710  -6.113   1.773  0.00  0.00    -0.196 NA
ENDBRANCH  24  34
ENDBRANCH   1  24
TORSDOF 7
