REMARK  Name = ZINC59830337
REMARK  9 active torsions:
REMARK  status: ('A' for Active; 'I' for Inactive)
REMARK    1  A    between atoms: C_1  and  C_2
REMARK    2  A    between atoms: C_5  and  N_9
REMARK    3  A    between atoms: C_10  and  C_12
REMARK    4  A    between atoms: C_12  and  S_13
REMARK    5  A    between atoms: S_13  and  C_14
REMARK    6  A    between atoms: N_19  and  N_20
REMARK    7  A    between atoms: C_21  and  C_22
REMARK    8  A    between atoms: C_21  and  C_23
REMARK    9  A    between atoms: C_28  and  O_29
REMARK                            x       y       z     vdW  Elec       q    Type
REMARK                         _______ _______ _______ _____ _____    ______ ____
ROOT
ATOM      1  C   UNL     1      -0.356  -8.691  -2.737  0.00  0.00    +0.211 A 
ATOM      2  N   UNL     1      -0.455  -9.563  -3.747  0.00  0.00    -0.186 NA
ATOM      3  C   UNL     1      -0.509 -10.789  -3.270  0.00  0.00    +0.232 A 
ATOM      4  N   UNL     1      -0.445 -10.715  -1.923  0.00  0.00    -0.245 N 
ATOM      5  N   UNL     1      -0.341  -9.352  -1.604  0.00  0.00    -0.144 NA
ATOM      6  N   UNL     1      -0.614 -11.947  -4.017  0.00  0.00    -0.205 N 
ATOM      7  H   UNL     1      -0.648 -12.809  -3.573  0.00  0.00    +0.177 HD
ATOM      8  H   UNL     1      -0.463 -11.458  -1.300  0.00  0.00    +0.192 HD
ENDROOT
BRANCH   6   9
ATOM      9  N   UNL     1      -0.672 -11.877  -5.415  0.00  0.00    -0.184 NA
ATOM     10  C   UNL     1      -0.770 -12.965  -6.116  0.00  0.00    +0.067 C 
ATOM     11  C   UNL     1      -0.823 -14.304  -5.426  0.00  0.00    +0.068 C 
BRANCH  10  12
ATOM     12  C   UNL     1      -0.831 -12.891  -7.587  0.00  0.00    +0.039 A 
ATOM     13  C   UNL     1      -0.943 -14.059  -8.345  0.00  0.00    +0.013 A 
ATOM     14  C   UNL     1      -0.999 -13.982  -9.721  0.00  0.00    +0.001 A 
ATOM     15  C   UNL     1      -0.945 -12.753 -10.354  0.00  0.00    +0.004 A 
ATOM     16  C   UNL     1      -0.834 -11.590  -9.615  0.00  0.00    +0.046 A 
ATOM     17  C   UNL     1      -0.783 -11.648  -8.232  0.00  0.00    +0.126 A 
BRANCH  17  18
ATOM     18  O   UNL     1      -0.679 -10.505  -7.505  0.00  0.00    -0.506 OA
ATOM     19  H   UNL     1       0.231 -10.229  -7.334  0.00  0.00    +0.292 HD
ENDBRANCH  17  18
ENDBRANCH  10  12
ENDBRANCH   6   9
BRANCH   1  20
ATOM     20  S   UNL     1      -0.255  -6.940  -2.903  0.00  0.00    -0.075 S 
BRANCH  20  21
ATOM     21  C   UNL     1      -0.134  -6.344  -1.194  0.00  0.00    +0.173 C 
BRANCH  21  23
ATOM     22  N   UNL     1       0.059  -4.172  -0.025  0.00  0.00    -0.283 N 
ATOM     23  C   UNL     1      -0.040  -4.840  -1.192  0.00  0.00    +0.228 C 
ATOM     24  O   UNL     1      -0.054  -4.230  -2.240  0.00  0.00    -0.275 OA
ATOM     25  H   UNL     1       0.150  -4.662   0.807  0.00  0.00    +0.155 HD
BRANCH  22  30
ATOM     26  C   UNL     1      -0.065   1.502   0.016  0.00  0.00    +0.044 C 
ATOM     27  C   UNL     1      -0.031  -0.005   0.006  0.00  0.00    -0.048 A 
ATOM     28  C   UNL     1      -0.622  -0.701  -1.033  0.00  0.00    +0.005 A 
ATOM     29  C   UNL     1      -0.593  -2.082  -1.046  0.00  0.00    +0.026 A 
ATOM     30  C   UNL     1       0.029  -2.772  -0.015  0.00  0.00    +0.069 A 
ATOM     31  C   UNL     1       0.622  -2.070   1.029  0.00  0.00    +0.145 A 
ATOM     32  C   UNL     1       0.594  -0.688   1.033  0.00  0.00    +0.043 A 
ATOM     33  F   UNL     1       1.228  -2.738   2.035  0.00  0.00    -0.204 F 
ENDBRANCH  22  30
ENDBRANCH  21  23
ENDBRANCH  20  21
ENDBRANCH   1  20
TORSDOF 7
