REMARK  Name = ZINC39684702
REMARK  10 active torsions:
REMARK  status: ('A' for Active; 'I' for Inactive)
REMARK    1  A    between atoms: C_1  and  C_2
REMARK    2  A    between atoms: C_3  and  C_8
REMARK    3  A    between atoms: C_4  and  C_7
REMARK    4  A    between atoms: C_12  and  C_21
REMARK    5  A    between atoms: N_23  and  C_24
REMARK    6  A    between atoms: C_24  and  C_26
REMARK    7  A    between atoms: C_24  and  C_27
REMARK    8  A    between atoms: C_27  and  C_28
REMARK    9  A    between atoms: C_27  and  C_29
REMARK   10  A    between atoms: C_27  and  C_30
REMARK                            x       y       z     vdW  Elec       q    Type
REMARK                         _______ _______ _______ _____ _____    ______ ____
ROOT
ATOM      1  C   UNL     1      -0.097  -0.570  -2.422  0.00  0.00    +0.252 C 
ATOM      2  O   UNL     1       0.987  -0.418  -2.954  0.00  0.00    -0.270 OA
ATOM      3  N   UNL     1      -1.227  -0.337  -3.118  0.00  0.00    -0.296 N 
ATOM      4  C   UNL     1      -2.626  -0.459  -2.645  0.00  0.00    +0.121 C 
ATOM      5  C   UNL     1      -3.361   0.741  -3.283  0.00  0.00    +0.100 C 
ATOM      6  C   UNL     1      -2.521   1.102  -4.520  0.00  0.00    -0.004 C 
ATOM      7  C   UNL     1      -1.352   0.107  -4.527  0.00  0.00    +0.115 C 
ATOM      8  C   UNL     1      -1.991   2.528  -4.400  0.00  0.00    -0.010 C 
ATOM      9  C   UNL     1      -1.207   2.884  -5.667  0.00  0.00    -0.082 C 
ATOM     10  N   UNL     1      -2.085   2.763  -6.838  0.00  0.00    +0.379 N 
ATOM     11  C   UNL     1      -2.516   1.369  -6.999  0.00  0.00    -0.082 C 
ATOM     12  C   UNL     1      -3.355   0.949  -5.788  0.00  0.00    -0.010 C 
ATOM     13  H   UNL     1      -2.894   3.352  -6.711  0.00  0.00    -0.086 HD
ATOM     14  H   UNL     1      -1.584   3.057  -7.663  0.00  0.00    -0.086 HD
ENDROOT
BRANCH   1  17
ATOM     15  C   UNL     1      -0.161   1.358   0.177  0.00  0.00    +0.070 C 
ATOM     16  C   UNL     1      -0.203  -0.148   0.166  0.00  0.00    +0.093 A 
ATOM     17  C   UNL     1      -0.173  -1.009  -1.018  0.00  0.00    +0.101 A 
ATOM     18  C   UNL     1      -0.230  -2.298  -0.570  0.00  0.00    +0.147 A 
ATOM     19  O   UNL     1      -0.290  -2.270   0.764  0.00  0.00    -0.359 OA
ATOM     20  N   UNL     1      -0.268  -0.927   1.205  0.00  0.00    -0.083 NA
ATOM     21  C   UNL     1      -0.225  -3.535  -1.430  0.00  0.00    +0.090 C 
ENDBRANCH   1  17
BRANCH   5  22
ATOM     22  C   UNL     1      -3.407   1.900  -2.321  0.00  0.00    +0.218 C 
ATOM     23  O   UNL     1      -2.531   2.037  -1.494  0.00  0.00    -0.275 OA
ATOM     24  N   UNL     1      -4.423   2.784  -2.379  0.00  0.00    -0.312 N 
ATOM     25  H   UNL     1      -5.124   2.674  -3.041  0.00  0.00    +0.149 HD
BRANCH  24  26
ATOM     26  C   UNL     1      -4.468   3.910  -1.444  0.00  0.00    +0.075 C 
ATOM     27  C   UNL     1      -5.128   3.462  -0.138  0.00  0.00    +0.028 C 
BRANCH  26  28
ATOM     28  C   UNL     1      -5.280   5.052  -2.059  0.00  0.00    -0.020 C 
ATOM     29  C   UNL     1      -6.703   4.569  -2.346  0.00  0.00    +0.012 C 
ATOM     30  C   UNL     1      -5.327   6.228  -1.082  0.00  0.00    +0.012 C 
ATOM     31  C   UNL     1      -4.621   5.500  -3.365  0.00  0.00    +0.012 C 
ENDBRANCH  26  28
ENDBRANCH  24  26
ENDBRANCH   5  22
TORSDOF 4
