REMARK  Name = ZINC18243366
REMARK  11 active torsions:
REMARK  status: ('A' for Active; 'I' for Inactive)
REMARK    1  A    between atoms: C_1  and  C_2
REMARK    2  A    between atoms: C_2  and  C_3
REMARK    3  A    between atoms: C_2  and  C_4
REMARK    4  A    between atoms: C_4  and  C_6
REMARK    5  A    between atoms: C_4  and  N_25
REMARK    6  A    between atoms: C_6  and  O_8
REMARK    7  A    between atoms: O_8  and  C_9
REMARK    8  A    between atoms: C_9  and  C_10
REMARK    9  A    between atoms: N_12  and  C_13
REMARK   10  A    between atoms: C_14  and  C_22
REMARK   11  A    between atoms: C_26  and  C_28
REMARK                            x       y       z     vdW  Elec       q    Type
REMARK                         _______ _______ _______ _____ _____    ______ ____
ROOT
ATOM      1  C   UNL     1      -2.979  -6.397   1.288  0.00  0.00    +0.328 C 
ENDROOT
BRANCH   1   2
ATOM      2  C   UNL     1      -4.233  -7.232   1.328  0.00  0.00    +0.255 C 
ATOM      3  O   UNL     1      -5.277  -6.779   0.910  0.00  0.00    -0.272 OA
ATOM      4  N   UNL     1      -4.194  -8.483   1.828  0.00  0.00    -0.277 N 
ATOM      5  H   UNL     1      -3.359  -8.846   2.163  0.00  0.00    +0.155 HD
BRANCH   4   6
ATOM      6  C   UNL     1      -5.348  -9.252   1.865  0.00  0.00    +0.084 A 
ATOM      7  C   UNL     1      -5.505 -10.549   2.333  0.00  0.00    +0.068 A 
ATOM      8  C   UNL     1      -6.834 -11.131   2.262  0.00  0.00    -0.023 A 
ATOM      9  C   UNL     1      -7.785 -10.333   1.730  0.00  0.00    -0.004 A 
ATOM     10  S   UNL     1      -6.941  -8.828   1.333  0.00  0.00    -0.077 S 
ATOM     11  C   UNL     1      -9.231 -10.663   1.525  0.00  0.00    +0.043 C 
ATOM     12  C   UNL     1      -9.405 -12.182   1.666  0.00  0.00    +0.005 C 
ATOM     13  C   UNL     1      -8.682 -12.646   2.934  0.00  0.00    +0.005 C 
ATOM     14  C   UNL     1      -7.169 -12.540   2.738  0.00  0.00    +0.037 C 
BRANCH   7  15
ATOM     15  C   UNL     1      -4.373 -11.302   2.881  0.00  0.00    +0.244 C 
ATOM     16  O   UNL     1      -4.121 -11.242   4.071  0.00  0.00    -0.270 OA
ATOM     17  N   UNL     1      -3.611 -12.060   2.069  0.00  0.00    -0.325 N 
ATOM     18  H   UNL     1      -3.811 -12.108   1.121  0.00  0.00    +0.145 HD
ATOM     19  H   UNL     1      -2.862 -12.559   2.432  0.00  0.00    +0.145 HD
ENDBRANCH   7  15
ENDBRANCH   4   6
ENDBRANCH   1   2
BRANCH   1  20
ATOM     20  O   UNL     1      -3.280  -5.100   0.709  0.00  0.00    -0.454 OA
BRANCH  20  21
ATOM     21  C   UNL     1      -2.264  -4.230   0.601  0.00  0.00    +0.328 C 
ATOM     22  O   UNL     1      -1.159  -4.543   0.977  0.00  0.00    -0.249 OA
BRANCH  21  23
ATOM     23  C   UNL     1      -2.500  -2.864   0.010  0.00  0.00    +0.185 C 
BRANCH  23  24
ATOM     24  N   UNL     1      -1.244  -2.111   0.002  0.00  0.00    -0.298 N 
ATOM     25  C   UNL     1      -1.265  -0.764   0.010  0.00  0.00    +0.246 C 
ATOM     26  O   UNL     1      -2.328  -0.173   0.022  0.00  0.00    -0.270 OA
ATOM     27  H   UNL     1      -0.396  -2.583  -0.008  0.00  0.00    +0.150 HD
BRANCH  25  28
ATOM     28  C   UNL     1       0.002  -0.004   0.002  0.00  0.00    +0.055 A 
ATOM     29  C   UNL     1       1.224  -0.679  -0.013  0.00  0.00    +0.014 A 
ATOM     30  C   UNL     1       2.403   0.036  -0.021  0.00  0.00    +0.001 A 
ATOM     31  C   UNL     1       2.378   1.420  -0.013  0.00  0.00    +0.001 A 
ATOM     32  C   UNL     1       1.172   2.096   0.002  0.00  0.00    +0.021 A 
ATOM     33  C   UNL     1      -0.017   1.393   0.010  0.00  0.00    +0.053 A 
ATOM     34 CL   UNL     1      -1.530   2.243   0.021  0.00  0.00    -0.083 Cl
ENDBRANCH  25  28
ENDBRANCH  23  24
BRANCH  23  36
ATOM     35  C   UNL     1      -3.255  -1.624  -2.024  0.00  0.00    +0.009 C 
ATOM     36  C   UNL     1      -3.015  -3.011  -1.424  0.00  0.00    +0.014 C 
ATOM     37  C   UNL     1      -1.978  -3.758  -2.264  0.00  0.00    +0.009 C 
ENDBRANCH  23  36
ENDBRANCH  21  23
ENDBRANCH  20  21
ENDBRANCH   1  20
TORSDOF 9
