REMARK  Name = ZINC39361542
REMARK  7 active torsions:
REMARK  status: ('A' for Active; 'I' for Inactive)
REMARK    1  A    between atoms: C_4  and  N_7
REMARK    2  A    between atoms: C_8  and  C_25
REMARK    3  A    between atoms: C_12  and  S_13
REMARK    4  A    between atoms: S_13  and  C_14
REMARK    5  A    between atoms: C_14  and  C_15
REMARK    6  A    between atoms: N_17  and  C_18
REMARK    7  A    between atoms: C_25  and  C_26
REMARK                            x       y       z     vdW  Elec       q    Type
REMARK                         _______ _______ _______ _____ _____    ______ ____
ROOT
ATOM      1  N   UNL     1       3.624  -0.648   0.004  0.00  0.00    -0.258 N 
ATOM      2  C   UNL     1       3.822  -2.104   0.099  0.00  0.00    +0.187 C 
ATOM      3  N   UNL     1       5.285  -2.268   0.033  0.00  0.00    -0.246 N 
ATOM      4  N   UNL     1       5.816  -0.979  -0.090  0.00  0.00    -0.162 NA
ATOM      5  C   UNL     1       4.887  -0.084  -0.111  0.00  0.00    +0.180 C 
ATOM      6  H   UNL     1       5.780  -3.102   0.067  0.00  0.00    +0.170 HD
ENDROOT
BRANCH   1  10
ATOM      7  C   UNL     1      -0.013   1.379   0.051  0.00  0.00    +0.000 A 
ATOM      8  C   UNL     1       0.315   0.527   1.089  0.00  0.00    +0.002 A 
ATOM      9  C   UNL     1       1.520  -0.147   1.077  0.00  0.00    +0.023 A 
ATOM     10  C   UNL     1       2.404   0.032   0.019  0.00  0.00    +0.037 A 
ATOM     11  C   UNL     1       2.070   0.888  -1.022  0.00  0.00    +0.023 A 
ATOM     12  C   UNL     1       0.864   1.560  -1.003  0.00  0.00    +0.002 A 
ENDBRANCH   1  10
BRANCH   5  13
ATOM     13  S   UNL     1       5.185   1.646  -0.262  0.00  0.00    -0.079 S 
BRANCH  13  14
ATOM     14  C   UNL     1       6.991   1.772  -0.373  0.00  0.00    +0.173 C 
BRANCH  14  15
ATOM     15  C   UNL     1       7.386   3.220  -0.507  0.00  0.00    +0.227 C 
ATOM     16  O   UNL     1       6.533   4.082  -0.526  0.00  0.00    -0.275 OA
ATOM     17  N   UNL     1       8.687   3.557  -0.606  0.00  0.00    -0.285 N 
ATOM     18  H   UNL     1       9.364   2.865  -0.671  0.00  0.00    +0.155 HD
BRANCH  17  19
ATOM     19  C   UNL     1       9.062   4.906  -0.616  0.00  0.00    +0.033 A 
ATOM     20  C   UNL     1      10.139   5.323  -1.388  0.00  0.00    +0.025 A 
ATOM     21  C   UNL     1      10.507   6.654  -1.395  0.00  0.00    +0.022 A 
ATOM     22  C   UNL     1       9.803   7.572  -0.636  0.00  0.00    +0.041 A 
ATOM     23  C   UNL     1       8.730   7.159   0.134  0.00  0.00    +0.022 A 
ATOM     24  C   UNL     1       8.354   5.830   0.141  0.00  0.00    +0.025 A 
ATOM     25 CL   UNL     1      10.269   9.244  -0.647  0.00  0.00    -0.084 Cl
ENDBRANCH  17  19
ENDBRANCH  14  15
ENDBRANCH  13  14
ENDBRANCH   5  13
BRANCH   2  26
ATOM     26  C   UNL     1       3.145  -2.816  -1.073  0.00  0.00    +0.097 C 
BRANCH  26  27
ATOM     27  C   UNL     1       3.256  -4.308  -0.888  0.00  0.00    +0.029 A 
ATOM     28  N   UNL     1       4.381  -4.970  -1.300  0.00  0.00    -0.311 N 
ATOM     29  C   UNL     1       4.490  -6.301  -1.138  0.00  0.00    +0.327 A 
ATOM     30  O   UNL     1       5.498  -6.869  -1.512  0.00  0.00    -0.247 OA
ATOM     31  N   UNL     1       3.500  -7.013  -0.569  0.00  0.00    -0.275 N 
ATOM     32  C   UNL     1       2.376  -6.397  -0.149  0.00  0.00    +0.254 A 
ATOM     33  O   UNL     1       1.479  -7.040   0.366  0.00  0.00    -0.268 OA
ATOM     34  C   UNL     1       2.250  -4.996  -0.309  0.00  0.00    +0.091 A 
ATOM     35  H   UNL     1       3.595  -7.972  -0.460  0.00  0.00    +0.173 HD
ATOM     36  H   UNL     1       5.106  -4.475  -1.713  0.00  0.00    +0.170 HD
ENDBRANCH  26  27
ENDBRANCH   2  26
TORSDOF 7
