REMARK  Name = ZINC39325851
REMARK  12 active torsions:
REMARK  status: ('A' for Active; 'I' for Inactive)
REMARK    1  A    between atoms: C_1  and  C_2
REMARK    2  A    between atoms: C_2  and  C_3
REMARK    3  A    between atoms: C_2  and  O_4
REMARK    4  A    between atoms: O_4  and  C_5
REMARK    5  A    between atoms: C_10  and  C_11
REMARK    6  A    between atoms: C_14  and  C_25
REMARK    7  A    between atoms: C_20  and  N_24
REMARK    8  A    between atoms: C_21  and  C_22
REMARK    9  A    between atoms: C_28  and  O_33
REMARK   10  A    between atoms: C_29  and  O_31
REMARK   11  A    between atoms: O_31  and  C_32
REMARK   12  A    between atoms: O_33  and  C_34
REMARK                            x       y       z     vdW  Elec       q    Type
REMARK                         _______ _______ _______ _____ _____    ______ ____
ROOT
ATOM      1  C   UNL     1      -4.067  -1.167   0.507  0.00  0.00    +0.105 C 
ATOM      2  C   UNL     1      -4.536  -2.340   1.329  0.00  0.00    +0.054 A 
ATOM      3  C   UNL     1      -3.897  -3.014   2.315  0.00  0.00    +0.074 A 
ATOM      4  N   UNL     1      -4.741  -3.997   2.748  0.00  0.00    -0.273 N 
ATOM      5  H   UNL     1      -4.556  -4.641   3.449  0.00  0.00    +0.189 HD
ATOM      6  N   UNL     1      -5.924  -3.909   1.997  0.00  0.00    -0.135 NA
ATOM      7  C   UNL     1      -5.806  -2.925   1.153  0.00  0.00    +0.245 A 
ATOM      8  O   UNL     1      -6.690  -2.462   0.228  0.00  0.00    -0.421 OA
ATOM      9  C   UNL     1      -6.433  -1.263  -0.332  0.00  0.00    +0.201 C 
ATOM     10  C   UNL     1      -5.254  -0.612  -0.240  0.00  0.00    +0.098 C 
ENDROOT
BRANCH   1  16
ATOM     11  C   UNL     1      -3.204  -2.786  -1.202  0.00  0.00    +0.125 A 
ATOM     12  C   UNL     1      -2.236  -3.198  -2.108  0.00  0.00    +0.046 A 
ATOM     13  C   UNL     1      -1.087  -2.451  -2.277  0.00  0.00    +0.004 A 
ATOM     14  C   UNL     1      -0.900  -1.292  -1.545  0.00  0.00    +0.001 A 
ATOM     15  C   UNL     1      -1.863  -0.880  -0.642  0.00  0.00    +0.008 A 
ATOM     16  C   UNL     1      -3.016  -1.621  -0.473  0.00  0.00    +0.007 A 
BRANCH  11  17
ATOM     17  O   UNL     1      -4.335  -3.520  -1.034  0.00  0.00    -0.489 OA
BRANCH  17  19
ATOM     18  C   UNL     1      -5.372  -5.702  -0.997  0.00  0.00    +0.051 C 
ATOM     19  C   UNL     1      -4.410  -4.765  -1.731  0.00  0.00    +0.167 C 
ATOM     20  C   UNL     1      -4.920  -4.524  -3.153  0.00  0.00    +0.051 C 
ENDBRANCH  17  19
ENDBRANCH  11  17
ENDBRANCH   1  16
BRANCH   3  21
ATOM     21  C   UNL     1      -2.537  -2.737   2.828  0.00  0.00    +0.004 A 
ATOM     22  C   UNL     1      -1.468  -2.608   1.941  0.00  0.00    +0.014 A 
ATOM     23  C   UNL     1      -0.200  -2.351   2.420  0.00  0.00    +0.050 A 
ATOM     24  C   UNL     1       0.015  -2.218   3.784  0.00  0.00    +0.162 A 
ATOM     25  C   UNL     1      -1.048  -2.345   4.675  0.00  0.00    +0.162 A 
ATOM     26  C   UNL     1      -2.322  -2.598   4.199  0.00  0.00    +0.059 A 
BRANCH  25  27
ATOM     27  O   UNL     1      -0.834  -2.215   6.011  0.00  0.00    -0.491 OA
ATOM     28  C   UNL     1      -1.969  -2.358   6.867  0.00  0.00    +0.277 C 
ENDBRANCH  25  27
BRANCH  24  29
ATOM     29  O   UNL     1       1.266  -1.964   4.252  0.00  0.00    -0.491 OA
ATOM     30  C   UNL     1       2.289  -1.738   3.280  0.00  0.00    +0.277 C 
ENDBRANCH  24  29
ENDBRANCH   3  21
BRANCH   9  31
ATOM     31  N   UNL     1      -7.441  -0.661  -1.043  0.00  0.00    -0.328 N 
ATOM     32  H   UNL     1      -8.302  -1.099  -1.129  0.00  0.00    +0.145 HD
ATOM     33  H   UNL     1      -7.292   0.202  -1.459  0.00  0.00    +0.145 HD
ENDBRANCH   9  31
BRANCH  10  34
ATOM     34  C   UNL     1      -5.123   0.662  -0.881  0.00  0.00    +0.101 C 
ATOM     35  N   UNL     1      -5.019   1.673  -1.389  0.00  0.00    -0.191 NA
ENDBRANCH  10  34
TORSDOF 8
