REMARK  Name = ZINC41537066
REMARK  13 active torsions:
REMARK  status: ('A' for Active; 'I' for Inactive)
REMARK    1  A    between atoms: C_1  and  C_2
REMARK    2  A    between atoms: C_5  and  C_7
REMARK    3  A    between atoms: C_7  and  C_9
REMARK    4  A    between atoms: N_13  and  C_28
REMARK    5  A    between atoms: C_14  and  C_16
REMARK    6  A    between atoms: C_18  and  O_26
REMARK    7  A    between atoms: C_19  and  O_24
REMARK    8  A    between atoms: C_20  and  O_22
REMARK    9  A    between atoms: O_22  and  C_23
REMARK   10  A    between atoms: O_24  and  C_25
REMARK   11  A    between atoms: O_26  and  C_27
REMARK   12  A    between atoms: C_28  and  C_29
REMARK   13  A    between atoms: C_29  and  N_30
REMARK                            x       y       z     vdW  Elec       q    Type
REMARK                         _______ _______ _______ _____ _____    ______ ____
ROOT
ATOM      1  C   UNL     1       3.068  -2.984  -0.194  0.00  0.00    +0.079 C 
ATOM      2  C   UNL     1       4.011  -3.937  -0.376  0.00  0.00    +0.249 C 
ATOM      3  C   UNL     1       5.348  -3.313  -0.327  0.00  0.00    +0.288 C 
ATOM      4  O   UNL     1       6.400  -3.908  -0.456  0.00  0.00    -0.266 OA
ATOM      5  N   UNL     1       5.231  -1.990  -0.117  0.00  0.00    -0.285 N 
ATOM      6  C   UNL     1       3.800  -1.674  -0.024  0.00  0.00    +0.145 C 
ATOM      7  O   UNL     1       3.767  -5.255  -0.571  0.00  0.00    -0.282 OA
ENDROOT
BRANCH   6   8
ATOM      8  C   UNL     1       3.491  -1.079   1.325  0.00  0.00    -0.015 A 
ATOM      9  C   UNL     1       3.121  -1.901   2.373  0.00  0.00    +0.055 A 
ATOM     10  C   UNL     1       2.835  -1.358   3.616  0.00  0.00    +0.165 A 
ATOM     11  C   UNL     1       2.922   0.016   3.808  0.00  0.00    +0.204 A 
ATOM     12  C   UNL     1       3.295   0.839   2.753  0.00  0.00    +0.165 A 
ATOM     13  C   UNL     1       3.584   0.287   1.514  0.00  0.00    +0.055 A 
BRANCH  12  14
ATOM     14  O   UNL     1       3.382   2.184   2.936  0.00  0.00    -0.491 OA
ATOM     15  C   UNL     1       3.666   2.979   1.783  0.00  0.00    +0.277 C 
ENDBRANCH  12  14
BRANCH  11  16
ATOM     16  O   UNL     1       2.642   0.553   5.027  0.00  0.00    -0.488 OA
ATOM     17  C   UNL     1       3.731   0.685   5.944  0.00  0.00    +0.277 C 
ENDBRANCH  11  16
BRANCH  10  18
ATOM     18  O   UNL     1       2.470  -2.168   4.646  0.00  0.00    -0.491 OA
ATOM     19  C   UNL     1       2.401  -3.570   4.376  0.00  0.00    +0.277 C 
ENDBRANCH  10  18
ENDBRANCH   6   8
BRANCH   1  20
ATOM     20  C   UNL     1       1.615  -3.184  -0.173  0.00  0.00    +0.230 C 
ATOM     21  O   UNL     1       1.154  -4.311  -0.217  0.00  0.00    -0.283 OA
BRANCH  20  26
ATOM     22  C   UNL     1      -0.004   1.553  -0.067  0.00  0.00    +0.086 C 
ATOM     23  C   UNL     1      -0.001   0.046  -0.052  0.00  0.00    +0.103 A 
ATOM     24  C   UNL     1      -1.095  -0.741   0.061  0.00  0.00    +0.045 A 
ATOM     25  C   UNL     1      -0.654  -2.071   0.033  0.00  0.00    +0.053 A 
ATOM     26  C   UNL     1       0.717  -2.028  -0.100  0.00  0.00    +0.175 A 
ATOM     27  O   UNL     1       1.085  -0.731  -0.154  0.00  0.00    -0.457 OA
ENDBRANCH  20  26
ENDBRANCH   1  20
BRANCH   5  28
ATOM     28  C   UNL     1       6.334  -1.032  -0.009  0.00  0.00    +0.090 C 
BRANCH  28  29
ATOM     29  C   UNL     1       6.667  -0.478  -1.395  0.00  0.00    -0.060 C 
BRANCH  29  30
ATOM     30  N   UNL     1       7.774   0.482  -1.286  0.00  0.00    +0.381 N 
ATOM     31  C   UNL     1       9.030  -0.223  -0.926  0.00  0.00    -0.079 C 
ATOM     32  C   UNL     1      10.134   0.757  -1.396  0.00  0.00    -0.020 C 
ATOM     33  C   UNL     1       9.550   1.334  -2.705  0.00  0.00    -0.020 C 
ATOM     34  C   UNL     1       8.029   1.117  -2.597  0.00  0.00    -0.079 C 
ATOM     35  H   UNL     1       7.558   1.185  -0.595  0.00  0.00    -0.082 HD
ENDBRANCH  29  30
ENDBRANCH  28  29
ENDBRANCH   5  28
TORSDOF 9
