REMARK  Name = ZINC44550560
REMARK  5 active torsions:
REMARK  status: ('A' for Active; 'I' for Inactive)
REMARK    1  A    between atoms: C_1  and  C_2
REMARK    2  A    between atoms: C_5  and  S_8
REMARK    3  A    between atoms: S_8  and  N_11
REMARK    4  A    between atoms: N_14  and  N_15
REMARK    5  A    between atoms: C_16  and  C_17
REMARK                            x       y       z     vdW  Elec       q    Type
REMARK                         _______ _______ _______ _____ _____    ______ ____
ROOT
ATOM      1  N   UNL     1       1.651  -4.999  -0.034  0.00  0.00    -0.236 N 
ATOM      2  C   UNL     1       2.455  -4.719   1.036  0.00  0.00    +0.177 C 
ATOM      3  S   UNL     1       1.838  -3.908   2.347  0.00  0.00    -0.013 SA
ATOM      4  N   UNL     1       3.764  -5.106   1.027  0.00  0.00    -0.237 N 
ATOM      5  H   UNL     1       4.125  -5.580   0.261  0.00  0.00    +0.174 HD
ATOM      6  H   UNL     1       2.011  -5.473  -0.800  0.00  0.00    +0.190 HD
ENDROOT
BRANCH   4   7
ATOM      7  N   UNL     1       4.588  -4.818   2.124  0.00  0.00    -0.291 N 
ATOM      8  C   UNL     1       5.837  -5.188   2.115  0.00  0.00    +0.134 C 
ATOM      9  N   UNL     1       6.354  -5.867   1.016  0.00  0.00    -0.342 N 
ATOM     10  H   UNL     1       5.784  -6.066   0.256  0.00  0.00    +0.144 HD
ATOM     11  H   UNL     1       7.284  -6.142   1.009  0.00  0.00    +0.144 HD
ATOM     12  H   UNL     1       4.227  -4.345   2.890  0.00  0.00    +0.186 HD
BRANCH   8  13
ATOM     13  C   UNL     1       6.705  -4.884   3.272  0.00  0.00    +0.122 A 
ATOM     14  C   UNL     1       8.047  -5.274   3.263  0.00  0.00    +0.142 A 
ATOM     15  N   UNL     1       8.818  -5.000   4.298  0.00  0.00    -0.258 NA
ATOM     16  C   UNL     1       8.323  -4.359   5.343  0.00  0.00    +0.150 A 
ATOM     17  C   UNL     1       6.993  -3.970   5.358  0.00  0.00    +0.148 A 
ATOM     18  N   UNL     1       6.213  -4.234   4.324  0.00  0.00    -0.229 NA
ATOM     19 CL   UNL     1       6.351  -3.129   6.734  0.00  0.00    -0.060 Cl
ENDBRANCH   8  13
ENDBRANCH   4   7
BRANCH   1  20
ATOM     20  S   UNL     1       0.063  -4.530  -0.023  0.00  0.00    +0.079 S 
ATOM     21  O   UNL     1      -0.476  -4.950   1.223  0.00  0.00    -0.148 OA
ATOM     22  O   UNL     1      -0.490  -4.937  -1.267  0.00  0.00    -0.148 OA
BRANCH  20  27
ATOM     23  C   UNL     1      -0.018   1.503   0.010  0.00  0.00    +0.044 C 
ATOM     24  C   UNL     1       0.002  -0.004   0.002  0.00  0.00    -0.050 A 
ATOM     25  C   UNL     1       0.006  -0.689  -1.199  0.00  0.00    +0.005 A 
ATOM     26  C   UNL     1       0.025  -2.071  -1.206  0.00  0.00    +0.029 A 
ATOM     27  C   UNL     1       0.040  -2.768  -0.013  0.00  0.00    +0.110 A 
ATOM     28  C   UNL     1       0.037  -2.084   1.188  0.00  0.00    +0.029 A 
ATOM     29  C   UNL     1       0.023  -0.702   1.195  0.00  0.00    +0.005 A 
ENDBRANCH  20  27
ENDBRANCH   1  20
TORSDOF 4
