REMARK  Name = ZINC20990067
REMARK  8 active torsions:
REMARK  status: ('A' for Active; 'I' for Inactive)
REMARK    1  A    between atoms: C_1  and  C_2
REMARK    2  A    between atoms: C_7  and  S_8
REMARK    3  A    between atoms: S_8  and  N_11
REMARK    4  A    between atoms: N_11  and  C_12
REMARK    5  A    between atoms: C_15  and  N_18
REMARK    6  A    between atoms: C_19  and  C_21
REMARK    7  A    between atoms: C_29  and  C_31
REMARK    8  A    between atoms: C_29  and  C_32
REMARK                            x       y       z     vdW  Elec       q    Type
REMARK                         _______ _______ _______ _____ _____    ______ ____
ROOT
ATOM      1  C   UNL     1       0.272   1.386  -0.065  0.00  0.00    +0.046 C 
ATOM      2  C   UNL     1       0.182  -0.117  -0.116  0.00  0.00    -0.023 A 
ATOM      3  C   UNL     1       0.347  -0.854   1.036  0.00  0.00    +0.016 A 
ATOM      4  C   UNL     1       0.264  -2.243   0.989  0.00  0.00    +0.011 A 
ATOM      5  C   UNL     1       0.012  -2.889  -0.236  0.00  0.00    +0.049 A 
ATOM      6  C   UNL     1      -0.153  -2.127  -1.387  0.00  0.00    +0.055 A 
ATOM      7  C   UNL     1      -0.072  -0.753  -1.322  0.00  0.00    +0.113 A 
ATOM      8  N   UNL     1      -0.018  -4.251   0.003  0.00  0.00    -0.357 N 
ATOM      9  H   UNL     1      -0.205  -4.950  -0.826  0.00  0.00    +0.166 HD
ATOM     10  C   UNL     1       0.203  -4.510   1.298  0.00  0.00    +0.028 A 
ATOM     11  C   UNL     1       0.382  -3.315   1.979  0.00  0.00    +0.046 A 
ATOM     12  C   UNL     1       0.628  -3.259   3.373  0.00  0.00    +0.166 C 
ATOM     13  O   UNL     1       0.818  -2.201   3.936  0.00  0.00    -0.292 OA
ATOM     14  C   UNL     1       0.647  -4.567   4.134  0.00  0.00    +0.086 C 
ATOM     15  C   UNL     1       1.167  -5.689   3.235  0.00  0.00    -0.023 C 
ATOM     16  C   UNL     1       0.272  -5.846   2.000  0.00  0.00    +0.060 C 
ATOM     17  C   UNL     1       2.591  -5.357   2.787  0.00  0.00    +0.011 C 
ATOM     18  C   UNL     1       1.177  -7.002   4.020  0.00  0.00    +0.011 C 
ENDROOT
BRANCH   7  19
ATOM     19  S   UNL     1      -0.288   0.204  -2.786  0.00  0.00    +0.073 S 
ATOM     20  O   UNL     1       0.804   1.112  -2.842  0.00  0.00    -0.150 OA
ATOM     21  O   UNL     1      -0.571  -0.713  -3.833  0.00  0.00    -0.150 OA
BRANCH  19  22
ATOM     22  N   UNL     1      -1.653   1.119  -2.576  0.00  0.00    -0.216 N 
ATOM     23  H   UNL     1      -1.587   2.216  -2.591  0.00  0.00    +0.174 HD
BRANCH  22  24
ATOM     24  C   UNL     1      -2.889   0.494  -2.378  0.00  0.00    +0.048 A 
ATOM     25  C   UNL     1      -3.271  -0.564  -3.193  0.00  0.00    +0.026 A 
ATOM     26  C   UNL     1      -4.488  -1.184  -2.994  0.00  0.00    +0.025 A 
ATOM     27  C   UNL     1      -5.336  -0.742  -1.988  0.00  0.00    +0.033 A 
ATOM     28  C   UNL     1      -4.958   0.321  -1.177  0.00  0.00    +0.025 A 
ATOM     29  C   UNL     1      -3.738   0.937  -1.372  0.00  0.00    +0.026 A 
BRANCH  27  30
ATOM     30  N   UNL     1      -6.575  -1.367  -1.790  0.00  0.00    -0.286 N 
ATOM     31  C   UNL     1      -7.639  -0.643  -1.391  0.00  0.00    +0.214 C 
ATOM     32  O   UNL     1      -7.551   0.562  -1.293  0.00  0.00    -0.276 OA
ATOM     33  C   UNL     1      -8.940  -1.332  -1.068  0.00  0.00    +0.109 C 
ATOM     34  H   UNL     1      -6.678  -2.449  -1.960  0.00  0.00    +0.155 HD
ENDBRANCH  27  30
ENDBRANCH  22  24
ENDBRANCH  19  22
ENDBRANCH   7  19
TORSDOF 4
