REMARK  Name = ZINC51429509
REMARK  10 active torsions:
REMARK  status: ('A' for Active; 'I' for Inactive)
REMARK    1  A    between atoms: C_1  and  C_2
REMARK    2  A    between atoms: N_16  and  C_17
REMARK    3  A    between atoms: C_17  and  C_18
REMARK    4  A    between atoms: C_18  and  C_20
REMARK    5  A    between atoms: C_18  and  O_31
REMARK    6  A    between atoms: C_20  and  O_21
REMARK    7  A    between atoms: O_21  and  C_22
REMARK    8  A    between atoms: C_22  and  C_23
REMARK    9  A    between atoms: C_28  and  O_29
REMARK   10  A    between atoms: O_29  and  C_30
REMARK                            x       y       z     vdW  Elec       q    Type
REMARK                         _______ _______ _______ _____ _____    ______ ____
ROOT
ATOM      1  C   UNL     1       0.048   1.993   0.426  0.00  0.00    -0.007 C 
ATOM      2  C   UNL     1       0.207   0.505   0.107  0.00  0.00    -0.024 C 
ATOM      3  C   UNL     1       1.073   0.340  -1.119  0.00  0.00    +0.006 A 
ATOM      4  C   UNL     1       2.042  -0.600  -1.214  0.00  0.00    -0.022 A 
ATOM      5  C   UNL     1       2.655  -0.454  -2.514  0.00  0.00    +0.003 A 
ATOM      6  C   UNL     1       3.692  -1.134  -3.160  0.00  0.00    +0.010 A 
ATOM      7  C   UNL     1       4.018  -0.715  -4.426  0.00  0.00    +0.001 A 
ATOM      8  C   UNL     1       3.357   0.332  -5.047  0.00  0.00    +0.002 A 
ATOM      9  C   UNL     1       2.326   1.022  -4.433  0.00  0.00    +0.026 A 
ATOM     10  C   UNL     1       1.974   0.619  -3.147  0.00  0.00    +0.047 A 
ATOM     11  N   UNL     1       1.026   1.072  -2.274  0.00  0.00    -0.359 N 
ATOM     12  H   UNL     1       0.412   1.802  -2.446  0.00  0.00    +0.166 HD
ATOM     13  C   UNL     1       2.352  -1.581  -0.110  0.00  0.00    +0.019 C 
ATOM     14  C   UNL     1       1.177  -1.563   0.877  0.00  0.00    -0.073 C 
ATOM     15  N   UNL     1       0.855  -0.176   1.239  0.00  0.00    +0.387 N 
ATOM     16  H   UNL     1       1.705   0.310   1.480  0.00  0.00    -0.081 HD
ENDROOT
BRANCH  15  17
ATOM     17  C   UNL     1      -0.052  -0.168   2.395  0.00  0.00    -0.044 C 
BRANCH  17  18
ATOM     18  C   UNL     1       0.693  -0.677   3.630  0.00  0.00    +0.124 C 
BRANCH  18  19
ATOM     19  O   UNL     1       0.958  -2.074   3.485  0.00  0.00    -0.391 OA
ATOM     20  H   UNL     1       0.165  -2.617   3.386  0.00  0.00    +0.210 HD
ENDBRANCH  18  19
BRANCH  18  21
ATOM     21  C   UNL     1      -0.168  -0.449   4.875  0.00  0.00    +0.189 C 
BRANCH  21  22
ATOM     22  O   UNL     1       0.572  -0.817   6.040  0.00  0.00    -0.373 OA
BRANCH  22  23
ATOM     23  C   UNL     1      -0.145  -0.641   7.264  0.00  0.00    +0.198 C 
BRANCH  23  24
ATOM     24  C   UNL     1       0.727  -1.057   8.421  0.00  0.00    +0.020 A 
ATOM     25  C   UNL     1       2.009  -1.516   8.190  0.00  0.00    +0.009 A 
ATOM     26  C   UNL     1       2.809  -1.898   9.251  0.00  0.00    +0.001 A 
ATOM     27  C   UNL     1       2.328  -1.822  10.545  0.00  0.00    +0.004 A 
ATOM     28  C   UNL     1       1.046  -1.365  10.781  0.00  0.00    +0.046 A 
ATOM     29  C   UNL     1       0.243  -0.975   9.718  0.00  0.00    +0.125 A 
BRANCH  29  30
ATOM     30  O   UNL     1      -1.016  -0.519   9.948  0.00  0.00    -0.495 OA
ATOM     31  C   UNL     1      -1.447  -0.462  11.309  0.00  0.00    +0.277 C 
ENDBRANCH  29  30
ENDBRANCH  23  24
ENDBRANCH  22  23
ENDBRANCH  21  22
ENDBRANCH  18  21
ENDBRANCH  17  18
ENDBRANCH  15  17
TORSDOF 8
