REMARK  Name = ZINC10060078
REMARK  8 active torsions:
REMARK  status: ('A' for Active; 'I' for Inactive)
REMARK    1  A    between atoms: C_1  and  C_2
REMARK    2  A    between atoms: C_3  and  C_19
REMARK    3  A    between atoms: C_4  and  C_12
REMARK    4  A    between atoms: N_21  and  C_22
REMARK    5  A    between atoms: C_25  and  O_30
REMARK    6  A    between atoms: C_27  and  O_28
REMARK    7  A    between atoms: O_28  and  C_29
REMARK    8  A    between atoms: O_30  and  C_31
REMARK                            x       y       z     vdW  Elec       q    Type
REMARK                         _______ _______ _______ _____ _____    ______ ____
ROOT
ATOM      1  C   UNL     1      -5.097   2.358   2.552  0.00  0.00    +0.061 C 
ATOM      2  C   UNL     1      -4.400   2.685   1.256  0.00  0.00    +0.018 C 
ATOM      3  C   UNL     1      -3.315   3.472   1.285  0.00  0.00    +0.060 C 
ATOM      4  C   UNL     1      -2.540   3.848   0.050  0.00  0.00    +0.177 C 
ATOM      5  N   UNL     1      -3.307   3.480  -1.137  0.00  0.00    -0.221 N 
ATOM      6  C   UNL     1      -4.406   2.686  -1.103  0.00  0.00    +0.218 A 
ATOM      7  N   UNL     1      -4.842   2.551  -2.326  0.00  0.00    -0.201 NA
ATOM      8  C   UNL     1      -4.057   3.241  -3.160  0.00  0.00    +0.247 A 
ATOM      9  N   UNL     1      -3.106   3.825  -2.472  0.00  0.00    -0.156 NA
ATOM     10  N   UNL     1      -4.898   2.166   0.086  0.00  0.00    -0.287 N 
ATOM     11  H   UNL     1      -5.567   1.464   0.090  0.00  0.00    +0.155 HD
ENDROOT
BRANCH   4  12
ATOM     12  C   UNL     1      -1.221   3.118   0.043  0.00  0.00    -0.018 A 
ATOM     13  C   UNL     1      -1.197   1.736   0.040  0.00  0.00    +0.007 A 
ATOM     14  C   UNL     1       0.013   1.066   0.039  0.00  0.00    +0.015 A 
ATOM     15  C   UNL     1       1.198   1.779   0.031  0.00  0.00    +0.018 A 
ATOM     16  C   UNL     1       1.173   3.162   0.029  0.00  0.00    +0.015 A 
ATOM     17  C   UNL     1      -0.037   3.831   0.035  0.00  0.00    +0.007 A 
ATOM     18 BR   UNL     1       2.852   0.864   0.023  0.00  0.00    -0.050 Br
ENDBRANCH   4  12
BRANCH   3  19
ATOM     19  C   UNL     1      -2.878   3.972   2.534  0.00  0.00    +0.248 C 
ATOM     20  O   UNL     1      -3.484   3.686   3.551  0.00  0.00    -0.270 OA
ATOM     21  N   UNL     1      -1.790   4.766   2.599  0.00  0.00    -0.279 N 
ATOM     22  H   UNL     1      -1.270   4.942   1.799  0.00  0.00    +0.155 HD
BRANCH  21  23
ATOM     23  C   UNL     1      -1.411   5.337   3.822  0.00  0.00    +0.076 A 
ATOM     24  C   UNL     1      -1.599   4.636   5.004  0.00  0.00    +0.030 A 
ATOM     25  C   UNL     1      -1.226   5.199   6.210  0.00  0.00    +0.047 A 
ATOM     26  C   UNL     1      -0.662   6.466   6.241  0.00  0.00    +0.124 A 
ATOM     27  C   UNL     1      -0.472   7.171   5.062  0.00  0.00    +0.093 A 
ATOM     28  C   UNL     1      -0.840   6.608   3.852  0.00  0.00    +0.145 A 
BRANCH  28  29
ATOM     29  O   UNL     1      -0.650   7.295   2.694  0.00  0.00    -0.493 OA
ATOM     30  C   UNL     1      -0.059   8.592   2.800  0.00  0.00    +0.277 C 
ENDBRANCH  28  29
BRANCH  26  31
ATOM     31  O   UNL     1      -0.296   7.017   7.428  0.00  0.00    -0.495 OA
ATOM     32  C   UNL     1      -0.520   6.235   8.603  0.00  0.00    +0.277 C 
ENDBRANCH  26  31
ENDBRANCH  21  23
ENDBRANCH   3  19
TORSDOF 5
