REMARK  Name = ZINC64337901
REMARK  16 active torsions:
REMARK  status: ('A' for Active; 'I' for Inactive)
REMARK    1  A    between atoms: C_1  and  C_2
REMARK    2  A    between atoms: C_4  and  C_37
REMARK    3  A    between atoms: C_8  and  C_12
REMARK    4  A    between atoms: C_12  and  S_13
REMARK    5  A    between atoms: S_13  and  C_14
REMARK    6  A    between atoms: C_14  and  C_15
REMARK    7  A    between atoms: N_17  and  C_18
REMARK    8  A    between atoms: N_17  and  C_22
REMARK    9  A    between atoms: C_18  and  C_19
REMARK   10  A    between atoms: C_19  and  O_20
REMARK   11  A    between atoms: O_20  and  C_21
REMARK   12  A    between atoms: C_23  and  N_35
REMARK   13  A    between atoms: N_24  and  C_31
REMARK   14  A    between atoms: C_31  and  C_32
REMARK   15  A    between atoms: C_32  and  C_33
REMARK   16  A    between atoms: C_32  and  C_34
REMARK                            x       y       z     vdW  Elec       q    Type
REMARK                         _______ _______ _______ _____ _____    ______ ____
ROOT
ATOM      1  C   UNL     1      -5.426  -5.956   6.200  0.00  0.00    +0.230 C 
ATOM      2  O   UNL     1      -6.251  -5.981   5.311  0.00  0.00    -0.274 OA
ATOM      3  N   UNL     1      -5.683  -6.566   7.377  0.00  0.00    -0.261 N 
ENDROOT
BRANCH   3   4
ATOM      4  C   UNL     1      -6.947  -7.148   7.608  0.00  0.00    +0.140 A 
ATOM      5  C   UNL     1      -8.086  -6.368   7.626  0.00  0.00    +0.127 A 
ATOM      6  N   UNL     1      -9.304  -6.965   7.854  0.00  0.00    -0.280 N 
ATOM      7  C   UNL     1      -9.385  -8.292   8.057  0.00  0.00    +0.331 A 
ATOM      8  O   UNL     1     -10.472  -8.800   8.257  0.00  0.00    -0.246 OA
ATOM      9  N   UNL     1      -8.286  -9.067   8.043  0.00  0.00    -0.273 N 
ATOM     10  H   UNL     1      -8.371 -10.022   8.192  0.00  0.00    +0.173 HD
ATOM     11  C   UNL     1      -7.069  -8.534   7.819  0.00  0.00    +0.277 A 
ATOM     12  O   UNL     1      -6.080  -9.247   7.804  0.00  0.00    -0.266 OA
BRANCH   5  13
ATOM     13  N   UNL     1      -8.003  -5.012   7.419  0.00  0.00    -0.343 N 
ATOM     14  H   UNL     1      -7.136  -4.581   7.369  0.00  0.00    +0.144 HD
ATOM     15  H   UNL     1      -8.812  -4.486   7.322  0.00  0.00    +0.144 HD
ENDBRANCH   5  13
BRANCH   6  16
ATOM     16  C   UNL     1     -10.521  -6.149   7.875  0.00  0.00    +0.131 C 
BRANCH  16  17
ATOM     17  C   UNL     1     -11.109  -6.072   6.465  0.00  0.00    +0.003 C 
ATOM     18  C   UNL     1     -11.563  -7.465   6.025  0.00  0.00    +0.009 C 
ATOM     19  C   UNL     1     -12.307  -5.121   6.463  0.00  0.00    +0.009 C 
ENDBRANCH  16  17
ENDBRANCH   6  16
ENDBRANCH   3   4
BRANCH   1  20
ATOM     20  C   UNL     1      -4.114  -5.245   5.991  0.00  0.00    +0.165 C 
BRANCH  20  21
ATOM     21  S   UNL     1      -4.071  -4.534   4.323  0.00  0.00    -0.144 S 
BRANCH  21  22
ATOM     22  C   UNL     1      -2.450  -3.724   4.233  0.00  0.00    +0.143 C 
BRANCH  22  29
ATOM     23  C   UNL     1      -0.542   0.894  -1.123  0.00  0.00    +0.024 C 
ATOM     24  C   UNL     1      -0.361  -0.608  -0.889  0.00  0.00    +0.076 C 
ATOM     25  C   UNL     1      -1.698  -1.300  -0.757  0.00  0.00    -0.045 C 
ATOM     26  C   UNL     1      -1.972  -1.913   0.404  0.00  0.00    +0.071 C 
ATOM     27  C   UNL     1      -0.945  -1.862   1.466  0.00  0.00    +0.111 C 
ATOM     28  N   UNL     1      -1.154  -2.441   2.624  0.00  0.00    -0.227 NA
ATOM     29  C   UNL     1      -2.283  -3.084   2.879  0.00  0.00    +0.133 C 
ATOM     30  N   UNL     1      -3.263  -3.194   2.015  0.00  0.00    -0.161 NA
ATOM     31  C   UNL     1      -3.210  -2.663   0.789  0.00  0.00    +0.271 C 
ATOM     32  O   UNL     1      -4.141  -2.784   0.010  0.00  0.00    -0.268 OA
ATOM     33  S   UNL     1       0.392  -0.931   0.757  0.00  0.00    -0.098 S 
ATOM     34  C   UNL     1      -2.689  -1.303  -1.893  0.00  0.00    +0.041 C 
ENDBRANCH  22  29
ENDBRANCH  21  22
ENDBRANCH  20  21
ENDBRANCH   1  20
BRANCH   3  35
ATOM     35  C   UNL     1      -4.649  -6.623   8.413  0.00  0.00    +0.142 C 
BRANCH  35  36
ATOM     36  C   UNL     1      -4.759  -5.390   9.312  0.00  0.00    +0.178 C 
BRANCH  36  37
ATOM     37  O   UNL     1      -6.002  -5.423  10.016  0.00  0.00    -0.381 OA
ATOM     38  C   UNL     1      -6.206  -4.310  10.889  0.00  0.00    +0.194 C 
ENDBRANCH  36  37
ENDBRANCH  35  36
ENDBRANCH   3  35
TORSDOF 11
