REMARK  Name = ZINC04111695
REMARK  7 active torsions:
REMARK  status: ('A' for Active; 'I' for Inactive)
REMARK    1  A    between atoms: C_1  and  C_2
REMARK    2  A    between atoms: C_2  and  C_3
REMARK    3  A    between atoms: C_3  and  C_4
REMARK    4  A    between atoms: C_3  and  C_5
REMARK    5  A    between atoms: C_3  and  C_6
REMARK    6  A    between atoms: C_12  and  C_15
REMARK    7  A    between atoms: C_15  and  O_25
REMARK                            x       y       z     vdW  Elec       q    Type
REMARK                         _______ _______ _______ _____ _____    ______ ____
ROOT
ATOM      1  C   UNL     1       1.421   1.619  -0.003  0.00  0.00    +0.178 C 
ATOM      2  C   UNL     1       2.147   1.213   1.259  0.00  0.00    +0.015 A 
ATOM      3  C   UNL     1       2.473  -0.010   1.800  0.00  0.00    +0.009 A 
ATOM      4  C   UNL     1       3.158  -0.074   3.001  0.00  0.00    +0.000 A 
ATOM      5  C   UNL     1       3.513   1.093   3.653  0.00  0.00    +0.002 A 
ATOM      6  C   UNL     1       3.188   2.320   3.114  0.00  0.00    +0.024 A 
ATOM      7  C   UNL     1       2.498   2.392   1.905  0.00  0.00    +0.040 A 
ATOM      8  N   UNL     1       2.062   3.494   1.168  0.00  0.00    -0.282 N 
ATOM      9  C   UNL     1       1.425   3.132   0.041  0.00  0.00    +0.254 C 
ATOM     10  O   UNL     1       0.943   3.878  -0.785  0.00  0.00    -0.272 OA
ATOM     11  H   UNL     1       2.202   4.415   1.438  0.00  0.00    +0.155 HD
ENDROOT
BRANCH   1  17
ATOM     12  C   UNL     1      -2.233   1.175  -1.135  0.00  0.00    -0.004 C 
ATOM     13  C   UNL     1      -2.890   1.837   0.077  0.00  0.00    +0.011 C 
ATOM     14  C   UNL     1      -2.217   1.335   1.359  0.00  0.00    +0.075 C 
ATOM     15  C   UNL     1      -0.728   1.577   1.247  0.00  0.00    +0.140 C 
ATOM     16  O   UNL     1      -0.127   2.149   2.124  0.00  0.00    -0.297 OA
ATOM     17  C   UNL     1      -0.013   1.086   0.008  0.00  0.00    +0.101 C 
ATOM     18  C   UNL     1      -0.761   1.597  -1.227  0.00  0.00    +0.018 C 
BRANCH  12  19
ATOM     19  C   UNL     1      -2.963   1.606  -2.409  0.00  0.00    -0.032 C 
ATOM     20  C   UNL     1      -2.883   3.127  -2.552  0.00  0.00    +0.011 C 
ATOM     21  C   UNL     1      -2.307   0.945  -3.622  0.00  0.00    +0.011 C 
BRANCH  19  23
ATOM     22  C   UNL     1      -5.160   1.609  -3.599  0.00  0.00    +0.004 C 
ATOM     23  C   UNL     1      -4.430   1.178  -2.325  0.00  0.00    +0.003 C 
ENDBRANCH  19  23
ENDBRANCH  12  19
ENDBRANCH   1  17
BRANCH   1  24
ATOM     24  O   UNL     1       2.120   1.150  -1.158  0.00  0.00    -0.374 OA
ATOM     25  H   UNL     1       3.035   1.458  -1.216  0.00  0.00    +0.211 HD
ENDBRANCH   1  24
TORSDOF 4
