REMARK  Name = ZINC00495681
REMARK  4 active torsions:
REMARK  status: ('A' for Active; 'I' for Inactive)
REMARK    1  A    between atoms: C_4  and  S_7
REMARK    2  A    between atoms: S_7  and  N_10
REMARK    3  A    between atoms: N_10  and  N_11
REMARK    4  A    between atoms: C_13  and  C_22
REMARK                            x       y       z     vdW  Elec       q    Type
REMARK                         _______ _______ _______ _____ _____    ______ ____
ROOT
ATOM      1  N   UNL     1       1.357  -1.804   0.503  0.00  0.00    -0.127 NA
ATOM      2  C   UNL     1       1.290  -0.622  -0.042  0.00  0.00    +0.249 A 
ATOM      3  C   UNL     1      -0.013  -0.026  -0.417  0.00  0.00    +0.100 A 
ATOM      4  C   UNL     1      -0.092   1.345  -0.447  0.00  0.00    +0.030 A 
ATOM      5  C   UNL     1       1.117   2.103  -0.104  0.00  0.00    +0.018 A 
ATOM      6  C   UNL     1       1.051   3.476   0.151  0.00  0.00    +0.011 A 
ATOM      7  C   UNL     1       2.200   4.166   0.474  0.00  0.00    +0.001 A 
ATOM      8  C   UNL     1       3.416   3.506   0.545  0.00  0.00    +0.004 A 
ATOM      9  C   UNL     1       3.497   2.150   0.293  0.00  0.00    +0.047 A 
ATOM     10  C   UNL     1       2.354   1.438  -0.033  0.00  0.00    +0.138 A 
ATOM     11  O   UNL     1       2.418   0.106  -0.286  0.00  0.00    -0.436 OA
ENDROOT
BRANCH   3  12
ATOM     12  C   UNL     1      -1.176  -0.869  -0.745  0.00  0.00    +0.247 C 
ATOM     13  O   UNL     1      -2.295  -0.511  -0.429  0.00  0.00    -0.270 OA
ATOM     14  N   UNL     1      -1.000  -2.037  -1.394  0.00  0.00    -0.325 N 
ATOM     15  H   UNL     1      -0.104  -2.357  -1.583  0.00  0.00    +0.145 HD
ATOM     16  H   UNL     1      -1.770  -2.557  -1.673  0.00  0.00    +0.145 HD
ENDBRANCH   3  12
BRANCH   1  17
ATOM     17  N   UNL     1       0.186  -2.450   0.921  0.00  0.00    -0.133 N 
ATOM     18  H   UNL     1      -0.664  -1.984   0.887  0.00  0.00    +0.197 HD
BRANCH  17  19
ATOM     19  S   UNL     1       0.253  -4.010   1.472  0.00  0.00    +0.087 S 
ATOM     20  O   UNL     1      -1.047  -4.329   1.948  0.00  0.00    -0.149 OA
ATOM     21  O   UNL     1       0.901  -4.771   0.461  0.00  0.00    -0.149 OA
BRANCH  19  25
ATOM     22  C   UNL     1       2.995  -4.042   5.073  0.00  0.00    +0.000 A 
ATOM     23  C   UNL     1       1.640  -3.824   5.238  0.00  0.00    +0.002 A 
ATOM     24  C   UNL     1       0.803  -3.815   4.138  0.00  0.00    +0.029 A 
ATOM     25  C   UNL     1       1.321  -4.022   2.874  0.00  0.00    +0.110 A 
ATOM     26  C   UNL     1       2.675  -4.245   2.709  0.00  0.00    +0.029 A 
ATOM     27  C   UNL     1       3.513  -4.249   3.809  0.00  0.00    +0.002 A 
ENDBRANCH  19  25
ENDBRANCH  17  19
ENDBRANCH   1  17
TORSDOF 4
