REMARK  Name = ZINC58949045
REMARK  7 active torsions:
REMARK  status: ('A' for Active; 'I' for Inactive)
REMARK    1  A    between atoms: C_1  and  C_2
REMARK    2  A    between atoms: C_3  and  C_21
REMARK    3  A    between atoms: C_4  and  C_13
REMARK    4  A    between atoms: C_6  and  C_10
REMARK    5  A    between atoms: C_7  and  N_9
REMARK    6  A    between atoms: C_16  and  N_18
REMARK    7  A    between atoms: C_21  and  C_23
REMARK                            x       y       z     vdW  Elec       q    Type
REMARK                         _______ _______ _______ _____ _____    ______ ____
ROOT
ATOM      1  C   UNL     1      -0.022   1.503  -0.010  0.00  0.00    +0.086 C 
ATOM      2  C   UNL     1       0.000  -0.004  -0.008  0.00  0.00    +0.112 C 
ATOM      3  C   UNL     1      -1.164  -0.674   0.028  0.00  0.00    +0.045 C 
ATOM      4  C   UNL     1      -1.197  -2.178   0.033  0.00  0.00    +0.102 C 
ATOM      5  C   UNL     1       0.161  -2.719   0.388  0.00  0.00    +0.083 C 
ATOM      6  C   UNL     1       1.262  -1.927   0.332  0.00  0.00    +0.193 C 
ATOM      7  O   UNL     1       1.182  -0.638  -0.047  0.00  0.00    -0.446 OA
ENDROOT
BRANCH   5   8
ATOM      8  C   UNL     1       0.292  -4.062   0.784  0.00  0.00    +0.243 C 
ATOM      9  O   UNL     1      -0.003  -4.394   1.919  0.00  0.00    -0.271 OA
ATOM     10  N   UNL     1       0.743  -4.982  -0.091  0.00  0.00    -0.325 N 
ATOM     11  H   UNL     1       0.977  -4.718  -0.995  0.00  0.00    +0.145 HD
ATOM     12  H   UNL     1       0.833  -5.909   0.182  0.00  0.00    +0.145 HD
ENDBRANCH   5   8
BRANCH   4  13
ATOM     13  C   UNL     1      -1.589  -2.674  -1.335  0.00  0.00    +0.004 A 
ATOM     14  C   UNL     1      -2.655  -3.428  -1.697  0.00  0.00    +0.014 A 
ATOM     15  C   UNL     1      -2.816  -3.768  -3.027  0.00  0.00    +0.041 A 
ATOM     16  C   UNL     1      -1.903  -3.337  -3.931  0.00  0.00    +0.164 A 
ATOM     17  S   UNL     1      -0.772  -2.414  -2.902  0.00  0.00    -0.069 S 
BRANCH  16  18
ATOM     18  N   UNL     1      -1.857  -3.567  -5.392  0.00  0.00    +0.063 N 
ATOM     19  O   UNL     1      -2.720  -4.222  -5.928  0.00  0.00    -0.126 OA
ATOM     20  O   UNL     1      -0.955  -3.101  -6.050  0.00  0.00    -0.126 OA
ENDBRANCH  16  18
ENDBRANCH   4  13
BRANCH   6  21
ATOM     21  N   UNL     1       2.482  -2.454   0.663  0.00  0.00    -0.329 N 
ATOM     22  H   UNL     1       2.565  -3.400   0.860  0.00  0.00    +0.145 HD
ATOM     23  H   UNL     1       3.264  -1.880   0.700  0.00  0.00    +0.145 HD
ENDBRANCH   6  21
BRANCH   3  24
ATOM     24  C   UNL     1      -2.374   0.044   0.063  0.00  0.00    +0.160 C 
ATOM     25  O   UNL     1      -2.360   1.258   0.061  0.00  0.00    -0.293 OA
ATOM     26  C   UNL     1      -3.688  -0.694   0.104  0.00  0.00    +0.091 C 
ENDBRANCH   3  24
TORSDOF 5
