REMARK  Name = ZINC37769945
REMARK  8 active torsions:
REMARK  status: ('A' for Active; 'I' for Inactive)
REMARK    1  A    between atoms: C_1  and  O_2
REMARK    2  A    between atoms: O_2  and  C_3
REMARK    3  A    between atoms: C_3  and  C_5
REMARK    4  A    between atoms: C_10  and  N_11
REMARK    5  A    between atoms: C_12  and  C_14
REMARK    6  A    between atoms: C_14  and  C_16
REMARK    7  A    between atoms: C_14  and  N_20
REMARK    8  A    between atoms: C_16  and  C_17
REMARK                            x       y       z     vdW  Elec       q    Type
REMARK                         _______ _______ _______ _____ _____    ______ ____
ROOT
ATOM      1  N   UNL     1       1.712  -2.026  -3.363  0.00  0.00    -0.285 N 
ATOM      2  C   UNL     1       2.393  -2.661  -4.336  0.00  0.00    +0.203 C 
ATOM      3  O   UNL     1       2.495  -3.869  -4.316  0.00  0.00    -0.277 OA
ATOM      4  H   UNL     1       1.581  -1.066  -3.409  0.00  0.00    +0.155 HD
ENDROOT
BRANCH   1  10
ATOM      5  C   UNL     1      -0.194  -2.821  -2.094  0.00  0.00    +0.082 A 
ATOM      6  C   UNL     1      -0.701  -3.554  -1.017  0.00  0.00    +0.032 A 
ATOM      7  C   UNL     1       0.162  -4.194  -0.153  0.00  0.00    +0.020 A 
ATOM      8  C   UNL     1       1.533  -4.116  -0.347  0.00  0.00    +0.032 A 
ATOM      9  C   UNL     1       2.048  -3.395  -1.406  0.00  0.00    +0.041 A 
ATOM     10  C   UNL     1       1.194  -2.748  -2.290  0.00  0.00    +0.062 A 
ATOM     11 BR   UNL     1       3.920  -3.295  -1.658  0.00  0.00    -0.048 Br
ATOM     12 BR   UNL     1      -0.527  -5.185   1.303  0.00  0.00    -0.050 Br
BRANCH   5  13
ATOM     13  C   UNL     1      -1.111  -2.135  -3.021  0.00  0.00    +0.341 C 
ATOM     14  O   UNL     1      -0.674  -1.592  -4.016  0.00  0.00    -0.245 OA
BRANCH  13  16
ATOM     15  C   UNL     1      -3.264  -1.426  -3.705  0.00  0.00    +0.280 C 
ATOM     16  O   UNL     1      -2.433  -2.109  -2.764  0.00  0.00    -0.464 OA
ENDBRANCH  13  16
ENDBRANCH   5  13
ENDBRANCH   1  10
BRANCH   2  17
ATOM     17  C   UNL     1       3.030  -1.869  -5.450  0.00  0.00    +0.022 C 
BRANCH  17  18
ATOM     18  N   UNL     1       3.282  -2.752  -6.596  0.00  0.00    +0.386 N 
ATOM     19  H   UNL     1       3.708  -2.223  -7.342  0.00  0.00    -0.089 HD
ATOM     20  H   UNL     1       3.902  -3.498  -6.317  0.00  0.00    -0.089 HD
ATOM     21  H   UNL     1       2.409  -3.143  -6.918  0.00  0.00    -0.089 HD
ENDBRANCH  17  18
BRANCH  17  22
ATOM     22  C   UNL     1       4.353  -1.276  -4.962  0.00  0.00    +0.088 C 
BRANCH  22  23
ATOM     23  C   UNL     1       4.929  -0.385  -6.033  0.00  0.00    +0.209 C 
ATOM     24  O   UNL     1       4.339  -0.239  -7.082  0.00  0.00    -0.276 OA
ATOM     25  N   UNL     1       6.100   0.249  -5.824  0.00  0.00    -0.329 N 
ATOM     26  H   UNL     1       6.572   0.132  -4.984  0.00  0.00    +0.145 HD
ATOM     27  H   UNL     1       6.470   0.822  -6.513  0.00  0.00    +0.145 HD
ENDBRANCH  22  23
ENDBRANCH  17  22
ENDBRANCH   2  17
TORSDOF 7
