REMARK  Name = ZINC04480622
REMARK  9 active torsions:
REMARK  status: ('A' for Active; 'I' for Inactive)
REMARK    1  A    between atoms: C_1  and  C_2
REMARK    2  A    between atoms: C_2  and  N_3
REMARK    3  A    between atoms: N_3  and  C_4
REMARK    4  A    between atoms: C_4  and  C_5
REMARK    5  A    between atoms: C_10  and  S_12
REMARK    6  A    between atoms: S_12  and  C_13
REMARK    7  A    between atoms: N_16  and  O_21
REMARK    8  A    between atoms: N_19  and  C_20
REMARK    9  A    between atoms: O_21  and  C_22
REMARK                            x       y       z     vdW  Elec       q    Type
REMARK                         _______ _______ _______ _____ _____    ______ ____
ROOT
ATOM      1  N   UNL     1       3.532  -0.554  -0.006  0.00  0.00    -0.300 N 
ATOM      2  C   UNL     1       2.315   0.096   0.001  0.00  0.00    +0.223 A 
ATOM      3  N   UNL     1       1.186  -0.607   0.001  0.00  0.00    -0.179 NA
ATOM      4  C   UNL     1       0.014   0.019   0.009  0.00  0.00    +0.255 A 
ATOM      5  N   UNL     1      -0.031   1.346   0.015  0.00  0.00    -0.186 NA
ATOM      6  C   UNL     1       1.097   2.050   0.015  0.00  0.00    +0.201 A 
ATOM      7  N   UNL     1       2.270   1.424   0.009  0.00  0.00    -0.188 NA
ATOM      8  N   UNL     1      -1.162  -0.714   0.009  0.00  0.00    -0.096 N 
ATOM      9  C   UNL     1      -1.120  -2.057  -0.100  0.00  0.00    +0.332 C 
ATOM     10  O   UNL     1      -0.050  -2.632  -0.105  0.00  0.00    -0.250 OA
ATOM     11  N   UNL     1      -2.265  -2.761  -0.203  0.00  0.00    -0.300 N 
ATOM     12  C   UNL     1      -2.219  -4.220  -0.321  0.00  0.00    +0.130 C 
ATOM     13  H   UNL     1      -3.233  -2.240  -0.198  0.00  0.00    +0.150 HD
ENDROOT
BRANCH   1  15
ATOM     14  C   UNL     1       5.213   0.482   1.437  0.00  0.00    +0.024 C 
ATOM     15  C   UNL     1       4.776   0.220  -0.006  0.00  0.00    +0.104 C 
ENDBRANCH   1  15
BRANCH   1  16
ATOM     16  C   UNL     1       3.581  -2.018  -0.013  0.00  0.00    +0.104 C 
ATOM     17  C   UNL     1       3.593  -2.521  -1.458  0.00  0.00    +0.024 C 
ENDBRANCH   1  16
BRANCH   8  18
ATOM     18  O   UNL     1      -2.409  -0.052   0.123  0.00  0.00    -0.272 OA
ATOM     19  C   UNL     1      -2.985   0.323  -1.130  0.00  0.00    +0.227 C 
ENDBRANCH   8  18
BRANCH   6  20
ATOM     20  S   UNL     1       1.038   3.811   0.024  0.00  0.00    -0.017 S 
BRANCH  20  21
ATOM     21  C   UNL     1      -0.699   4.057   0.192  0.00  0.00    +0.130 C 
ATOM     22  N   UNL     1      -1.507   3.036   0.165  0.00  0.00    -0.382 N 
ATOM     23  N   UNL     1      -1.200   5.328   0.352  0.00  0.00    -0.339 N 
ATOM     24  H   UNL     1      -2.591   3.190   0.270  0.00  0.00    +0.158 HD
ATOM     25  H   UNL     1      -2.284   5.482   0.457  0.00  0.00    +0.144 HD
ATOM     26  H   UNL     1      -0.517   6.190   0.374  0.00  0.00    +0.144 HD
ATOM     27  H   UNL     1      -1.106   2.020   0.038  0.00  0.00    +0.158 HD
ENDBRANCH  20  21
ENDBRANCH   6  20
TORSDOF 5
