REMARK  Name = ZINC25376580
REMARK  11 active torsions:
REMARK  status: ('A' for Active; 'I' for Inactive)
REMARK    1  A    between atoms: C_1  and  C_2
REMARK    2  A    between atoms: C_2  and  C_4
REMARK    3  A    between atoms: C_2  and  O_28
REMARK    4  A    between atoms: N_6  and  N_7
REMARK    5  A    between atoms: C_8  and  C_10
REMARK    6  A    between atoms: C_10  and  C_11
REMARK    7  A    between atoms: C_11  and  C_12
REMARK    8  A    between atoms: C_12  and  N_13
REMARK    9  A    between atoms: N_13  and  S_14
REMARK   10  A    between atoms: S_14  and  C_17
REMARK   11  A    between atoms: O_28  and  C_29
REMARK                            x       y       z     vdW  Elec       q    Type
REMARK                         _______ _______ _______ _____ _____    ______ ____
ROOT
ATOM      1  C   UNL     1       3.886   1.422  -0.451  0.00  0.00    +0.098 C 
ENDROOT
BRANCH   1   3
ATOM      2  N   UNL     1       6.226   1.017   0.244  0.00  0.00    -0.234 N 
ATOM      3  C   UNL     1       4.964   0.554   0.146  0.00  0.00    +0.229 C 
ATOM      4  O   UNL     1       4.696  -0.562   0.537  0.00  0.00    -0.274 OA
ATOM      5  H   UNL     1       6.469   2.030  -0.111  0.00  0.00    +0.173 HD
BRANCH   2   8
ATOM      6  C   UNL     1       8.489   0.673   0.897  0.00  0.00    +0.270 C 
ATOM      7  O   UNL     1       8.758   1.789   0.505  0.00  0.00    -0.270 OA
ATOM      8  N   UNL     1       7.227   0.210   0.798  0.00  0.00    -0.231 N 
ATOM      9  H   UNL     1       6.984  -0.802   1.154  0.00  0.00    +0.173 HD
BRANCH   6  11
ATOM     10  C   UNL     1       9.793  -1.415   0.597  0.00  0.00    +0.062 C 
ATOM     11  C   UNL     1       9.567  -0.195   1.493  0.00  0.00    +0.257 C 
BRANCH  11  12
ATOM     12  O   UNL     1      10.780   0.553   1.594  0.00  0.00    -0.480 OA
BRANCH  12  13
ATOM     13  C   UNL     1      11.675   0.152   2.535  0.00  0.00    +0.122 A 
ATOM     14  C   UNL     1      11.440  -0.999   3.272  0.00  0.00    +0.048 A 
ATOM     15  C   UNL     1      12.354  -1.408   4.224  0.00  0.00    +0.042 A 
ATOM     16  C   UNL     1      13.498  -0.663   4.451  0.00  0.00    +0.124 A 
ATOM     17  C   UNL     1      13.732   0.490   3.721  0.00  0.00    +0.042 A 
ATOM     18  C   UNL     1      12.823   0.898   2.764  0.00  0.00    +0.048 A 
ATOM     19  F   UNL     1      14.389  -1.062   5.385  0.00  0.00    -0.205 F 
ENDBRANCH  12  13
ENDBRANCH  11  12
ENDBRANCH   6  11
ENDBRANCH   2   8
ENDBRANCH   1   3
BRANCH   1  20
ATOM     20  C   UNL     1       2.558   0.663  -0.444  0.00  0.00    +0.026 C 
BRANCH  20  21
ATOM     21  C   UNL     1       1.464   1.545  -1.050  0.00  0.00    +0.106 C 
BRANCH  21  22
ATOM     22  N   UNL     1       0.192   0.819  -1.044  0.00  0.00    -0.190 NA
ATOM     23  H   UNL     1       0.187  -0.281  -1.038  0.00  0.00    +0.148 HD
BRANCH  22  24
ATOM     24  S   UNL     1      -1.228   1.633  -1.294  0.00  0.00    +0.059 S 
ATOM     25  O   UNL     1      -2.264   0.661  -1.263  0.00  0.00    -0.153 OA
ATOM     26  O   UNL     1      -1.211   2.756  -0.424  0.00  0.00    -0.153 OA
BRANCH  24  27
ATOM     27  C   UNL     1      -1.182   2.268  -2.937  0.00  0.00    +0.109 A 
ATOM     28  C   UNL     1      -0.662   3.527  -3.175  0.00  0.00    +0.032 A 
ATOM     29  C   UNL     1      -0.618   4.030  -4.463  0.00  0.00    +0.051 A 
ATOM     30  C   UNL     1      -1.107   3.271  -5.513  0.00  0.00    +0.162 A 
ATOM     31  C   UNL     1      -1.633   2.010  -5.274  0.00  0.00    +0.164 A 
ATOM     32  C   UNL     1      -1.671   1.508  -3.984  0.00  0.00    +0.078 A 
ATOM     33  O   UNL     1      -2.111   1.270  -6.316  0.00  0.00    -0.488 OA
ATOM     34  C   UNL     1      -3.299   1.763  -6.939  0.00  0.00    +0.232 C 
ATOM     35  C   UNL     1      -2.963   2.814  -7.985  0.00  0.00    +0.082 C 
ATOM     36  C   UNL     1      -2.340   4.060  -7.375  0.00  0.00    +0.232 C 
ATOM     37  O   UNL     1      -1.073   3.757  -6.788  0.00  0.00    -0.488 OA
ENDBRANCH  24  27
ENDBRANCH  22  24
ENDBRANCH  21  22
ENDBRANCH  20  21
ENDBRANCH   1  20
TORSDOF 10
