REMARK  Name = ZINC56195158
REMARK  10 active torsions:
REMARK  status: ('A' for Active; 'I' for Inactive)
REMARK    1  A    between atoms: C_1  and  C_2
REMARK    2  A    between atoms: C_2  and  N_3
REMARK    3  A    between atoms: C_7  and  C_9
REMARK    4  A    between atoms: C_9  and  C_11
REMARK    5  A    between atoms: C_9  and  N_12
REMARK    6  A    between atoms: N_12  and  C_13
REMARK    7  A    between atoms: C_17  and  C_19
REMARK    8  A    between atoms: C_19  and  O_20
REMARK    9  A    between atoms: O_20  and  C_21
REMARK   10  A    between atoms: C_21  and  C_22
REMARK                            x       y       z     vdW  Elec       q    Type
REMARK                         _______ _______ _______ _____ _____    ______ ____
ROOT
ATOM      1  C   UNL     1       2.524  -6.252   5.103  0.00  0.00    +0.028 A 
ATOM      2  C   UNL     1       2.625  -5.564   6.306  0.00  0.00    +0.023 A 
ATOM      3  C   UNL     1       2.749  -6.263   7.491  0.00  0.00    +0.002 A 
ATOM      4  C   UNL     1       2.774  -7.645   7.481  0.00  0.00    +0.006 A 
ATOM      5  C   UNL     1       2.674  -8.333   6.286  0.00  0.00    -0.020 A 
ATOM      6  C   UNL     1       2.543  -7.641   5.098  0.00  0.00    +0.028 A 
ENDROOT
BRANCH   1   7
ATOM      7  N   UNL     1       2.397  -5.549   3.903  0.00  0.00    -0.333 N 
ATOM      8  H   UNL     1       2.323  -6.030   3.064  0.00  0.00    +0.147 HD
BRANCH   7   9
ATOM      9  C   UNL     1       2.378  -4.084   3.911  0.00  0.00    +0.154 C 
ATOM     10  C   UNL     1       3.813  -3.554   3.900  0.00  0.00    +0.038 C 
BRANCH   9  15
ATOM     11  N   UNL     1       0.711  -0.489   1.189  0.00  0.00    -0.299 N 
ATOM     12  C   UNL     1       0.854  -1.814   1.394  0.00  0.00    +0.306 C 
ATOM     13  O   UNL     1       0.395  -2.606   0.594  0.00  0.00    -0.252 OA
ATOM     14  N   UNL     1       1.506  -2.260   2.486  0.00  0.00    -0.239 N 
ATOM     15  C   UNL     1       1.649  -3.585   2.690  0.00  0.00    +0.240 C 
ATOM     16  O   UNL     1       1.191  -4.374   1.893  0.00  0.00    -0.273 OA
ATOM     17  H   UNL     1       1.077   0.142   1.827  0.00  0.00    +0.150 HD
ATOM     18  H   UNL     1       1.872  -1.628   3.124  0.00  0.00    +0.159 HD
BRANCH  11  20
ATOM     19  C   UNL     1      -0.019   1.526   0.010  0.00  0.00    +0.024 C 
ATOM     20  C   UNL     1       0.002  -0.004   0.002  0.00  0.00    +0.102 C 
ENDBRANCH  11  20
ENDBRANCH   9  15
ENDBRANCH   7   9
ENDBRANCH   1   7
BRANCH   5  21
ATOM     21  C   UNL     1       2.702  -9.840   6.279  0.00  0.00    +0.195 C 
BRANCH  21  22
ATOM     22  O   UNL     1       1.369 -10.341   6.404  0.00  0.00    -0.373 OA
BRANCH  22  23
ATOM     23  C   UNL     1       1.284 -11.768   6.409  0.00  0.00    +0.191 C 
BRANCH  23  24
ATOM     24  C   UNL     1      -0.180 -12.190   6.547  0.00  0.00    +0.144 C 
ATOM     25  C   UNL     1      -0.263 -13.713   6.677  0.00  0.00    +0.034 C 
ATOM     26  C   UNL     1      -1.734 -14.133   6.754  0.00  0.00    +0.005 C 
ATOM     27  C   UNL     1      -2.466 -13.615   5.512  0.00  0.00    +0.028 C 
ATOM     28  C   UNL     1      -2.299 -12.096   5.427  0.00  0.00    +0.160 C 
ATOM     29  O   UNL     1      -0.908 -11.772   5.390  0.00  0.00    -0.374 OA
ENDBRANCH  23  24
ENDBRANCH  22  23
ENDBRANCH  21  22
ENDBRANCH   5  21
TORSDOF 8
