REMARK  Name = ZINC13110609
REMARK  7 active torsions:
REMARK  status: ('A' for Active; 'I' for Inactive)
REMARK    1  A    between atoms: C_1  and  C_2
REMARK    2  A    between atoms: C_2  and  O_3
REMARK    3  A    between atoms: O_3  and  C_4
REMARK    4  A    between atoms: C_10  and  C_28
REMARK    5  A    between atoms: C_12  and  N_14
REMARK    6  A    between atoms: N_19  and  C_20
REMARK    7  A    between atoms: C_24  and  C_26
REMARK                            x       y       z     vdW  Elec       q    Type
REMARK                         _______ _______ _______ _____ _____    ______ ____
ROOT
ATOM      1  N   UNL     1       3.054  -8.237  -2.018  0.00  0.00    -0.177 NA
ATOM      2  C   UNL     1       2.188  -8.997  -1.365  0.00  0.00    +0.204 C 
ATOM      3  N   UNL     1       1.615  -8.543  -0.200  0.00  0.00    -0.369 N 
ATOM      4  N   UNL     1       1.870 -10.211  -1.840  0.00  0.00    -0.308 N 
ATOM      5  C   UNL     1       2.356 -10.614  -3.003  0.00  0.00    +0.150 C 
ATOM      6  N   UNL     1       1.936 -11.798  -3.546  0.00  0.00    -0.295 N 
ATOM      7  S   UNL     1       3.542  -9.627  -3.853  0.00  0.00    -0.016 SA
ATOM      8  H   UNL     1       1.332  -7.618  -0.127  0.00  0.00    +0.159 HD
ATOM      9  H   UNL     1       1.494  -9.147   0.549  0.00  0.00    +0.159 HD
ATOM     10  H   UNL     1       1.189 -12.275  -3.152  0.00  0.00    +0.154 HD
ATOM     11  H   UNL     1       1.285 -10.793  -1.331  0.00  0.00    +0.170 HD
ENDROOT
BRANCH   1  20
ATOM     12  C   UNL     1       4.694  -3.447   1.600  0.00  0.00    +0.121 A 
ATOM     13  C   UNL     1       3.891  -4.325   2.332  0.00  0.00    +0.048 A 
ATOM     14  C   UNL     1       3.397  -5.461   1.766  0.00  0.00    +0.032 A 
ATOM     15  C   UNL     1       3.697  -5.758   0.428  0.00  0.00    +0.077 A 
ATOM     16  C   UNL     1       4.513  -4.867  -0.317  0.00  0.00    +0.025 A 
ATOM     17  C   UNL     1       5.002  -3.703   0.293  0.00  0.00    +0.057 A 
ATOM     18  C   UNL     1       4.803  -5.183  -1.659  0.00  0.00    +0.051 A 
ATOM     19  N   UNL     1       4.305  -6.289  -2.166  0.00  0.00    -0.215 NA
ATOM     20  C   UNL     1       3.539  -7.109  -1.438  0.00  0.00    +0.254 A 
ATOM     21  N   UNL     1       3.235  -6.861  -0.172  0.00  0.00    -0.211 NA
ATOM     22  C   UNL     1       5.664  -4.272  -2.495  0.00  0.00    +0.066 C 
BRANCH  12  23
ATOM     23  O   UNL     1       5.172  -2.322   2.194  0.00  0.00    -0.492 OA
BRANCH  23  25
ATOM     24  C   UNL     1       5.441  -0.802   4.054  0.00  0.00    +0.048 C 
ATOM     25  C   UNL     1       4.817  -2.109   3.562  0.00  0.00    +0.225 C 
ENDBRANCH  23  25
ENDBRANCH  12  23
ENDBRANCH   1  20
BRANCH   6  26
ATOM     26  C   UNL     1       2.585 -12.321  -4.669  0.00  0.00    +0.033 A 
ATOM     27  C   UNL     1       3.964 -12.204  -4.794  0.00  0.00    +0.023 A 
ATOM     28  C   UNL     1       4.601 -12.722  -5.904  0.00  0.00    +0.002 A 
ATOM     29  C   UNL     1       3.869 -13.356  -6.891  0.00  0.00    +0.003 A 
ATOM     30  C   UNL     1       2.497 -13.475  -6.770  0.00  0.00    -0.049 A 
ATOM     31  C   UNL     1       1.853 -12.964  -5.659  0.00  0.00    +0.026 A 
ATOM     32  C   UNL     1       1.703 -14.166  -7.848  0.00  0.00    +0.044 C 
ENDBRANCH   6  26
TORSDOF 4
