REMARK  Name = ZINC14041885
REMARK  12 active torsions:
REMARK  status: ('A' for Active; 'I' for Inactive)
REMARK    1  A    between atoms: C_1  and  C_2
REMARK    2  A    between atoms: C_6  and  O_8
REMARK    3  A    between atoms: O_8  and  C_9
REMARK    4  A    between atoms: C_9  and  C_10
REMARK    5  A    between atoms: N_12  and  N_13
REMARK    6  A    between atoms: N_13  and  C_14
REMARK    7  A    between atoms: C_14  and  N_16
REMARK    8  A    between atoms: C_17  and  C_19
REMARK    9  A    between atoms: C_22  and  O_25
REMARK   10  A    between atoms: O_25  and  C_26
REMARK   11  A    between atoms: C_26  and  C_27
REMARK   12  A    between atoms: C_27  and  C_28
REMARK                            x       y       z     vdW  Elec       q    Type
REMARK                         _______ _______ _______ _____ _____    ______ ____
ROOT
ATOM      1  N   UNL     1      -4.215  -4.995  -0.005  0.00  0.00    -0.263 N 
ATOM      2  C   UNL     1      -4.375  -6.333  -0.012  0.00  0.00    +0.250 C 
ATOM      3  O   UNL     1      -5.493  -6.811  -0.009  0.00  0.00    -0.270 OA
ATOM      4  H   UNL     1      -3.323  -4.613  -0.007  0.00  0.00    +0.157 HD
ENDROOT
BRANCH   2   5
ATOM      5  C   UNL     1      -3.195  -7.217  -0.022  0.00  0.00    +0.037 A 
ATOM      6  C   UNL     1      -1.909  -6.669  -0.031  0.00  0.00    +0.016 A 
ATOM      7  C   UNL     1      -0.809  -7.498  -0.035  0.00  0.00    +0.046 A 
ATOM      8  C   UNL     1      -0.977  -8.878  -0.041  0.00  0.00    +0.121 A 
ATOM      9  C   UNL     1      -2.254  -9.427  -0.038  0.00  0.00    +0.046 A 
ATOM     10  C   UNL     1      -3.359  -8.605  -0.029  0.00  0.00    +0.016 A 
BRANCH   8  11
ATOM     11  O   UNL     1       0.109  -9.692  -0.051  0.00  0.00    -0.492 OA
BRANCH  11  12
ATOM     12  C   UNL     1       1.392  -9.061  -0.053  0.00  0.00    +0.233 C 
BRANCH  12  13
ATOM     13  C   UNL     1       2.485 -10.131  -0.064  0.00  0.00    +0.076 C 
BRANCH  13  14
ATOM     14  C   UNL     1       3.838  -9.467  -0.066  0.00  0.00    -0.044 A 
ATOM     15  C   UNL     1       4.455  -9.161  -1.265  0.00  0.00    +0.004 A 
ATOM     16  C   UNL     1       5.694  -8.547  -1.267  0.00  0.00    +0.000 A 
ATOM     17  C   UNL     1       6.319  -8.248  -0.071  0.00  0.00    +0.000 A 
ATOM     18  C   UNL     1       5.705  -8.559   1.127  0.00  0.00    +0.000 A 
ATOM     19  C   UNL     1       4.464  -9.168   1.130  0.00  0.00    +0.004 A 
ENDBRANCH  13  14
ENDBRANCH  12  13
ENDBRANCH  11  12
ENDBRANCH   8  11
ENDBRANCH   2   5
BRANCH   1  20
ATOM     20  C   UNL     1      -5.294  -4.186   0.004  0.00  0.00    +0.153 C 
ATOM     21  S   UNL     1      -6.868  -4.860   0.008  0.00  0.00    -0.017 S 
BRANCH  20  22
ATOM     22  N   UNL     1      -5.133  -2.848   0.011  0.00  0.00    -0.245 N 
ATOM     23  H   UNL     1      -5.910  -2.267   0.018  0.00  0.00    +0.172 HD
BRANCH  22  26
ATOM     24  C   UNL     1      -3.685  -0.959   0.014  0.00  0.00    +0.267 C 
ATOM     25  O   UNL     1      -4.655  -0.232   0.023  0.00  0.00    -0.271 OA
ATOM     26  N   UNL     1      -3.845  -2.297   0.008  0.00  0.00    -0.232 N 
ATOM     27  H   UNL     1      -3.069  -2.879   0.001  0.00  0.00    +0.173 HD
BRANCH  24  28
ATOM     28  C   UNL     1      -2.299  -0.366   0.011  0.00  0.00    +0.326 C 
BRANCH  28  29
ATOM     29  O   UNL     1      -2.391   1.060   0.019  0.00  0.00    -0.483 OA
BRANCH  29  35
ATOM     30  C   UNL     1      -0.065   5.351   0.029  0.00  0.00    +0.044 C 
ATOM     31  C   UNL     1      -0.049   3.844   0.022  0.00  0.00    -0.047 A 
ATOM     32  C   UNL     1       1.156   3.166   0.007  0.00  0.00    +0.003 A 
ATOM     33  C   UNL     1       1.174   1.783   0.000  0.00  0.00    +0.004 A 
ATOM     34  C   UNL     1      -0.013   1.076   0.008  0.00  0.00    +0.045 A 
ATOM     35  C   UNL     1      -1.223   1.754   0.017  0.00  0.00    +0.121 A 
ATOM     36  C   UNL     1      -1.238   3.141   0.029  0.00  0.00    +0.049 A 
ENDBRANCH  29  35
ENDBRANCH  28  29
ENDBRANCH  24  28
ENDBRANCH  22  26
ENDBRANCH  20  22
ENDBRANCH   1  20
TORSDOF 11
