REMARK  Name = ZINC63772676
REMARK  12 active torsions:
REMARK  status: ('A' for Active; 'I' for Inactive)
REMARK    1  A    between atoms: C_1  and  C_2
REMARK    2  A    between atoms: C_2  and  O_3
REMARK    3  A    between atoms: O_3  and  C_4
REMARK    4  A    between atoms: C_7  and  S_10
REMARK    5  A    between atoms: S_10  and  N_13
REMARK    6  A    between atoms: N_13  and  C_14
REMARK    7  A    between atoms: C_14  and  C_16
REMARK    8  A    between atoms: C_14  and  C_26
REMARK    9  A    between atoms: C_16  and  C_17
REMARK   10  A    between atoms: N_28  and  C_29
REMARK   11  A    between atoms: C_33  and  C_36
REMARK   12  A    between atoms: C_34  and  C_35
REMARK                            x       y       z     vdW  Elec       q    Type
REMARK                         _______ _______ _______ _____ _____    ______ ____
ROOT
ATOM      1  C   UNL     1      -0.412  -6.355  -4.105  0.00  0.00    +0.166 C 
ENDROOT
BRANCH   1   2
ATOM      2  C   UNL     1      -1.885  -6.153  -4.353  0.00  0.00    +0.236 C 
ATOM      3  O   UNL     1      -2.684  -6.364  -3.466  0.00  0.00    -0.274 OA
ATOM      4  N   UNL     1      -2.314  -5.737  -5.561  0.00  0.00    -0.284 N 
ATOM      5  H   UNL     1      -1.672  -5.491  -6.246  0.00  0.00    +0.155 HD
BRANCH   4   6
ATOM      6  C   UNL     1      -3.685  -5.659  -5.829  0.00  0.00    +0.037 A 
ATOM      7  C   UNL     1      -4.578  -6.452  -5.119  0.00  0.00    +0.023 A 
ATOM      8  C   UNL     1      -5.931  -6.373  -5.385  0.00  0.00    +0.002 A 
ATOM      9  C   UNL     1      -6.397  -5.507  -6.358  0.00  0.00    +0.004 A 
ATOM     10  C   UNL     1      -5.510  -4.717  -7.066  0.00  0.00    -0.046 A 
ATOM     11  C   UNL     1      -4.156  -4.787  -6.800  0.00  0.00    -0.026 A 
ATOM     12  C   UNL     1      -3.192  -3.920  -7.568  0.00  0.00    +0.046 C 
ATOM     13  C   UNL     1      -6.022  -3.775  -8.126  0.00  0.00    +0.044 C 
ENDBRANCH   4   6
ENDBRANCH   1   2
BRANCH   1  14
ATOM     14  N   UNL     1      -0.207  -6.806  -2.726  0.00  0.00    -0.178 NA
ATOM     15  H   UNL     1      -0.857  -7.390  -2.305  0.00  0.00    +0.149 HD
BRANCH  14  16
ATOM     16  S   UNL     1       1.134  -6.318  -1.887  0.00  0.00    +0.059 S 
ATOM     17  O   UNL     1       2.250  -6.547  -2.736  0.00  0.00    -0.153 OA
ATOM     18  O   UNL     1       1.033  -6.892  -0.591  0.00  0.00    -0.153 OA
BRANCH  16  22
ATOM     19  C   UNL     1       0.818  -1.833  -1.345  0.00  0.00    +0.121 A 
ATOM     20  C   UNL     1       0.280  -2.688  -0.394  0.00  0.00    +0.047 A 
ATOM     21  C   UNL     1       0.377  -4.055  -0.561  0.00  0.00    +0.032 A 
ATOM     22  C   UNL     1       1.011  -4.573  -1.676  0.00  0.00    +0.105 A 
ATOM     23  C   UNL     1       1.549  -3.724  -2.625  0.00  0.00    +0.032 A 
ATOM     24  C   UNL     1       1.448  -2.355  -2.465  0.00  0.00    +0.047 A 
BRANCH  19  25
ATOM     25  O   UNL     1       0.723  -0.487  -1.183  0.00  0.00    -0.492 OA
BRANCH  25  27
ATOM     26  C   UNL     1       0.052   1.509   0.003  0.00  0.00    +0.048 C 
ATOM     27  C   UNL     1       0.061  -0.021  -0.005  0.00  0.00    +0.225 C 
ENDBRANCH  25  27
ENDBRANCH  19  25
ENDBRANCH  16  22
ENDBRANCH  14  16
ENDBRANCH   1  14
BRANCH   1  28
ATOM     28  C   UNL     1       0.127  -7.411  -5.072  0.00  0.00    +0.063 C 
BRANCH  28  29
ATOM     29  C   UNL     1       1.621  -7.525  -4.908  0.00  0.00    -0.040 C 
ATOM     30  C   UNL     1       2.289  -8.416  -4.141  0.00  0.00    -0.001 A 
ATOM     31  C   UNL     1       1.842  -9.503  -3.261  0.00  0.00    +0.010 A 
ATOM     32  C   UNL     1       2.768 -10.241  -2.607  0.00  0.00    +0.001 A 
ATOM     33  C   UNL     1       4.140  -9.994  -2.748  0.00  0.00    +0.002 A 
ATOM     34  C   UNL     1       4.628  -9.014  -3.537  0.00  0.00    +0.026 A 
ATOM     35  C   UNL     1       3.744  -8.176  -4.272  0.00  0.00    +0.043 A 
ATOM     36  N   UNL     1       3.966  -7.176  -5.090  0.00  0.00    -0.380 N 
ATOM     37  C   UNL     1       2.677  -6.671  -5.574  0.00  0.00    +0.144 C 
ATOM     38  H   UNL     1       4.838  -6.830  -5.336  0.00  0.00    +0.160 HD
ENDBRANCH  28  29
ENDBRANCH   1  28
TORSDOF 9
