REMARK  Name = ZINC39751219
REMARK  15 active torsions:
REMARK  status: ('A' for Active; 'I' for Inactive)
REMARK    1  A    between atoms: C_1  and  C_2
REMARK    2  A    between atoms: C_6  and  C_32
REMARK    3  A    between atoms: C_7  and  N_8
REMARK    4  A    between atoms: C_9  and  C_11
REMARK    5  A    between atoms: C_11  and  N_12
REMARK    6  A    between atoms: N_12  and  C_13
REMARK    7  A    between atoms: C_14  and  C_16
REMARK    8  A    between atoms: C_16  and  O_17
REMARK    9  A    between atoms: O_17  and  C_18
REMARK   10  A    between atoms: C_18  and  C_20
REMARK   11  A    between atoms: C_22  and  C_31
REMARK   12  A    between atoms: C_24  and  C_27
REMARK   13  A    between atoms: C_25  and  C_26
REMARK   14  A    between atoms: C_27  and  O_29
REMARK   15  A    between atoms: O_29  and  C_30
REMARK                            x       y       z     vdW  Elec       q    Type
REMARK                         _______ _______ _______ _____ _____    ______ ____
ROOT
ATOM      1  N   UNL     1      -0.618  -0.971   5.966  0.00  0.00    -0.293 N 
ATOM      2  C   UNL     1       0.523  -1.631   6.607  0.00  0.00    +0.132 C 
ATOM      3  C   UNL     1      -1.873  -1.252   6.369  0.00  0.00    +0.253 C 
ATOM      4  O   UNL     1      -2.817  -0.707   5.838  0.00  0.00    -0.272 OA
ENDROOT
BRANCH   1   5
ATOM      5  C   UNL     1      -0.394  -0.007   4.886  0.00  0.00    +0.203 C 
BRANCH   5   7
ATOM      6  N   UNL     1      -0.198  -0.037   2.420  0.00  0.00    -0.284 N 
ATOM      7  C   UNL     1      -0.388  -0.727   3.562  0.00  0.00    +0.235 C 
ATOM      8  O   UNL     1      -0.555  -1.928   3.524  0.00  0.00    -0.274 OA
ATOM      9  H   UNL     1      -0.117   0.929   2.445  0.00  0.00    +0.155 HD
BRANCH   6  16
ATOM     10  C   UNL     1       1.718  -2.126   2.165  0.00  0.00    +0.045 C 
ATOM     11  C   UNL     1       0.803  -1.741   1.031  0.00  0.00    -0.029 A 
ATOM     12  C   UNL     1       0.876  -2.411  -0.174  0.00  0.00    +0.005 A 
ATOM     13  C   UNL     1       0.037  -2.058  -1.215  0.00  0.00    +0.001 A 
ATOM     14  C   UNL     1      -0.877  -1.033  -1.054  0.00  0.00    +0.005 A 
ATOM     15  C   UNL     1      -0.955  -0.359   0.149  0.00  0.00    -0.029 A 
ATOM     16  C   UNL     1      -0.118  -0.715   1.198  0.00  0.00    +0.039 A 
ATOM     17  C   UNL     1      -1.951   0.759   0.324  0.00  0.00    +0.045 C 
ENDBRANCH   6  16
ENDBRANCH   5   7
ENDBRANCH   1   5
BRANCH   3  18
ATOM     18  C   UNL     1      -2.103  -2.244   7.480  0.00  0.00    +0.328 C 
BRANCH  18  19
ATOM     19  O   UNL     1      -3.505  -2.370   7.723  0.00  0.00    -0.451 OA
BRANCH  19  20
ATOM     20  C   UNL     1      -3.883  -3.224   8.692  0.00  0.00    +0.358 C 
ATOM     21  O   UNL     1      -3.046  -3.845   9.314  0.00  0.00    -0.243 OA
BRANCH  20  22
ATOM     22  C   UNL     1      -5.326  -3.406   9.001  0.00  0.00    +0.146 C 
ATOM     23  N   UNL     1      -6.291  -2.795   8.390  0.00  0.00    -0.269 NA
ATOM     24  C   UNL     1      -7.563  -3.236   8.974  0.00  0.00    +0.140 C 
ATOM     25  C   UNL     1      -7.194  -4.230  10.053  0.00  0.00    +0.066 C 
ATOM     26  C   UNL     1      -5.848  -4.310  10.036  0.00  0.00    -0.007 C 
ATOM     27  C   UNL     1      -5.013  -5.183  10.937  0.00  0.00    +0.047 C 
ATOM     28  C   UNL     1      -8.308  -2.046   9.582  0.00  0.00    +0.038 C 
BRANCH  25  29
ATOM     29  C   UNL     1      -8.114  -4.962  10.934  0.00  0.00    +0.337 C 
ATOM     30  O   UNL     1      -7.675  -5.736  11.763  0.00  0.00    -0.245 OA
BRANCH  29  31
ATOM     31  O   UNL     1      -9.445  -4.776  10.824  0.00  0.00    -0.465 OA
ATOM     32  C   UNL     1     -10.280  -5.521  11.713  0.00  0.00    +0.280 C 
ENDBRANCH  29  31
ENDBRANCH  25  29
ENDBRANCH  20  22
ENDBRANCH  19  20
ENDBRANCH  18  19
ENDBRANCH   3  18
TORSDOF 9
