REMARK  Name = ZINC66249596
REMARK  5 active torsions:
REMARK  status: ('A' for Active; 'I' for Inactive)
REMARK    1  A    between atoms: C_1  and  C_2
REMARK    2  A    between atoms: N_11  and  S_12
REMARK    3  A    between atoms: S_12  and  C_15
REMARK    4  A    between atoms: C_18  and  S_21
REMARK    5  A    between atoms: S_21  and  N_24
REMARK                            x       y       z     vdW  Elec       q    Type
REMARK                         _______ _______ _______ _____ _____    ______ ____
ROOT
ATOM      1  S   UNL     1       2.000  -6.957   0.280  0.00  0.00    +0.101 S 
ATOM      2  O   UNL     1       0.651  -7.127  -0.132  0.00  0.00    -0.146 OA
ATOM      3  O   UNL     1       3.033  -6.593  -0.625  0.00  0.00    -0.146 OA
ENDROOT
BRANCH   1  13
ATOM      4  C   UNL     1      -0.019   1.526   0.010  0.00  0.00    +0.008 C 
ATOM      5  C   UNL     1       0.002  -0.004   0.002  0.00  0.00    -0.009 C 
ATOM      6  C   UNL     1       0.727  -0.502  -1.252  0.00  0.00    +0.010 C 
ATOM      7  C   UNL     1       0.548  -2.014  -1.389  0.00  0.00    +0.054 C 
ATOM      8  C   UNL     1       0.969  -2.684  -0.083  0.00  0.00    +0.028 A 
ATOM      9  C   UNL     1       1.044  -1.972   1.048  0.00  0.00    +0.013 A 
ATOM     10  S   UNL     1       1.560  -3.151   2.269  0.00  0.00    -0.053 S 
ATOM     11  C   UNL     1       1.655  -4.574   1.192  0.00  0.00    +0.192 A 
ATOM     12  N   UNL     1       1.283  -4.025  -0.012  0.00  0.00    -0.336 N 
ATOM     13  N   UNL     1       1.990  -5.809   1.473  0.00  0.00    -0.103 NA
ATOM     14  C   UNL     1       0.752  -0.517   1.240  0.00  0.00    +0.047 C 
ATOM     15  H   UNL     1       1.242  -4.578  -0.807  0.00  0.00    +0.168 HD
ENDBRANCH   1  13
BRANCH   1  16
ATOM     16  C   UNL     1       2.494  -8.477   1.023  0.00  0.00    +0.113 A 
ATOM     17  C   UNL     1       3.834  -8.813   1.082  0.00  0.00    +0.031 A 
ATOM     18  C   UNL     1       4.221 -10.005   1.665  0.00  0.00    +0.030 A 
ATOM     19  C   UNL     1       3.270 -10.861   2.189  0.00  0.00    +0.105 A 
ATOM     20  C   UNL     1       1.931 -10.523   2.130  0.00  0.00    +0.030 A 
ATOM     21  C   UNL     1       1.543  -9.329   1.551  0.00  0.00    +0.031 A 
BRANCH  19  22
ATOM     22  S   UNL     1       3.764 -12.380   2.931  0.00  0.00    +0.056 S 
ATOM     23  O   UNL     1       2.644 -13.252   2.856  0.00  0.00    -0.153 OA
ATOM     24  O   UNL     1       5.027 -12.713   2.372  0.00  0.00    -0.153 OA
BRANCH  22  25
ATOM     25  N   UNL     1       4.023 -12.079   4.539  0.00  0.00    -0.204 NA
ATOM     26  H   UNL     1       3.875 -12.780   5.193  0.00  0.00    +0.144 HD
ATOM     27  H   UNL     1       4.322 -11.202   4.826  0.00  0.00    +0.144 HD
ENDBRANCH  22  25
ENDBRANCH  19  22
ENDBRANCH   1  16
TORSDOF 4
