REMARK  Name = ZINC43721942
REMARK  8 active torsions:
REMARK  status: ('A' for Active; 'I' for Inactive)
REMARK    1  A    between atoms: C_1  and  C_2
REMARK    2  A    between atoms: C_4  and  O_32
REMARK    3  A    between atoms: C_12  and  O_20
REMARK    4  A    between atoms: C_14  and  C_15
REMARK    5  A    between atoms: C_14  and  O_19
REMARK    6  A    between atoms: C_15  and  C_17
REMARK    7  A    between atoms: C_17  and  O_18
REMARK    8  A    between atoms: C_29  and  C_30
REMARK                            x       y       z     vdW  Elec       q    Type
REMARK                         _______ _______ _______ _____ _____    ______ ____
ROOT
ATOM      1  C   UNL     1      -0.019   1.528   0.010  0.00  0.00    +0.015 C 
ATOM      2  C   UNL     1       0.002  -0.004   0.002  0.00  0.00    +0.012 C 
ATOM      3  C   UNL     1       0.578  -0.513  -1.298  0.00  0.00    +0.044 C 
ATOM      4  C   UNL     1       2.027   0.013  -1.421  0.00  0.00    +0.154 C 
ATOM      5  C   UNL     1       2.888  -0.476  -0.271  0.00  0.00    +0.153 C 
ATOM      6  C   UNL     1       2.278  -0.199   1.106  0.00  0.00    +0.034 C 
ATOM      7  C   UNL     1       0.839  -0.586   1.159  0.00  0.00    +0.007 C 
ATOM      8  C   UNL     1       0.012  -0.174   2.383  0.00  0.00    +0.039 C 
ATOM      9  C   UNL     1      -1.440  -0.478   1.916  0.00  0.00    +0.154 C 
ATOM     10  C   UNL     1      -1.414  -0.473   0.366  0.00  0.00    +0.157 C 
ATOM     11  C   UNL     1       2.590   1.235   1.522  0.00  0.00    +0.011 C 
ATOM     12  C   UNL     1       4.061   1.241   1.960  0.00  0.00    +0.032 C 
ATOM     13  C   UNL     1       4.898   0.527   0.924  0.00  0.00    -0.053 C 
ATOM     14  C   UNL     1       6.217   0.471   1.178  0.00  0.00    +0.051 C 
ATOM     15  C   UNL     1       7.115  -0.236   0.242  0.00  0.00    +0.179 C 
ATOM     16  O   UNL     1       8.331  -0.075   0.279  0.00  0.00    -0.288 OA
ATOM     17  C   UNL     1       6.500  -1.173  -0.726  0.00  0.00    +0.047 C 
ATOM     18  C   UNL     1       5.190  -1.093  -0.971  0.00  0.00    -0.009 C 
ATOM     19  C   UNL     1       4.332  -0.042  -0.330  0.00  0.00    +0.044 C 
ATOM     20  C   UNL     1       4.418   1.132  -1.309  0.00  0.00    +0.023 C 
ATOM     21  F   UNL     1       2.921  -1.889  -0.389  0.00  0.00    -0.238 F 
ENDROOT
BRANCH  10  22
ATOM     22  C   UNL     1      -1.697  -1.847  -0.170  0.00  0.00    +0.193 C 
ATOM     23  O   UNL     1      -0.797  -2.641  -0.302  0.00  0.00    -0.292 OA
BRANCH  22  24
ATOM     24  C   UNL     1      -3.105  -2.235  -0.542  0.00  0.00    +0.233 C 
BRANCH  24  25
ATOM     25  O   UNL     1      -3.117  -3.580  -1.022  0.00  0.00    -0.387 OA
ATOM     26  H   UNL     1      -3.993  -3.898  -1.281  0.00  0.00    +0.210 HD
ENDBRANCH  24  25
ENDBRANCH  22  24
ENDBRANCH  10  22
BRANCH  10  27
ATOM     27  O   UNL     1      -2.372   0.463  -0.136  0.00  0.00    -0.378 OA
ATOM     28  H   UNL     1      -3.290   0.229   0.058  0.00  0.00    +0.211 HD
ENDBRANCH  10  27
BRANCH   9  29
ATOM     29  O   UNL     1      -2.333   0.526   2.398  0.00  0.00    -0.388 OA
ATOM     30  H   UNL     1      -2.376   0.584   3.362  0.00  0.00    +0.210 HD
ENDBRANCH   9  29
BRANCH   4  31
ATOM     31  O   UNL     1       2.542  -0.515  -2.655  0.00  0.00    -0.389 OA
ATOM     32  H   UNL     1       2.042  -0.244  -3.437  0.00  0.00    +0.210 HD
ENDBRANCH   4  31
TORSDOF 6
