REMARK  Name = ZINC08745540
REMARK  3 active torsions:
REMARK  status: ('A' for Active; 'I' for Inactive)
REMARK    1  A    between atoms: C_1  and  C_2
REMARK    2  A    between atoms: C_8  and  N_10
REMARK    3  A    between atoms: C_17  and  C_20
REMARK                            x       y       z     vdW  Elec       q    Type
REMARK                         _______ _______ _______ _____ _____    ______ ____
ROOT
ATOM      1  N   UNL     1       6.662   0.892  -0.403  0.00  0.00    -0.319 N 
ATOM      2  C   UNL     1       5.293   1.067  -0.438  0.00  0.00    +0.172 C 
ATOM      3  N   UNL     1       4.776   2.183  -0.019  0.00  0.00    -0.160 NA
ATOM      4  N   UNL     1       3.412   2.448  -0.023  0.00  0.00    -0.238 N 
ATOM      5  C   UNL     1       2.471   1.520  -0.013  0.00  0.00    +0.045 C 
ATOM      6  C   UNL     1       1.125   1.917   0.002  0.00  0.00    +0.014 C 
ATOM      7  C   UNL     1       0.628   3.239   0.013  0.00  0.00    +0.044 C 
ATOM      8  C   UNL     1      -0.753   3.129   0.025  0.00  0.00    +0.126 C 
ATOM      9  N   UNL     1      -1.085   1.825   0.017  0.00  0.00    -0.250 NA
ATOM     10  C   UNL     1      -0.013   1.076   0.008  0.00  0.00    +0.121 C 
ATOM     11  C   UNL     1       2.797   0.051  -0.023  0.00  0.00    +0.130 C 
ATOM     12  S   UNL     1       4.263  -0.225  -1.051  0.00  0.00    -0.083 S 
ATOM     13  H   UNL     1       7.053   0.061  -0.715  0.00  0.00    +0.148 HD
ATOM     14  H   UNL     1       3.132   3.376  -0.030  0.00  0.00    +0.174 HD
ENDROOT
BRANCH   1  21
ATOM     15  C   UNL     1       8.826   1.926  -2.027  0.00  0.00    +0.009 C 
ATOM     16  C   UNL     1       8.921   1.824  -0.504  0.00  0.00    +0.006 C 
ATOM     17  C   UNL     1       9.513   0.466  -0.120  0.00  0.00    +0.005 C 
ATOM     18  C   UNL     1       9.608   0.364   1.404  0.00  0.00    +0.000 C 
ATOM     19  C   UNL     1       8.211   0.502   2.013  0.00  0.00    +0.002 C 
ATOM     20  C   UNL     1       7.620   1.860   1.629  0.00  0.00    +0.022 C 
ATOM     21  C   UNL     1       7.524   1.962   0.105  0.00  0.00    +0.075 C 
ENDBRANCH   1  21
BRANCH   8  22
ATOM     22  C   UNL     1      -1.701   4.253   0.038  0.00  0.00    +0.265 C 
ATOM     23  O   UNL     1      -1.288   5.397   0.039  0.00  0.00    -0.268 OA
ATOM     24  N   UNL     1      -3.028   4.015   0.049  0.00  0.00    -0.296 N 
ATOM     25  C   UNL     1      -3.661   2.688   0.043  0.00  0.00    +0.108 C 
ATOM     26  C   UNL     1      -5.188   2.909   0.035  0.00  0.00    +0.020 C 
ATOM     27  C   UNL     1      -5.327   4.342  -0.541  0.00  0.00    +0.020 C 
ATOM     28  C   UNL     1      -4.085   5.043   0.063  0.00  0.00    +0.108 C 
ENDBRANCH   8  22
TORSDOF 2
