REMARK  Name = ZINC00690781
REMARK  8 active torsions:
REMARK  status: ('A' for Active; 'I' for Inactive)
REMARK    1  A    between atoms: C_1  and  C_2
REMARK    2  A    between atoms: C_5  and  C_8
REMARK    3  A    between atoms: C_10  and  C_31
REMARK    4  A    between atoms: C_11  and  N_30
REMARK    5  A    between atoms: N_12  and  N_27
REMARK    6  A    between atoms: C_18  and  C_21
REMARK    7  A    between atoms: N_27  and  C_28
REMARK    8  A    between atoms: N_27  and  C_29
REMARK                            x       y       z     vdW  Elec       q    Type
REMARK                         _______ _______ _______ _____ _____    ______ ____
ROOT
ATOM      1  C   UNL     1      -1.543  -4.106  -0.405  0.00  0.00    +0.097 C 
ATOM      2  C   UNL     1      -0.228  -4.822  -0.500  0.00  0.00    +0.078 C 
ATOM      3  C   UNL     1       0.215  -5.323  -1.682  0.00  0.00    +0.117 C 
ATOM      4  N   UNL     1      -0.548  -5.186  -2.818  0.00  0.00    -0.223 N 
ATOM      5  C   UNL     1      -1.889  -4.927  -2.728  0.00  0.00    +0.037 C 
ATOM      6  C   UNL     1      -2.414  -4.411  -1.597  0.00  0.00    +0.026 C 
ATOM      7  C   UNL     1      -3.791  -4.141  -1.495  0.00  0.00    +0.162 C 
ATOM      8  O   UNL     1      -4.235  -3.690  -0.458  0.00  0.00    -0.292 OA
ATOM      9  C   UNL     1      -4.723  -4.400  -2.647  0.00  0.00    +0.088 C 
ATOM     10  C   UNL     1      -3.943  -4.267  -3.959  0.00  0.00    +0.032 C 
ATOM     11  C   UNL     1      -2.760  -5.238  -3.920  0.00  0.00    +0.061 C 
ENDROOT
BRANCH   1  16
ATOM     12  C   UNL     1      -0.585   1.588  -0.163  0.00  0.00    +0.044 C 
ATOM     13  C   UNL     1      -0.835   0.103  -0.226  0.00  0.00    -0.050 A 
ATOM     14  C   UNL     1      -0.425  -0.620  -1.331  0.00  0.00    +0.003 A 
ATOM     15  C   UNL     1      -0.651  -1.983  -1.387  0.00  0.00    +0.005 A 
ATOM     16  C   UNL     1      -1.293  -2.621  -0.342  0.00  0.00    -0.035 A 
ATOM     17  C   UNL     1      -1.708  -1.896   0.760  0.00  0.00    +0.005 A 
ATOM     18  C   UNL     1      -1.479  -0.534   0.818  0.00  0.00    +0.003 A 
ENDBRANCH   1  16
BRANCH  10  19
ATOM     19  C   UNL     1      -4.841  -4.610  -5.120  0.00  0.00    -0.044 A 
ATOM     20  C   UNL     1      -5.429  -5.859  -5.193  0.00  0.00    +0.004 A 
ATOM     21  C   UNL     1      -6.256  -6.172  -6.256  0.00  0.00    +0.000 A 
ATOM     22  C   UNL     1      -6.488  -5.239  -7.249  0.00  0.00    +0.000 A 
ATOM     23  C   UNL     1      -5.896  -3.992  -7.178  0.00  0.00    +0.000 A 
ATOM     24  C   UNL     1      -5.072  -3.678  -6.113  0.00  0.00    +0.004 A 
ENDBRANCH  10  19
BRANCH   4  25
ATOM     25  N   UNL     1       0.037  -5.311  -4.046  0.00  0.00    -0.227 NA
ATOM     26  C   UNL     1      -0.441  -6.516  -4.737  0.00  0.00    +0.128 C 
ATOM     27  C   UNL     1      -0.191  -4.111  -4.862  0.00  0.00    +0.128 C 
ENDBRANCH   4  25
BRANCH   3  28
ATOM     28  N   UNL     1       1.427  -5.967  -1.744  0.00  0.00    -0.344 N 
ATOM     29  H   UNL     1       2.003  -5.993  -0.963  0.00  0.00    +0.144 HD
ATOM     30  H   UNL     1       1.707  -6.396  -2.567  0.00  0.00    +0.144 HD
ENDBRANCH   3  28
BRANCH   2  31
ATOM     31  C   UNL     1       0.574  -4.980   0.676  0.00  0.00    +0.099 C 
ATOM     32  N   UNL     1       1.210  -5.105   1.609  0.00  0.00    -0.191 NA
ENDBRANCH   2  31
TORSDOF 5
