REMARK  Name = ZINC40016357
REMARK  8 active torsions:
REMARK  status: ('A' for Active; 'I' for Inactive)
REMARK    1  A    between atoms: C_1  and  C_2
REMARK    2  A    between atoms: C_5  and  O_9
REMARK    3  A    between atoms: C_7  and  C_8
REMARK    4  A    between atoms: O_9  and  C_10
REMARK    5  A    between atoms: C_11  and  C_21
REMARK    6  A    between atoms: C_22  and  C_23
REMARK    7  A    between atoms: C_22  and  C_25
REMARK    8  A    between atoms: N_27  and  C_28
REMARK                            x       y       z     vdW  Elec       q    Type
REMARK                         _______ _______ _______ _____ _____    ______ ____
ROOT
ATOM      1  C   UNL     1      -0.307  -4.754  -1.195  0.00  0.00    +0.235 A 
ATOM      2  C   UNL     1      -0.152  -6.161  -1.261  0.00  0.00    +0.103 A 
ATOM      3  C   UNL     1      -0.015  -6.763  -2.539  0.00  0.00    +0.269 A 
ATOM      4  O   UNL     1       0.120  -7.969  -2.645  0.00  0.00    -0.266 OA
ATOM      5  N   UNL     1      -0.036  -5.975  -3.636  0.00  0.00    -0.268 N 
ATOM      6  C   UNL     1       0.095  -6.543  -4.867  0.00  0.00    +0.096 A 
ATOM      7  C   UNL     1       0.079  -5.783  -5.986  0.00  0.00    +0.018 A 
ATOM      8  C   UNL     1      -0.075  -4.394  -5.889  0.00  0.00    +0.005 A 
ATOM      9  C   UNL     1      -0.208  -3.816  -4.660  0.00  0.00    +0.047 A 
ATOM     10  C   UNL     1      -0.189  -4.623  -3.509  0.00  0.00    +0.144 A 
ATOM     11  N   UNL     1      -0.324  -4.048  -2.312  0.00  0.00    -0.194 NA
ENDROOT
BRANCH   2  12
ATOM     12  C   UNL     1      -0.136  -6.940  -0.090  0.00  0.00    +0.042 C 
ATOM     13  C   UNL     1       0.786  -6.669   0.911  0.00  0.00    +0.114 C 
BRANCH  13  14
ATOM     14  C   UNL     1       0.724  -7.398   2.182  0.00  0.00    +0.255 C 
ATOM     15  O   UNL     1      -0.136  -8.240   2.359  0.00  0.00    -0.269 OA
ATOM     16  N   UNL     1       1.619  -7.134   3.155  0.00  0.00    -0.308 N 
ATOM     17  H   UNL     1       2.305  -6.462   3.014  0.00  0.00    +0.149 HD
BRANCH  16  18
ATOM     18  C   UNL     1       1.557  -7.862   4.425  0.00  0.00    +0.073 C 
ATOM     19  C   UNL     1       0.608  -7.138   5.402  0.00  0.00    +0.022 C 
ATOM     20  C   UNL     1       1.285  -7.310   6.785  0.00  0.00    +0.002 C 
ATOM     21  C   UNL     1       2.790  -7.167   6.450  0.00  0.00    +0.002 C 
ATOM     22  C   UNL     1       2.944  -7.880   5.090  0.00  0.00    +0.022 C 
ENDBRANCH  16  18
ENDBRANCH  13  14
BRANCH  13  23
ATOM     23  C   UNL     1       1.798  -5.677   0.703  0.00  0.00    +0.104 C 
ATOM     24  N   UNL     1       2.601  -4.891   0.538  0.00  0.00    -0.191 NA
ENDBRANCH  13  23
ENDBRANCH   2  12
BRANCH   1  25
ATOM     25  O   UNL     1      -0.442  -4.140   0.001  0.00  0.00    -0.437 OA
BRANCH  25  30
ATOM     26  C   UNL     1      -1.540   1.385   0.029  0.00  0.00    +0.044 C 
ATOM     27  C   UNL     1      -1.246  -0.093   0.021  0.00  0.00    -0.047 A 
ATOM     28  C   UNL     1      -2.219  -0.989  -0.385  0.00  0.00    +0.007 A 
ATOM     29  C   UNL     1      -1.952  -2.344  -0.393  0.00  0.00    +0.046 A 
ATOM     30  C   UNL     1      -0.707  -2.807   0.007  0.00  0.00    +0.131 A 
ATOM     31  C   UNL     1       0.267  -1.907   0.414  0.00  0.00    +0.050 A 
ATOM     32  C   UNL     1      -0.003  -0.552   0.416  0.00  0.00    -0.044 A 
ATOM     33  C   UNL     1       1.056   0.427   0.853  0.00  0.00    +0.044 C 
ENDBRANCH  25  30
ENDBRANCH   1  25
TORSDOF 6
