REMARK  Name = ZINC20227892
REMARK  3 active torsions:
REMARK  status: ('A' for Active; 'I' for Inactive)
REMARK    1  A    between atoms: C_1  and  O_2
REMARK    2  A    between atoms: O_2  and  C_3
REMARK    3  A    between atoms: C_6  and  C_10
REMARK                            x       y       z     vdW  Elec       q    Type
REMARK                         _______ _______ _______ _____ _____    ______ ____
ROOT
ATOM      1  C   UNL     1      -4.955  -2.617   0.035  0.00  0.00    +0.267 C 
ATOM      2  O   UNL     1      -5.422  -3.019   1.083  0.00  0.00    -0.267 OA
ATOM      3  N   UNL     1      -5.607  -2.840  -1.123  0.00  0.00    -0.220 N 
ATOM      4  C   UNL     1      -5.008  -2.524  -2.306  0.00  0.00    +0.269 A 
ATOM      5  O   UNL     1      -3.773  -1.993  -2.334  0.00  0.00    -0.266 OA
ATOM      6  C   UNL     1      -5.716  -2.770  -3.497  0.00  0.00    +0.066 A 
ATOM      7  C   UNL     1      -5.171  -2.474  -4.755  0.00  0.00    +0.030 A 
ATOM      8  C   UNL     1      -5.899  -2.732  -5.880  0.00  0.00    +0.019 A 
ATOM      9  C   UNL     1      -7.175  -3.284  -5.795  0.00  0.00    +0.017 A 
ATOM     10  C   UNL     1      -7.734  -3.583  -4.588  0.00  0.00    +0.029 A 
ATOM     11  C   UNL     1      -7.017  -3.333  -3.409  0.00  0.00    +0.079 A 
ATOM     12  N   UNL     1      -7.530  -3.614  -2.203  0.00  0.00    -0.222 NA
ATOM     13  C   UNL     1      -6.839  -3.376  -1.099  0.00  0.00    +0.190 A 
ATOM     14  S   UNL     1      -7.543  -3.760   0.413  0.00  0.00    -0.010 S 
ATOM     15 BR   UNL     1      -5.166  -2.334  -7.577  0.00  0.00    -0.050 Br
ENDROOT
BRANCH   1  19
ATOM     16  C   UNL     1      -1.269  -0.510   0.024  0.00  0.00    +0.157 A 
ATOM     17  C   UNL     1      -1.329  -1.805  -0.480  0.00  0.00    +0.085 A 
ATOM     18  C   UNL     1      -2.523  -2.492  -0.478  0.00  0.00    +0.037 A 
ATOM     19  C   UNL     1      -3.675  -1.886   0.032  0.00  0.00    +0.043 A 
ATOM     20  C   UNL     1      -3.611  -0.584   0.538  0.00  0.00    +0.037 A 
ATOM     21  C   UNL     1      -2.411   0.095   0.537  0.00  0.00    +0.085 A 
ATOM     22 CL   UNL     1      -2.328   1.708   1.171  0.00  0.00    -0.080 Cl
ATOM     23 CL   UNL     1       0.102  -2.556  -1.113  0.00  0.00    -0.080 Cl
BRANCH  16  25
ATOM     24  C   UNL     1       0.744   0.019   1.170  0.00  0.00    +0.277 C 
ATOM     25  O   UNL     1      -0.090   0.164   0.019  0.00  0.00    -0.492 OA
ENDBRANCH  16  25
ENDBRANCH   1  19
TORSDOF 2
