REMARK  Name = ZINC19970410
REMARK  6 active torsions:
REMARK  status: ('A' for Active; 'I' for Inactive)
REMARK    1  A    between atoms: C_1  and  C_2
REMARK    2  A    between atoms: C_4  and  N_19
REMARK    3  A    between atoms: C_6  and  C_9
REMARK    4  A    between atoms: C_7  and  C_8
REMARK    5  A    between atoms: C_9  and  C_11
REMARK    6  A    between atoms: C_9  and  N_18
REMARK                            x       y       z     vdW  Elec       q    Type
REMARK                         _______ _______ _______ _____ _____    ______ ____
ROOT
ATOM      1  C   UNL     1      -2.495   0.992   0.030  0.00  0.00    -0.012 C 
ENDROOT
BRANCH   1   7
ATOM      2  C   UNL     1      -5.580   2.739   3.562  0.00  0.00    +0.044 C 
ATOM      3  C   UNL     1      -4.616   1.688   3.075  0.00  0.00    -0.045 A 
ATOM      4  C   UNL     1      -4.323   0.596   3.870  0.00  0.00    +0.036 A 
ATOM      5  C   UNL     1      -3.439  -0.368   3.423  0.00  0.00    +0.127 A 
ATOM      6  C   UNL     1      -2.852  -0.243   2.178  0.00  0.00    +0.035 A 
ATOM      7  C   UNL     1      -3.140   0.852   1.385  0.00  0.00    -0.052 A 
ATOM      8  C   UNL     1      -4.024   1.816   1.832  0.00  0.00    -0.046 A 
ATOM      9  C   UNL     1      -4.343   3.007   0.965  0.00  0.00    +0.044 C 
BRANCH   5  10
ATOM     10  N   UNL     1      -3.126  -1.537   4.275  0.00  0.00    +0.056 N 
ATOM     11  O   UNL     1      -3.646  -1.649   5.370  0.00  0.00    -0.126 OA
ATOM     12  O   UNL     1      -2.347  -2.386   3.881  0.00  0.00    -0.126 OA
ENDBRANCH   5  10
ENDBRANCH   1   7
BRANCH   1  13
ATOM     13  C   UNL     1      -1.317   0.057  -0.064  0.00  0.00    -0.044 A 
ATOM     14  C   UNL     1      -1.472  -1.197  -0.624  0.00  0.00    +0.003 A 
ATOM     15  C   UNL     1      -0.390  -2.052  -0.715  0.00  0.00    +0.000 A 
ATOM     16  C   UNL     1       0.847  -1.655  -0.242  0.00  0.00    +0.001 A 
ATOM     17  C   UNL     1       1.002  -0.403   0.321  0.00  0.00    +0.015 A 
ATOM     18  C   UNL     1      -0.081   0.453   0.413  0.00  0.00    +0.020 A 
ATOM     19 BR   UNL     1       0.131   2.167   1.184  0.00  0.00    -0.050 Br
ENDBRANCH   1  13
BRANCH   1  20
ATOM     20  N   UNL     1      -3.472   0.654  -1.014  0.00  0.00    +0.385 N 
ATOM     21  H   UNL     1      -3.002   0.756  -2.003  0.00  0.00    -0.089 HD
ATOM     22  H   UNL     1      -4.332   1.336  -0.946  0.00  0.00    -0.089 HD
ATOM     23  H   UNL     1      -3.814  -0.382  -0.876  0.00  0.00    -0.089 HD
ENDBRANCH   1  20
TORSDOF 4
