REMARK  Name = ZINC40744468
REMARK  10 active torsions:
REMARK  status: ('A' for Active; 'I' for Inactive)
REMARK    1  A    between atoms: C_1  and  C_2
REMARK    2  A    between atoms: C_2  and  C_3
REMARK    3  A    between atoms: C_2  and  O_4
REMARK    4  A    between atoms: O_4  and  C_5
REMARK    5  A    between atoms: C_6  and  C_13
REMARK    6  A    between atoms: C_13  and  N_14
REMARK    7  A    between atoms: N_14  and  C_15
REMARK    8  A    between atoms: C_15  and  C_16
REMARK    9  A    between atoms: C_16  and  N_17
REMARK   10  A    between atoms: C_18  and  C_20
REMARK                            x       y       z     vdW  Elec       q    Type
REMARK                         _______ _______ _______ _____ _____    ______ ____
ROOT
ATOM      1  N   UNL     1      -0.952   2.440  -1.092  0.00  0.00    +0.383 N 
ATOM      2  H   UNL     1      -0.309   1.774  -0.691  0.00  0.00    -0.085 HD
ATOM      3  H   UNL     1      -0.676   2.644  -2.041  0.00  0.00    -0.085 HD
ENDROOT
BRANCH   1   4
ATOM      4  C   UNL     1      -2.309   1.878  -1.086  0.00  0.00    -0.043 C 
BRANCH   4   6
ATOM      5  C   UNL     1      -1.827  -0.580  -1.214  0.00  0.00    +0.136 A 
ATOM      6  C   UNL     1      -2.312   0.566  -1.828  0.00  0.00    -0.021 A 
ATOM      7  C   UNL     1      -2.798   0.504  -3.120  0.00  0.00    +0.020 A 
ATOM      8  C   UNL     1      -2.801  -0.700  -3.802  0.00  0.00    +0.019 A 
ATOM      9  C   UNL     1      -2.319  -1.844  -3.192  0.00  0.00    +0.034 A 
ATOM     10  C   UNL     1      -1.826  -1.785  -1.902  0.00  0.00    +0.061 A 
ATOM     11 BR   UNL     1      -1.159  -3.348  -1.071  0.00  0.00    -0.046 Br
ATOM     12 BR   UNL     1      -3.467  -0.782  -5.570  0.00  0.00    -0.050 Br
BRANCH   5  13
ATOM     13  O   UNL     1      -1.348  -0.520   0.056  0.00  0.00    -0.488 OA
BRANCH  13  15
ATOM     14  C   UNL     1      -2.461  -2.052   1.558  0.00  0.00    +0.051 C 
ATOM     15  C   UNL     1      -2.305  -0.596   1.115  0.00  0.00    +0.167 C 
ATOM     16  C   UNL     1      -1.826   0.249   2.297  0.00  0.00    +0.051 C 
ENDBRANCH  13  15
ENDBRANCH   5  13
ENDBRANCH   4   6
ENDBRANCH   1   4
BRANCH   1  17
ATOM     17  C   UNL     1      -0.931   3.678  -0.300  0.00  0.00    -0.063 C 
BRANCH  17  18
ATOM     18  C   UNL     1       0.482   4.264  -0.306  0.00  0.00    +0.085 C 
BRANCH  18  19
ATOM     19  N   UNL     1       0.502   5.498   0.483  0.00  0.00    -0.312 N 
ATOM     20  C   UNL     1       1.649   6.192   0.619  0.00  0.00    +0.269 C 
ATOM     21  O   UNL     1       2.667   5.795   0.087  0.00  0.00    -0.268 OA
ATOM     22  H   UNL     1      -0.310   5.815   0.908  0.00  0.00    +0.149 HD
BRANCH  20  23
ATOM     23  C   UNL     1       1.670   7.439   1.417  0.00  0.00    +0.209 A 
ATOM     24  C   UNL     1       2.839   8.296   1.644  0.00  0.00    +0.192 A 
ATOM     25  N   UNL     1       2.473   9.300   2.393  0.00  0.00    -0.033 NA
ATOM     26  O   UNL     1       1.094   9.150   2.680  0.00  0.00    -0.240 OA
ATOM     27  N   UNL     1       0.647   7.970   2.036  0.00  0.00    -0.042 NA
ATOM     28  N   UNL     1       4.117   8.075   1.148  0.00  0.00    -0.339 N 
ATOM     29  H   UNL     1       4.295   7.297   0.597  0.00  0.00    +0.144 HD
ATOM     30  H   UNL     1       4.831   8.700   1.352  0.00  0.00    +0.144 HD
ENDBRANCH  20  23
ENDBRANCH  18  19
ENDBRANCH  17  18
ENDBRANCH   1  17
TORSDOF 8
