REMARK  Name = ZINC39362812
REMARK  10 active torsions:
REMARK  status: ('A' for Active; 'I' for Inactive)
REMARK    1  A    between atoms: C_1  and  C_2
REMARK    2  A    between atoms: C_2  and  O_3
REMARK    3  A    between atoms: O_3  and  C_4
REMARK    4  A    between atoms: C_7  and  N_10
REMARK    5  A    between atoms: C_11  and  C_13
REMARK    6  A    between atoms: C_13  and  S_14
REMARK    7  A    between atoms: S_14  and  C_15
REMARK    8  A    between atoms: C_18  and  C_28
REMARK    9  A    between atoms: N_20  and  C_21
REMARK   10  A    between atoms: C_28  and  C_29
REMARK                            x       y       z     vdW  Elec       q    Type
REMARK                         _______ _______ _______ _____ _____    ______ ____
ROOT
ATOM      1  C   UNL     1      -5.207 -10.215   0.211  0.00  0.00    +0.180 C 
ATOM      2  N   UNL     1      -4.145 -10.945   0.273  0.00  0.00    -0.162 NA
ATOM      3  N   UNL     1      -4.445 -12.254   0.669  0.00  0.00    -0.246 N 
ATOM      4  C   UNL     1      -5.904 -12.298   0.869  0.00  0.00    +0.187 C 
ATOM      5  N   UNL     1      -6.345 -10.928   0.558  0.00  0.00    -0.258 N 
ATOM      6  H   UNL     1      -3.818 -12.985   0.787  0.00  0.00    +0.170 HD
ENDROOT
BRANCH   5   7
ATOM      7  C   UNL     1      -7.656 -10.442   0.602  0.00  0.00    +0.038 A 
ATOM      8  C   UNL     1      -8.603 -10.913  -0.298  0.00  0.00    +0.026 A 
ATOM      9  C   UNL     1      -9.896 -10.431  -0.253  0.00  0.00    +0.040 A 
ATOM     10  C   UNL     1     -10.250  -9.480   0.689  0.00  0.00    +0.124 A 
ATOM     11  C   UNL     1      -9.307  -9.009   1.587  0.00  0.00    +0.040 A 
ATOM     12  C   UNL     1      -8.014  -9.492   1.550  0.00  0.00    +0.026 A 
ATOM     13  F   UNL     1     -11.516  -9.010   0.731  0.00  0.00    -0.205 F 
ENDBRANCH   5   7
BRANCH   1  14
ATOM     14  S   UNL     1      -5.210  -8.515  -0.252  0.00  0.00    -0.079 S 
BRANCH  14  15
ATOM     15  C   UNL     1      -3.466  -8.148  -0.587  0.00  0.00    +0.173 C 
BRANCH  15  17
ATOM     16  N   UNL     1      -2.111  -6.204  -1.298  0.00  0.00    -0.285 N 
ATOM     17  C   UNL     1      -3.326  -6.705  -0.999  0.00  0.00    +0.227 C 
ATOM     18  O   UNL     1      -4.307  -5.994  -1.061  0.00  0.00    -0.275 OA
ATOM     19  H   UNL     1      -1.338  -6.789  -1.322  0.00  0.00    +0.155 HD
BRANCH  16  23
ATOM     20  C   UNL     1      -1.676  -2.140  -2.122  0.00  0.00    +0.121 A 
ATOM     21  C   UNL     1      -2.628  -2.563  -1.207  0.00  0.00    +0.047 A 
ATOM     22  C   UNL     1      -2.773  -3.909  -0.934  0.00  0.00    +0.027 A 
ATOM     23  C   UNL     1      -1.965  -4.838  -1.575  0.00  0.00    +0.034 A 
ATOM     24  C   UNL     1      -1.012  -4.414  -2.492  0.00  0.00    +0.027 A 
ATOM     25  C   UNL     1      -0.872  -3.068  -2.768  0.00  0.00    +0.047 A 
BRANCH  20  26
ATOM     26  O   UNL     1      -1.534  -0.814  -2.391  0.00  0.00    -0.492 OA
BRANCH  26  28
ATOM     27  C   UNL     1      -2.090   1.522  -2.120  0.00  0.00    +0.048 C 
ATOM     28  C   UNL     1      -2.395   0.086  -1.690  0.00  0.00    +0.225 C 
ENDBRANCH  26  28
ENDBRANCH  20  26
ENDBRANCH  16  23
ENDBRANCH  15  17
ENDBRANCH  14  15
ENDBRANCH   1  14
BRANCH   4  29
ATOM     29  C   UNL     1      -6.236 -12.652   2.320  0.00  0.00    +0.097 C 
BRANCH  29  30
ATOM     30  C   UNL     1      -5.686 -14.017   2.643  0.00  0.00    +0.029 A 
ATOM     31  N   UNL     1      -6.408 -15.139   2.338  0.00  0.00    -0.311 N 
ATOM     32  C   UNL     1      -5.926 -16.362   2.622  0.00  0.00    +0.327 A 
ATOM     33  O   UNL     1      -6.585 -17.345   2.343  0.00  0.00    -0.247 OA
ATOM     34  N   UNL     1      -4.726 -16.513   3.211  0.00  0.00    -0.275 N 
ATOM     35  C   UNL     1      -3.983 -15.432   3.528  0.00  0.00    +0.254 A 
ATOM     36  O   UNL     1      -2.897 -15.568   4.061  0.00  0.00    -0.268 OA
ATOM     37  C   UNL     1      -4.477 -14.139   3.230  0.00  0.00    +0.091 A 
ATOM     38  H   UNL     1      -4.393 -17.402   3.409  0.00  0.00    +0.173 HD
ATOM     39  H   UNL     1      -7.276 -15.051   1.913  0.00  0.00    +0.170 HD
ENDBRANCH  29  30
ENDBRANCH   4  29
TORSDOF 9
