REMARK  Name = ZINC64416882
REMARK  4 active torsions:
REMARK  status: ('A' for Active; 'I' for Inactive)
REMARK    1  A    between atoms: C_4  and  C_7
REMARK    2  A    between atoms: C_7  and  C_8
REMARK    3  A    between atoms: C_8  and  N_9
REMARK    4  A    between atoms: C_12  and  C_18
REMARK                            x       y       z     vdW  Elec       q    Type
REMARK                         _______ _______ _______ _____ _____    ______ ____
ROOT
ATOM      1  N   UNL     1       5.450  -1.678   1.382  0.00  0.00    -0.288 N 
ATOM      2  C   UNL     1       5.462  -3.026   1.369  0.00  0.00    +0.260 A 
ATOM      3  O   UNL     1       4.415  -3.650   1.372  0.00  0.00    -0.267 OA
ATOM      4  C   UNL     1       6.692  -3.708   1.353  0.00  0.00    +0.070 A 
ATOM      5  C   UNL     1       7.849  -2.987   1.350  0.00  0.00    +0.257 A 
ATOM      6  N   UNL     1       7.791  -1.617   1.363  0.00  0.00    -0.302 N 
ATOM      7  C   UNL     1       6.603  -0.985   1.373  0.00  0.00    +0.163 A 
ATOM      8  S   UNL     1       6.558   0.726   1.382  0.00  0.00    -0.013 S 
ATOM      9  O   UNL     1       9.043  -3.617   1.335  0.00  0.00    -0.267 OA
ATOM     10  H   UNL     1       8.612  -1.099   1.362  0.00  0.00    +0.171 HD
ENDROOT
BRANCH   4  11
ATOM     11  C   UNL     1       6.731  -5.214   1.340  0.00  0.00    -0.003 C 
ATOM     12  C   UNL     1       6.134  -5.757   2.640  0.00  0.00    +0.097 C 
ATOM     13  C   UNL     1       6.073  -7.272   2.480  0.00  0.00    -0.041 C 
ATOM     14  C   UNL     1       6.701  -7.786   3.528  0.00  0.00    +0.000 A 
ATOM     15  C   UNL     1       6.892  -9.175   3.975  0.00  0.00    +0.030 A 
ATOM     16  C   UNL     1       7.617  -9.345   5.113  0.00  0.00    +0.042 A 
ATOM     17  C   UNL     1       8.164  -8.284   5.843  0.00  0.00    +0.022 A 
ATOM     18  C   UNL     1       8.031  -6.976   5.509  0.00  0.00    +0.027 A 
ATOM     19  C   UNL     1       7.285  -6.670   4.334  0.00  0.00    +0.043 A 
ATOM     20  N   UNL     1       6.983  -5.501   3.802  0.00  0.00    -0.379 N 
ATOM     21 CL   UNL     1       7.876 -10.962   5.690  0.00  0.00    -0.084 Cl
ATOM     22  C   UNL     1       5.472  -7.911   1.251  0.00  0.00    +0.014 C 
ATOM     23  C   UNL     1       6.076  -7.168   0.045  0.00  0.00    -0.077 C 
ATOM     24  N   UNL     1       5.929  -5.720   0.214  0.00  0.00    +0.386 N 
ATOM     25  H   UNL     1       4.958  -5.507   0.381  0.00  0.00    -0.085 HD
ATOM     26  H   UNL     1       7.270  -4.629   4.115  0.00  0.00    +0.160 HD
ATOM     27  H   UNL     1       6.225  -5.258  -0.633  0.00  0.00    -0.085 HD
ENDBRANCH   4  11
BRANCH   1  28
ATOM     28  C   UNL     1       4.171  -0.963   1.399  0.00  0.00    +0.132 C 
BRANCH  28  29
ATOM     29  C   UNL     1       3.711  -0.707  -0.038  0.00  0.00    +0.057 C 
BRANCH  29  33
ATOM     30  C   UNL     1      -0.017   1.378   0.010  0.00  0.00    +0.000 A 
ATOM     31  C   UNL     1       1.171   2.086   0.002  0.00  0.00    +0.000 A 
ATOM     32  C   UNL     1       2.377   1.411  -0.013  0.00  0.00    +0.004 A 
ATOM     33  C   UNL     1       2.396   0.029  -0.020  0.00  0.00    -0.046 A 
ATOM     34  C   UNL     1       1.208  -0.679  -0.012  0.00  0.00    +0.004 A 
ATOM     35  C   UNL     1       0.002  -0.004   0.002  0.00  0.00    +0.000 A 
ENDBRANCH  29  33
ENDBRANCH  28  29
ENDBRANCH   1  28
TORSDOF 4
