REMARK  Name = ZINC36063174
REMARK  7 active torsions:
REMARK  status: ('A' for Active; 'I' for Inactive)
REMARK    1  A    between atoms: C_1  and  C_2
REMARK    2  A    between atoms: C_2  and  C_3
REMARK    3  A    between atoms: C_3  and  C_5
REMARK    4  A    between atoms: C_3  and  N_15
REMARK    5  A    between atoms: C_16  and  C_18
REMARK    6  A    between atoms: C_22  and  C_27
REMARK    7  A    between atoms: C_23  and  N_24
REMARK                            x       y       z     vdW  Elec       q    Type
REMARK                         _______ _______ _______ _____ _____    ______ ____
ROOT
ATOM      1  N   UNL     1      -2.105  -0.148  -1.230  0.00  0.00    -0.308 N 
ATOM      2  C   UNL     1      -2.690   1.062  -1.334  0.00  0.00    +0.247 C 
ATOM      3  O   UNL     1      -2.659   1.833  -0.395  0.00  0.00    -0.270 OA
ATOM      4  H   UNL     1      -2.130  -0.764  -1.980  0.00  0.00    +0.149 HD
ENDROOT
BRANCH   2   5
ATOM      5  C   UNL     1      -3.368   1.451  -2.588  0.00  0.00    +0.067 A 
ATOM      6  C   UNL     1      -3.410   0.565  -3.666  0.00  0.00    +0.015 A 
ATOM      7  C   UNL     1      -4.045   0.933  -4.834  0.00  0.00    +0.001 A 
ATOM      8  C   UNL     1      -4.639   2.179  -4.939  0.00  0.00    +0.005 A 
ATOM      9  C   UNL     1      -4.601   3.062  -3.874  0.00  0.00    -0.020 A 
ATOM     10  C   UNL     1      -3.974   2.703  -2.698  0.00  0.00    +0.141 A 
ATOM     11  C   UNL     1      -5.250   4.416  -3.997  0.00  0.00    +0.046 C 
BRANCH  10  12
ATOM     12  N   UNL     1      -3.939   3.646  -1.559  0.00  0.00    +0.057 N 
ATOM     13  O   UNL     1      -3.028   4.434  -1.454  0.00  0.00    -0.126 OA
ATOM     14  O   UNL     1      -4.822   3.629  -0.733  0.00  0.00    -0.126 OA
ENDBRANCH  10  12
ENDBRANCH   2   5
BRANCH   1  15
ATOM     15  C   UNL     1      -1.433  -0.534   0.013  0.00  0.00    +0.079 C 
BRANCH  15  16
ATOM     16  C   UNL     1      -1.413  -2.059   0.130  0.00  0.00    -0.010 C 
ATOM     17  C   UNL     1      -0.711  -2.461   1.429  0.00  0.00    +0.012 C 
ATOM     18  C   UNL     1      -0.691  -3.987   1.546  0.00  0.00    -0.010 C 
ATOM     19  C   UNL     1      -2.127  -4.516   1.557  0.00  0.00    +0.007 C 
ATOM     20  C   UNL     1      -2.829  -4.114   0.258  0.00  0.00    -0.010 C 
ATOM     21  C   UNL     1      -2.849  -2.589   0.141  0.00  0.00    +0.012 C 
ATOM     22  C   UNL     1      -2.075  -4.707  -0.934  0.00  0.00    +0.007 C 
ATOM     23  C   UNL     1      -0.640  -4.178  -0.945  0.00  0.00    -0.010 C 
ATOM     24  C   UNL     1       0.062  -4.580   0.354  0.00  0.00    +0.007 C 
ATOM     25  C   UNL     1      -0.660  -2.652  -1.062  0.00  0.00    +0.012 C 
ENDBRANCH  15  16
BRANCH  15  27
ATOM     26  C   UNL     1      -0.019   1.526   0.010  0.00  0.00    +0.006 C 
ATOM     27  C   UNL     1       0.002  -0.004   0.002  0.00  0.00    +0.019 C 
ENDBRANCH  15  27
ENDBRANCH   1  15
TORSDOF 5
