REMARK  Name = ZINC51992187
REMARK  7 active torsions:
REMARK  status: ('A' for Active; 'I' for Inactive)
REMARK    1  A    between atoms: C_1  and  S_2
REMARK    2  A    between atoms: S_2  and  N_5
REMARK    3  A    between atoms: N_5  and  C_6
REMARK    4  A    between atoms: C_8  and  C_11
REMARK    5  A    between atoms: C_11  and  C_12
REMARK    6  A    between atoms: N_14  and  C_15
REMARK    7  A    between atoms: C_21  and  O_23
REMARK                            x       y       z     vdW  Elec       q    Type
REMARK                         _______ _______ _______ _____ _____    ______ ____
ROOT
ATOM      1  C   UNL     1       1.766  -3.606  -5.391  0.00  0.00    +0.219 C 
ATOM      2  O   UNL     1       0.848  -2.816  -5.318  0.00  0.00    -0.275 OA
ATOM      3  N   UNL     1       2.225  -3.996  -6.596  0.00  0.00    -0.310 N 
ATOM      4  H   UNL     1       2.959  -4.628  -6.654  0.00  0.00    +0.149 HD
ENDROOT
BRANCH   3   5
ATOM      5  C   UNL     1       1.616  -3.467  -7.819  0.00  0.00    +0.101 C 
ATOM      6  C   UNL     1       2.261  -2.126  -8.171  0.00  0.00    +0.025 C 
ATOM      7  C   UNL     1       1.625  -1.573  -9.448  0.00  0.00    +0.002 C 
ATOM      8  C   UNL     1       1.844  -2.562 -10.595  0.00  0.00    +0.003 C 
ATOM      9  C   UNL     1       1.198  -3.903 -10.243  0.00  0.00    +0.033 C 
ATOM     10  C   UNL     1       1.835  -4.455  -8.966  0.00  0.00    +0.135 C 
BRANCH  10  11
ATOM     11  O   UNL     1       1.232  -5.709  -8.637  0.00  0.00    -0.390 OA
ATOM     12  H   UNL     1       1.332  -6.385  -9.321  0.00  0.00    +0.210 HD
ENDBRANCH  10  11
ENDBRANCH   3   5
BRANCH   1  13
ATOM     13  C   UNL     1       2.393  -4.150  -4.133  0.00  0.00    +0.151 C 
BRANCH  13  16
ATOM     14  C   UNL     1       0.991  -1.745  -1.716  0.00  0.00    +0.201 A 
ATOM     15  N   UNL     1       1.597  -2.252  -2.768  0.00  0.00    -0.227 NA
ATOM     16  C   UNL     1       1.701  -3.559  -2.931  0.00  0.00    +0.059 A 
ATOM     17  C   UNL     1       1.160  -4.345  -1.970  0.00  0.00    +0.072 A 
ATOM     18  S   UNL     1       0.517  -3.110  -0.852  0.00  0.00    -0.057 S 
BRANCH  14  19
ATOM     19  N   UNL     1       0.795  -0.411  -1.394  0.00  0.00    -0.075 NA
BRANCH  19  21
ATOM     20  C   UNL     1      -0.022   1.810   0.012  0.00  0.00    +0.220 C 
ATOM     21  S   UNL     1       0.002  -0.004   0.002  0.00  0.00    +0.061 S 
ATOM     22  O   UNL     1       0.835  -0.488   1.046  0.00  0.00    -0.154 OA
ATOM     23  O   UNL     1      -1.315  -0.510  -0.168  0.00  0.00    -0.154 OA
ENDBRANCH  19  21
ENDBRANCH  14  19
ENDBRANCH  13  16
ENDBRANCH   1  13
TORSDOF 6
