REMARK  Name = ZINC39664873
REMARK  9 active torsions:
REMARK  status: ('A' for Active; 'I' for Inactive)
REMARK    1  A    between atoms: C_1  and  N_2
REMARK    2  A    between atoms: N_2  and  C_3
REMARK    3  A    between atoms: N_2  and  C_4
REMARK    4  A    between atoms: C_4  and  C_5
REMARK    5  A    between atoms: C_5  and  C_7
REMARK    6  A    between atoms: C_5  and  N_13
REMARK    7  A    between atoms: C_14  and  C_16
REMARK    8  A    between atoms: C_27  and  C_29
REMARK    9  A    between atoms: C_32  and  C_34
REMARK                            x       y       z     vdW  Elec       q    Type
REMARK                         _______ _______ _______ _____ _____    ______ ____
ROOT
ATOM      1  C   UNL     1       1.151  -2.658  -2.595  0.00  0.00    +0.100 C 
ATOM      2  C   UNL     1       0.949  -1.515  -3.615  0.00  0.00    +0.121 C 
ATOM      3  N   UNL     1       2.151  -0.662  -3.465  0.00  0.00    -0.294 N 
ATOM      4  C   UNL     1       3.264  -1.623  -3.274  0.00  0.00    +0.115 C 
ATOM      5  C   UNL     1       2.672  -2.728  -2.376  0.00  0.00    -0.004 C 
ATOM      6  C   UNL     1       3.009  -2.455  -0.913  0.00  0.00    -0.010 C 
ATOM      7  C   UNL     1       4.521  -2.586  -0.710  0.00  0.00    -0.082 C 
ATOM      8  N   UNL     1       4.952  -3.937  -1.088  0.00  0.00    +0.379 N 
ATOM      9  C   UNL     1       4.708  -4.159  -2.518  0.00  0.00    -0.082 C 
ATOM     10  C   UNL     1       3.204  -4.094  -2.799  0.00  0.00    -0.010 C 
ATOM     11  C   UNL     1       2.218   0.683  -3.494  0.00  0.00    +0.282 C 
ATOM     12  O   UNL     1       3.291   1.243  -3.355  0.00  0.00    -0.267 OA
ATOM     13  H   UNL     1       5.937  -4.041  -0.896  0.00  0.00    -0.086 HD
ATOM     14  H   UNL     1       4.434  -4.617  -0.551  0.00  0.00    -0.086 HD
ENDROOT
BRANCH  11  15
ATOM     15  C   UNL     1       1.001   1.473  -3.695  0.00  0.00    +0.190 A 
ATOM     16  C   UNL     1       0.929   2.848  -3.751  0.00  0.00    +0.055 A 
ATOM     17  C   UNL     1      -0.416   3.173  -3.954  0.00  0.00    +0.050 A 
ATOM     18  C   UNL     1      -1.109   1.998  -4.013  0.00  0.00    +0.136 A 
ATOM     19  O   UNL     1      -0.245   0.981  -3.862  0.00  0.00    -0.450 OA
BRANCH  18  20
ATOM     20  C   UNL     1      -2.566   1.867  -4.216  0.00  0.00    +0.017 A 
ATOM     21  C   UNL     1      -3.357   3.007  -4.373  0.00  0.00    +0.014 A 
ATOM     22  C   UNL     1      -4.717   2.879  -4.562  0.00  0.00    +0.039 A 
ATOM     23  C   UNL     1      -5.298   1.621  -4.598  0.00  0.00    +0.123 A 
ATOM     24  C   UNL     1      -4.518   0.486  -4.442  0.00  0.00    +0.039 A 
ATOM     25  C   UNL     1      -3.157   0.602  -4.258  0.00  0.00    +0.014 A 
ATOM     26  F   UNL     1      -6.631   1.501  -4.784  0.00  0.00    -0.205 F 
ENDBRANCH  18  20
ENDBRANCH  11  15
BRANCH   1  28
ATOM     27  N   UNL     1       0.047  -3.332  -0.486  0.00  0.00    -0.310 N 
ATOM     28  C   UNL     1       0.449  -2.336  -1.300  0.00  0.00    +0.219 C 
ATOM     29  O   UNL     1       0.246  -1.181  -0.992  0.00  0.00    -0.275 OA
ATOM     30  H   UNL     1       0.272  -4.252  -0.697  0.00  0.00    +0.149 HD
BRANCH  27  31
ATOM     31  C   UNL     1      -0.729  -3.026   0.718  0.00  0.00    +0.087 C 
BRANCH  31  32
ATOM     32  C   UNL     1      -0.225  -3.861   1.867  0.00  0.00    -0.029 A 
ATOM     33  C   UNL     1       0.133  -5.180   1.657  0.00  0.00    +0.005 A 
ATOM     34  C   UNL     1       0.595  -5.946   2.711  0.00  0.00    +0.000 A 
ATOM     35  C   UNL     1       0.700  -5.393   3.974  0.00  0.00    +0.000 A 
ATOM     36  C   UNL     1       0.342  -4.074   4.183  0.00  0.00    +0.000 A 
ATOM     37  C   UNL     1      -0.116  -3.307   3.128  0.00  0.00    +0.005 A 
ENDBRANCH  31  32
BRANCH  31  38
ATOM     38  C   UNL     1      -2.205  -3.341   0.467  0.00  0.00    -0.052 C 
BRANCH  38  40
ATOM     39  C   UNL     1      -4.031  -3.030  -1.058  0.00  0.00    -0.097 C 
ATOM     40  N   UNL     1      -2.673  -2.592  -0.707  0.00  0.00    +0.377 N 
ATOM     41  C   UNL     1      -2.686  -1.156  -0.398  0.00  0.00    -0.097 C 
ATOM     42  H   UNL     1      -2.053  -2.763  -1.484  0.00  0.00    -0.083 HD
ENDBRANCH  38  40
ENDBRANCH  31  38
ENDBRANCH  27  31
ENDBRANCH   1  28
TORSDOF 7
