REMARK  Name = ZINC37936674
REMARK  7 active torsions:
REMARK  status: ('A' for Active; 'I' for Inactive)
REMARK    1  A    between atoms: C_1  and  C_2
REMARK    2  A    between atoms: C_6  and  N_8
REMARK    3  A    between atoms: N_8  and  C_9
REMARK    4  A    between atoms: C_9  and  C_11
REMARK    5  A    between atoms: C_9  and  C_13
REMARK    6  A    between atoms: C_16  and  O_20
REMARK    7  A    between atoms: C_17  and  O_19
REMARK                            x       y       z     vdW  Elec       q    Type
REMARK                         _______ _______ _______ _____ _____    ______ ____
ROOT
ATOM      1  C   UNL     1       0.071  -4.261   2.379  0.00  0.00    +0.205 C 
ENDROOT
BRANCH   1   2
ATOM      2  C   UNL     1       0.684  -4.765   3.660  0.00  0.00    -0.010 A 
ATOM      3  C   UNL     1       0.383  -4.146   4.859  0.00  0.00    +0.010 A 
ATOM      4  C   UNL     1       0.944  -4.604   6.037  0.00  0.00    +0.049 A 
ATOM      5  C   UNL     1       1.808  -5.687   6.018  0.00  0.00    +0.158 A 
ATOM      6  C   UNL     1       2.111  -6.311   4.811  0.00  0.00    +0.159 A 
ATOM      7  C   UNL     1       1.542  -5.849   3.635  0.00  0.00    +0.055 A 
BRANCH   6   8
ATOM      8  O   UNL     1       2.959  -7.373   4.787  0.00  0.00    -0.503 OA
ATOM      9  H   UNL     1       2.520  -8.229   4.891  0.00  0.00    +0.292 HD
ENDBRANCH   6   8
BRANCH   5  10
ATOM     10  O   UNL     1       2.361  -6.139   7.175  0.00  0.00    -0.503 OA
ATOM     11  H   UNL     1       1.837  -6.818   7.622  0.00  0.00    +0.292 HD
ENDBRANCH   5  10
ENDBRANCH   1   2
BRANCH   1  12
ATOM     12  N   UNL     1       0.051  -2.796   2.390  0.00  0.00    -0.325 N 
ATOM     13  H   UNL     1       0.049  -2.318   3.234  0.00  0.00    +0.148 HD
BRANCH  12  19
ATOM     14  C   UNL     1      -0.018   1.503   0.010  0.00  0.00    +0.044 C 
ATOM     15  C   UNL     1       0.002  -0.004   0.002  0.00  0.00    -0.049 A 
ATOM     16  C   UNL     1       0.006  -0.688  -1.200  0.00  0.00    +0.003 A 
ATOM     17  C   UNL     1       0.024  -2.071  -1.212  0.00  0.00    +0.002 A 
ATOM     18  C   UNL     1       0.039  -2.773  -0.023  0.00  0.00    +0.023 A 
ATOM     19  C   UNL     1       0.036  -2.089   1.186  0.00  0.00    +0.029 A 
ATOM     20  C   UNL     1       0.023  -0.700   1.194  0.00  0.00    +0.026 A 
ENDBRANCH  12  19
ENDBRANCH   1  12
BRANCH   1  21
ATOM     21  C   UNL     1      -1.306  -4.769   2.261  0.00  0.00    +0.090 C 
ATOM     22  N   UNL     1      -2.368  -5.162   2.171  0.00  0.00    -0.194 NA
ENDBRANCH   1  21
TORSDOF 6
