REMARK  Name = ZINC39868060
REMARK  7 active torsions:
REMARK  status: ('A' for Active; 'I' for Inactive)
REMARK    1  A    between atoms: C_4  and  C_7
REMARK    2  A    between atoms: C_8  and  C_9
REMARK    3  A    between atoms: C_9  and  O_11
REMARK    4  A    between atoms: O_11  and  C_12
REMARK    5  A    between atoms: C_15  and  C_18
REMARK    6  A    between atoms: C_19  and  C_20
REMARK    7  A    between atoms: C_19  and  C_22
REMARK                            x       y       z     vdW  Elec       q    Type
REMARK                         _______ _______ _______ _____ _____    ______ ____
ROOT
ATOM      1  C   UNL     1       6.151  -4.825  -0.223  0.00  0.00    +0.132 A 
ATOM      2  C   UNL     1       7.356  -4.155  -0.045  0.00  0.00    +0.047 A 
ATOM      3  C   UNL     1       8.543  -4.851  -0.060  0.00  0.00    +0.011 A 
ATOM      4  C   UNL     1       8.535  -6.239  -0.254  0.00  0.00    -0.023 A 
ATOM      5  C   UNL     1       7.318  -6.909  -0.432  0.00  0.00    +0.011 A 
ATOM      6  C   UNL     1       6.137  -6.203  -0.410  0.00  0.00    +0.047 A 
ENDROOT
BRANCH   4   7
ATOM      7  C   UNL     1       9.797  -6.987  -0.272  0.00  0.00    +0.030 C 
ATOM      8  C   UNL     1       9.826  -8.284   0.149  0.00  0.00    +0.096 C 
BRANCH   8   9
ATOM      9  C   UNL     1      11.060  -9.083  -0.007  0.00  0.00    +0.175 A 
ATOM     10  N   UNL     1      12.130  -8.508  -0.558  0.00  0.00    -0.188 NA
ATOM     11  C   UNL     1      13.261  -9.172  -0.723  0.00  0.00    +0.281 A 
ATOM     12  O   UNL     1      14.339  -8.576  -1.283  0.00  0.00    -0.265 OA
ATOM     13  C   UNL     1      13.317 -10.522  -0.299  0.00  0.00    +0.067 A 
ATOM     14  C   UNL     1      14.475 -11.295  -0.438  0.00  0.00    +0.015 A 
ATOM     15  C   UNL     1      14.473 -12.591  -0.012  0.00  0.00    +0.001 A 
ATOM     16  C   UNL     1      13.335 -13.155   0.558  0.00  0.00    +0.002 A 
ATOM     17  C   UNL     1      12.191 -12.430   0.707  0.00  0.00    +0.028 A 
ATOM     18  C   UNL     1      12.157 -11.094   0.280  0.00  0.00    +0.079 A 
ATOM     19  N   UNL     1      11.059 -10.338   0.409  0.00  0.00    -0.226 NA
ENDBRANCH   8   9
BRANCH   8  20
ATOM     20  C   UNL     1       8.662  -8.871   0.742  0.00  0.00    +0.103 C 
ATOM     21  N   UNL     1       7.739  -9.337   1.212  0.00  0.00    -0.191 NA
ENDBRANCH   8  20
ENDBRANCH   4   7
BRANCH   1  22
ATOM     22  O   UNL     1       4.983  -4.133  -0.207  0.00  0.00    -0.423 OA
BRANCH  22  23
ATOM     23  C   UNL     1       4.663  -3.407  -1.298  0.00  0.00    +0.337 C 
ATOM     24  O   UNL     1       5.451  -3.313  -2.220  0.00  0.00    -0.245 OA
BRANCH  23  26
ATOM     25  C   UNL     1       3.047  -2.007  -2.464  0.00  0.00    +0.015 C 
ATOM     26  C   UNL     1       3.368  -2.733  -1.373  0.00  0.00    +0.092 C 
BRANCH  25  30
ATOM     27  C   UNL     1      -0.711  -0.051  -2.682  0.00  0.00    +0.000 A 
ATOM     28  C   UNL     1       0.184   0.058  -3.732  0.00  0.00    +0.001 A 
ATOM     29  C   UNL     1       1.407  -0.574  -3.669  0.00  0.00    +0.008 A 
ATOM     30  C   UNL     1       1.743  -1.328  -2.540  0.00  0.00    -0.025 A 
ATOM     31  C   UNL     1       0.834  -1.433  -1.482  0.00  0.00    +0.008 A 
ATOM     32  C   UNL     1      -0.386  -0.795  -1.561  0.00  0.00    +0.001 A 
ENDBRANCH  25  30
ENDBRANCH  23  26
ENDBRANCH  22  23
ENDBRANCH   1  22
TORSDOF 7
