REMARK  Name = ZINC65691521
REMARK  5 active torsions:
REMARK  status: ('A' for Active; 'I' for Inactive)
REMARK    1  A    between atoms: C_4  and  C_10
REMARK    2  A    between atoms: C_6  and  N_7
REMARK    3  A    between atoms: N_11  and  C_12
REMARK    4  A    between atoms: C_12  and  C_13
REMARK    5  A    between atoms: C_15  and  C_18
REMARK                            x       y       z     vdW  Elec       q    Type
REMARK                         _______ _______ _______ _____ _____    ______ ____
ROOT
ATOM      1  C   UNL     1       3.613  -0.701  -0.036  0.00  0.00    +0.090 C 
ATOM      2  N   UNL     1       4.769  -0.031  -0.146  0.00  0.00    -0.382 N 
ATOM      3  H   UNL     1       4.770   0.939  -0.141  0.00  0.00    +0.160 HD
ENDROOT
BRANCH   1   7
ATOM      4  C   UNL     1      -0.017   1.387   0.008  0.00  0.00    +0.036 A 
ATOM      5  C   UNL     1       1.134   2.115   0.009  0.00  0.00    +0.054 A 
ATOM      6  C   UNL     1       2.378   1.463  -0.005  0.00  0.00    +0.188 A 
ATOM      7  C   UNL     1       2.401  -0.005  -0.021  0.00  0.00    +0.039 A 
ATOM      8  C   UNL     1       1.171  -0.699  -0.022  0.00  0.00    +0.045 A 
ATOM      9  C   UNL     1       0.002  -0.004  -0.008  0.00  0.00    +0.127 A 
ATOM     10  O   UNL     1       3.420   2.104  -0.004  0.00  0.00    -0.287 OA
BRANCH   9  11
ATOM     11  N   UNL     1      -1.280  -0.745  -0.009  0.00  0.00    +0.056 N 
ATOM     12  O   UNL     1      -2.327  -0.141   0.004  0.00  0.00    -0.126 OA
ATOM     13  O   UNL     1      -1.279  -1.954  -0.022  0.00  0.00    -0.126 OA
ENDBRANCH   9  11
ENDBRANCH   1   7
BRANCH   2  14
ATOM     14  C   UNL     1       6.031  -0.763  -0.272  0.00  0.00    +0.192 C 
BRANCH  14  15
ATOM     15  C   UNL     1       6.638  -0.488  -1.624  0.00  0.00    +0.191 A 
ATOM     16  N   UNL     1       6.410  -1.194  -2.733  0.00  0.00    -0.190 NA
ATOM     17  C   UNL     1       7.095  -0.688  -3.737  0.00  0.00    +0.259 A 
ATOM     18  O   UNL     1       7.785   0.370  -3.276  0.00  0.00    -0.333 OA
ATOM     19  N   UNL     1       7.465   0.481  -1.897  0.00  0.00    -0.059 NA
BRANCH  17  20
ATOM     20  C   UNL     1       7.105  -1.193  -5.122  0.00  0.00    +0.046 A 
ATOM     21  C   UNL     1       7.900  -0.562  -6.146  0.00  0.00    +0.021 A 
ATOM     22  C   UNL     1       7.821  -1.120  -7.372  0.00  0.00    +0.046 A 
ATOM     23  S   UNL     1       6.689  -2.471  -7.123  0.00  0.00    -0.104 S 
ATOM     24  C   UNL     1       6.366  -2.281  -5.487  0.00  0.00    +0.058 A 
ENDBRANCH  17  20
ENDBRANCH  14  15
ENDBRANCH   2  14
TORSDOF 5
