REMARK  Name = ZINC42986616
REMARK  9 active torsions:
REMARK  status: ('A' for Active; 'I' for Inactive)
REMARK    1  A    between atoms: C_1  and  C_2
REMARK    2  A    between atoms: C_9  and  C_11
REMARK    3  A    between atoms: C_11  and  C_13
REMARK    4  A    between atoms: C_11  and  S_16
REMARK    5  A    between atoms: C_13  and  C_14
REMARK    6  A    between atoms: C_13  and  C_15
REMARK    7  A    between atoms: S_16  and  C_17
REMARK    8  A    between atoms: N_21  and  C_22
REMARK    9  A    between atoms: C_25  and  O_28
REMARK                            x       y       z     vdW  Elec       q    Type
REMARK                         _______ _______ _______ _____ _____    ______ ____
ROOT
ATOM      1  S   UNL     1       3.075   1.221   3.997  0.00  0.00    -0.071 S 
ENDROOT
BRANCH   1   2
ATOM      2  C   UNL     1       4.298   0.422   4.982  0.00  0.00    +0.215 A 
ATOM      3  N   UNL     1       4.598  -0.859   4.969  0.00  0.00    -0.101 NA
ATOM      4  N   UNL     1       5.537  -1.110   5.809  0.00  0.00    -0.022 NA
ATOM      5  N   UNL     1       5.901  -0.031   6.411  0.00  0.00    -0.038 NA
ATOM      6  N   UNL     1       5.112   1.011   5.893  0.00  0.00    -0.187 N 
BRANCH   6   7
ATOM      7  C   UNL     1       5.156   2.369   6.244  0.00  0.00    +0.070 A 
ATOM      8  C   UNL     1       4.921   3.343   5.283  0.00  0.00    +0.031 A 
ATOM      9  C   UNL     1       4.964   4.679   5.629  0.00  0.00    +0.047 A 
ATOM     10  C   UNL     1       5.241   5.048   6.937  0.00  0.00    +0.117 A 
ATOM     11  C   UNL     1       5.476   4.076   7.898  0.00  0.00    +0.047 A 
ATOM     12  C   UNL     1       5.428   2.739   7.554  0.00  0.00    +0.031 A 
BRANCH  10  13
ATOM     13  O   UNL     1       5.283   6.364   7.277  0.00  0.00    -0.507 OA
ATOM     14  H   UNL     1       4.432   6.723   7.565  0.00  0.00    +0.292 HD
ENDBRANCH  10  13
ENDBRANCH   6   7
ENDBRANCH   1   2
BRANCH   1  15
ATOM     15  C   UNL     1       2.255  -0.141   3.125  0.00  0.00    +0.143 C 
BRANCH  15  23
ATOM     16  C   UNL     1      -0.031   1.764   0.188  0.00  0.00    +0.028 C 
ATOM     17  C   UNL     1       0.262   0.294  -0.123  0.00  0.00    +0.073 C 
ATOM     18  C   UNL     1       1.044   0.193  -1.436  0.00  0.00    +0.022 C 
ATOM     19  C   UNL     1       1.454  -1.263  -1.669  0.00  0.00    +0.003 C 
ATOM     20  C   UNL     1       2.362  -1.728  -0.529  0.00  0.00    +0.019 C 
ATOM     21  C   UNL     1       1.594  -1.649   0.794  0.00  0.00    +0.108 C 
ATOM     22  N   UNL     1       1.069  -0.286   0.959  0.00  0.00    -0.298 N 
ATOM     23  C   UNL     1       1.327   0.419   2.078  0.00  0.00    +0.229 C 
ATOM     24  O   UNL     1       0.811   1.504   2.243  0.00  0.00    -0.274 OA
ENDBRANCH  15  23
BRANCH  15  25
ATOM     25  C   UNL     1       1.451  -0.976   4.125  0.00  0.00    +0.005 C 
ATOM     26  C   UNL     1       0.370  -0.103   4.765  0.00  0.00    +0.009 C 
ATOM     27  C   UNL     1       0.793  -2.150   3.396  0.00  0.00    +0.009 C 
ENDBRANCH  15  25
ENDBRANCH   1  15
TORSDOF 6
