REMARK  Name = ZINC40744395
REMARK  9 active torsions:
REMARK  status: ('A' for Active; 'I' for Inactive)
REMARK    1  A    between atoms: C_1  and  C_2
REMARK    2  A    between atoms: C_3  and  C_20
REMARK    3  A    between atoms: N_10  and  C_11
REMARK    4  A    between atoms: C_11  and  C_12
REMARK    5  A    between atoms: C_20  and  N_21
REMARK    6  A    between atoms: N_21  and  C_22
REMARK    7  A    between atoms: C_22  and  C_23
REMARK    8  A    between atoms: C_23  and  N_24
REMARK    9  A    between atoms: C_25  and  C_27
REMARK                            x       y       z     vdW  Elec       q    Type
REMARK                         _______ _______ _______ _____ _____    ______ ____
ROOT
ATOM      1  C   UNL     1      -0.132   1.426  -0.039  0.00  0.00    +0.064 C 
ATOM      2  C   UNL     1      -0.051  -0.078  -0.005  0.00  0.00    +0.018 A 
ATOM      3  C   UNL     1      -0.033  -0.874  -1.086  0.00  0.00    -0.036 A 
ATOM      4  C   UNL     1       0.053  -2.253  -0.601  0.00  0.00    +0.001 A 
ATOM      5  C   UNL     1       0.105  -3.501  -1.227  0.00  0.00    +0.010 A 
ATOM      6  C   UNL     1       0.184  -4.636  -0.471  0.00  0.00    +0.001 A 
ATOM      7  C   UNL     1       0.212  -4.560   0.915  0.00  0.00    +0.002 A 
ATOM      8  C   UNL     1       0.161  -3.340   1.553  0.00  0.00    +0.026 A 
ATOM      9  C   UNL     1       0.080  -2.171   0.803  0.00  0.00    +0.050 A 
ATOM     10  N   UNL     1       0.021  -0.835   1.133  0.00  0.00    -0.339 N 
ENDROOT
BRANCH  10  11
ATOM     11  C   UNL     1       0.031  -0.304   2.498  0.00  0.00    +0.158 C 
BRANCH  11  12
ATOM     12  C   UNL     1      -1.384  -0.038   2.944  0.00  0.00    -0.009 A 
ATOM     13  C   UNL     1      -1.950   1.207   2.742  0.00  0.00    +0.008 A 
ATOM     14  C   UNL     1      -3.247   1.451   3.151  0.00  0.00    +0.020 A 
ATOM     15  C   UNL     1      -3.981   0.449   3.761  0.00  0.00    +0.042 A 
ATOM     16  C   UNL     1      -3.416  -0.797   3.963  0.00  0.00    +0.040 A 
ATOM     17  C   UNL     1      -2.118  -1.042   3.550  0.00  0.00    +0.047 A 
ATOM     18 CL   UNL     1      -1.410  -2.608   3.797  0.00  0.00    -0.083 Cl
ATOM     19 CL   UNL     1      -5.611   0.757   4.275  0.00  0.00    -0.083 Cl
ENDBRANCH  11  12
ENDBRANCH  10  11
BRANCH   3  20
ATOM     20  C   UNL     1      -0.090  -0.431  -2.525  0.00  0.00    -0.044 C 
BRANCH  20  21
ATOM     21  N   UNL     1       1.274  -0.213  -3.025  0.00  0.00    +0.383 N 
ATOM     22  H   UNL     1       1.725   0.500  -2.471  0.00  0.00    -0.085 HD
ATOM     23  H   UNL     1       1.799  -1.073  -2.957  0.00  0.00    -0.085 HD
BRANCH  21  24
ATOM     24  C   UNL     1       1.219   0.218  -4.428  0.00  0.00    -0.063 C 
BRANCH  24  25
ATOM     25  C   UNL     1       2.640   0.445  -4.948  0.00  0.00    +0.085 C 
BRANCH  25  26
ATOM     26  N   UNL     1       2.585   0.875  -6.347  0.00  0.00    -0.312 N 
ATOM     27  C   UNL     1       3.724   1.136  -7.018  0.00  0.00    +0.269 C 
ATOM     28  O   UNL     1       4.798   1.014  -6.462  0.00  0.00    -0.268 OA
ATOM     29  H   UNL     1       1.728   0.972  -6.792  0.00  0.00    +0.149 HD
BRANCH  27  30
ATOM     30  C   UNL     1       3.668   1.571  -8.433  0.00  0.00    +0.209 A 
ATOM     31  C   UNL     1       4.823   1.881  -9.283  0.00  0.00    +0.192 A 
ATOM     32  N   UNL     1       4.383   2.227 -10.462  0.00  0.00    -0.033 NA
ATOM     33  O   UNL     1       2.969   2.160 -10.436  0.00  0.00    -0.240 OA
ATOM     34  N   UNL     1       2.582   1.738  -9.140  0.00  0.00    -0.042 NA
ATOM     35  N   UNL     1       6.156   1.818  -8.899  0.00  0.00    -0.339 N 
ATOM     36  H   UNL     1       6.388   1.549  -7.997  0.00  0.00    +0.144 HD
ATOM     37  H   UNL     1       6.854   2.043  -9.533  0.00  0.00    +0.144 HD
ENDBRANCH  27  30
ENDBRANCH  25  26
ENDBRANCH  24  25
ENDBRANCH  21  24
ENDBRANCH  20  21
ENDBRANCH   3  20
TORSDOF 8
