REMARK  Name = ZINC44322752
REMARK  10 active torsions:
REMARK  status: ('A' for Active; 'I' for Inactive)
REMARK    1  A    between atoms: C_1  and  C_2
REMARK    2  A    between atoms: C_4  and  C_33
REMARK    3  A    between atoms: C_5  and  C_9
REMARK    4  A    between atoms: C_6  and  O_8
REMARK    5  A    between atoms: C_9  and  CA_10
REMARK    6  A    between atoms: CA_10  and  C_12
REMARK    7  A    between atoms: CA_10  and  N_15
REMARK    8  A    between atoms: C_16  and  O_18
REMARK    9  A    between atoms: O_18  and  C_19
REMARK   10  A    between atoms: C_19  and  C_20
REMARK                            x       y       z     vdW  Elec       q    Type
REMARK                         _______ _______ _______ _____ _____    ______ ____
ROOT
ATOM      1  N   UNL     1       2.238  -4.288  -0.870  0.00  0.00    -0.267 N 
ATOM      2  C   UNL     1       3.558  -4.063  -0.720  0.00  0.00    +0.401 C 
ATOM      3  O   UNL     1       4.084  -4.234   0.362  0.00  0.00    -0.226 OA
ATOM      4  H   UNL     1       1.818  -4.151  -1.734  0.00  0.00    +0.153 HD
ENDROOT
BRANCH   1   5
ATOM      5  CA  UNL     1       1.437  -4.738   0.271  0.00  0.00    +0.193 C 
BRANCH   5   6
ATOM      6  C   UNL     1       1.454  -6.244   0.334  0.00  0.00    +0.376 C 
ATOM      7  O   UNL     1       1.566  -6.895  -0.691  0.00  0.00    -0.244 OA
ATOM      8  OXT UNL     1       1.355  -6.811   1.409  0.00  0.00    -0.244 OA
ENDBRANCH   5   6
BRANCH   5   9
ATOM      9  C   UNL     1      -0.004  -4.251   0.107  0.00  0.00    +0.073 C 
BRANCH   9  14
ATOM     10  C   UNL     1      -0.131   1.522   0.415  0.00  0.00    +0.044 C 
ATOM     11  C   UNL     1      -0.098   0.017   0.332  0.00  0.00    -0.047 A 
ATOM     12  C   UNL     1      -0.132  -0.740   1.488  0.00  0.00    +0.007 A 
ATOM     13  C   UNL     1      -0.102  -2.120   1.415  0.00  0.00    -0.043 A 
ATOM     14  C   UNL     1      -0.038  -2.747   0.186  0.00  0.00    -0.001 A 
ATOM     15  C   UNL     1      -0.004  -1.990  -0.976  0.00  0.00    +0.121 A 
ATOM     16  C   UNL     1      -0.040  -0.605  -0.900  0.00  0.00    +0.049 A 
ATOM     17  C   UNL     1      -0.139  -2.942   2.678  0.00  0.00    +0.044 C 
BRANCH  15  18
ATOM     18  O   UNL     1       0.060  -2.604  -2.187  0.00  0.00    -0.506 OA
ATOM     19  H   UNL     1      -0.804  -2.799  -2.575  0.00  0.00    +0.292 HD
ENDBRANCH  15  18
ENDBRANCH   9  14
ENDBRANCH   5   9
ENDBRANCH   1   5
BRANCH   2  20
ATOM     20  O   UNL     1       4.294  -3.649  -1.768  0.00  0.00    -0.449 OA
BRANCH  20  21
ATOM     21  C   UNL     1       5.687  -3.430  -1.537  0.00  0.00    +0.246 C 
BRANCH  21  22
ATOM     22  C   UNL     1       6.353  -2.967  -2.834  0.00  0.00    +0.088 C 
ATOM     23  C   UNL     1       6.369  -4.092  -3.840  0.00  0.00    -0.029 A 
ATOM     24  C   UNL     1       5.358  -4.811  -4.441  0.00  0.00    +0.005 A 
ATOM     25  C   UNL     1       5.663  -5.811  -5.348  0.00  0.00    +0.000 A 
ATOM     26  C   UNL     1       6.983  -6.091  -5.653  0.00  0.00    +0.001 A 
ATOM     27  C   UNL     1       8.001  -5.376  -5.057  0.00  0.00    +0.009 A 
ATOM     28  C   UNL     1       7.701  -4.366  -4.141  0.00  0.00    -0.014 A 
ATOM     29  C   UNL     1       8.580  -3.457  -3.365  0.00  0.00    -0.014 A 
ATOM     30  C   UNL     1       7.798  -2.614  -2.579  0.00  0.00    -0.029 A 
ATOM     31  C   UNL     1       8.391  -1.675  -1.764  0.00  0.00    +0.005 A 
ATOM     32  C   UNL     1       9.770  -1.564  -1.723  0.00  0.00    +0.000 A 
ATOM     33  C   UNL     1      10.556  -2.396  -2.500  0.00  0.00    +0.001 A 
ATOM     34  C   UNL     1       9.970  -3.340  -3.319  0.00  0.00    +0.009 A 
ENDBRANCH  21  22
ENDBRANCH  20  21
ENDBRANCH   2  20
TORSDOF 8
