REMARK  Name = ZINC53112235
REMARK  7 active torsions:
REMARK  status: ('A' for Active; 'I' for Inactive)
REMARK    1  A    between atoms: C_1  and  C_2
REMARK    2  A    between atoms: C_7  and  C_9
REMARK    3  A    between atoms: C_7  and  N_11
REMARK    4  A    between atoms: C_9  and  O_10
REMARK    5  A    between atoms: C_12  and  C_14
REMARK    6  A    between atoms: C_14  and  N_15
REMARK    7  A    between atoms: C_17  and  N_20
REMARK                            x       y       z     vdW  Elec       q    Type
REMARK                         _______ _______ _______ _____ _____    ______ ____
ROOT
ATOM      1  N   UNL     1      -0.612  -2.545   1.218  0.00  0.00    -0.306 N 
ATOM      2  C   UNL     1      -1.480  -2.161   2.175  0.00  0.00    +0.235 C 
ATOM      3  O   UNL     1      -1.151  -1.330   2.995  0.00  0.00    -0.274 OA
ATOM      4  H   UNL     1      -0.898  -3.153   0.519  0.00  0.00    +0.149 HD
ENDROOT
BRANCH   1  10
ATOM      5  C   UNL     1       0.083   1.366  -0.421  0.00  0.00    +0.007 C 
ATOM      6  C   UNL     1       0.093  -0.155  -0.259  0.00  0.00    -0.012 C 
ATOM      7  C   UNL     1       0.879  -0.786  -1.410  0.00  0.00    +0.003 C 
ATOM      8  C   UNL     1       0.889  -2.307  -1.247  0.00  0.00    +0.002 C 
ATOM      9  C   UNL     1       1.550  -2.673   0.083  0.00  0.00    +0.028 C 
ATOM     10  C   UNL     1       0.764  -2.043   1.234  0.00  0.00    +0.058 C 
ATOM     11  C   UNL     1       0.754  -0.521   1.071  0.00  0.00    +0.031 C 
BRANCH  10  12
ATOM     12  C   UNL     1       1.425  -2.409   2.564  0.00  0.00    +0.181 C 
BRANCH  12  13
ATOM     13  O   UNL     1       1.322  -3.819   2.775  0.00  0.00    -0.393 OA
ATOM     14  H   UNL     1       1.721  -4.123   3.602  0.00  0.00    +0.209 HD
ENDBRANCH  12  13
ENDBRANCH  10  12
ENDBRANCH   1  10
BRANCH   2  15
ATOM     15  C   UNL     1      -2.860  -2.765   2.226  0.00  0.00    +0.239 C 
BRANCH  15  16
ATOM     16  N   UNL     1      -3.605  -2.188   3.348  0.00  0.00    -0.261 N 
ATOM     17  C   UNL     1      -4.819  -1.580   3.275  0.00  0.00    +0.131 A 
ATOM     18  C   UNL     1      -5.156  -1.187   4.529  0.00  0.00    +0.063 A 
ATOM     19  C   UNL     1      -4.118  -1.567   5.392  0.00  0.00    +0.157 A 
ATOM     20  N   UNL     1      -3.195  -2.169   4.687  0.00  0.00    -0.177 NA
BRANCH  18  21
ATOM     21  N   UNL     1      -6.338  -0.518   4.899  0.00  0.00    -0.356 N 
ATOM     22  H   UNL     1      -7.001  -0.297   4.226  0.00  0.00    +0.142 HD
ATOM     23  H   UNL     1      -6.490  -0.278   5.826  0.00  0.00    +0.142 HD
ENDBRANCH  18  21
ENDBRANCH  15  16
ENDBRANCH   2  15
TORSDOF 6
