REMARK  Name = ZINC50670212
REMARK  5 active torsions:
REMARK  status: ('A' for Active; 'I' for Inactive)
REMARK    1  A    between atoms: C_1  and  C_2
REMARK    2  A    between atoms: N_11  and  S_12
REMARK    3  A    between atoms: S_12  and  C_15
REMARK    4  A    between atoms: C_20  and  N_21
REMARK    5  A    between atoms: N_21  and  C_22
REMARK                            x       y       z     vdW  Elec       q    Type
REMARK                         _______ _______ _______ _____ _____    ______ ____
ROOT
ATOM      1  S   UNL     1       1.748   0.530   1.958  0.00  0.00    +0.063 S 
ATOM      2  O   UNL     1       0.977   1.569   2.545  0.00  0.00    -0.153 OA
ATOM      3  O   UNL     1       2.533  -0.366   2.733  0.00  0.00    -0.153 OA
ENDROOT
BRANCH   1  13
ATOM      4  C   UNL     1      -0.544   1.687   0.729  0.00  0.00    +0.031 C 
ATOM      5  C   UNL     1      -0.384   0.226   0.306  0.00  0.00    +0.107 C 
ATOM      6  C   UNL     1      -1.673  -0.541   0.597  0.00  0.00    -0.019 A 
ATOM      7  C   UNL     1      -2.937  -0.073   0.244  0.00  0.00    +0.013 A 
ATOM      8  C   UNL     1      -4.035  -0.808   0.530  0.00  0.00    +0.046 A 
ATOM      9  S   UNL     1      -3.323  -2.236   1.333  0.00  0.00    -0.101 S 
ATOM     10  C   UNL     1      -1.622  -1.745   1.230  0.00  0.00    -0.004 A 
ATOM     11  C   UNL     1      -0.415  -2.473   1.724  0.00  0.00    +0.060 C 
ATOM     12  C   UNL     1       0.832  -1.865   1.063  0.00  0.00    +0.115 C 
ATOM     13  N   UNL     1       0.697  -0.400   1.079  0.00  0.00    -0.169 NA
ENDBRANCH   1  13
BRANCH   1  14
ATOM     14  C   UNL     1       2.844   1.300   0.814  0.00  0.00    +0.126 A 
ATOM     15  C   UNL     1       2.841   2.674   0.672  0.00  0.00    +0.030 A 
ATOM     16  C   UNL     1       3.701   3.280  -0.226  0.00  0.00    +0.002 A 
ATOM     17  C   UNL     1       4.566   2.513  -0.985  0.00  0.00    +0.002 A 
ATOM     18  C   UNL     1       4.574   1.139  -0.848  0.00  0.00    +0.025 A 
ATOM     19  C   UNL     1       3.716   0.527   0.058  0.00  0.00    +0.054 A 
BRANCH  19  20
ATOM     20  N   UNL     1       3.725  -0.862   0.203  0.00  0.00    -0.345 N 
ATOM     21  C   UNL     1       4.551  -1.685  -0.684  0.00  0.00    +0.125 C 
ATOM     22  H   UNL     1       3.184  -1.281   0.890  0.00  0.00    +0.146 HD
ENDBRANCH  19  20
ENDBRANCH   1  14
TORSDOF 3
