REMARK  Name = ZINC48552733
REMARK  8 active torsions:
REMARK  status: ('A' for Active; 'I' for Inactive)
REMARK    1  A    between atoms: C_1  and  C_2
REMARK    2  A    between atoms: C_5  and  N_27
REMARK    3  A    between atoms: C_7  and  S_8
REMARK    4  A    between atoms: S_8  and  N_11
REMARK    5  A    between atoms: N_11  and  N_12
REMARK    6  A    between atoms: N_12  and  C_13
REMARK    7  A    between atoms: C_14  and  O_26
REMARK    8  A    between atoms: C_18  and  C_20
REMARK                            x       y       z     vdW  Elec       q    Type
REMARK                         _______ _______ _______ _____ _____    ______ ____
ROOT
ATOM      1  N   UNL     1       1.266   2.135   2.060  0.00  0.00    -0.259 N 
ATOM      2  H   UNL     1       1.293   2.003   1.099  0.00  0.00    +0.168 HD
ENDROOT
BRANCH   1   3
ATOM      3  C   UNL     1       1.316   3.410   2.583  0.00  0.00    +0.112 C 
ATOM      4  C   UNL     1       1.293   3.745   3.886  0.00  0.00    +0.201 C 
ATOM      5  C   UNL     1       1.365   5.202   4.001  0.00  0.00    +0.253 C 
ATOM      6  N   UNL     1       1.365   5.867   5.125  0.00  0.00    -0.264 NA
ATOM      7  O   UNL     1       1.431   5.756   2.771  0.00  0.00    -0.460 OA
ATOM      8  C   UNL     1       1.412   4.700   1.804  0.00  0.00    +0.254 C 
ATOM      9  H   UNL     1       1.415   6.836   5.115  0.00  0.00    +0.190 HD
BRANCH   8  10
ATOM     10  C   UNL     1       2.680   4.719   0.989  0.00  0.00    -0.001 A 
ATOM     11  C   UNL     1       3.884   5.035   1.591  0.00  0.00    +0.007 A 
ATOM     12  C   UNL     1       5.047   5.052   0.844  0.00  0.00    +0.000 A 
ATOM     13  C   UNL     1       5.006   4.753  -0.505  0.00  0.00    +0.000 A 
ATOM     14  C   UNL     1       3.802   4.436  -1.107  0.00  0.00    +0.000 A 
ATOM     15  C   UNL     1       2.640   4.415  -0.359  0.00  0.00    +0.007 A 
ENDBRANCH   8  10
BRANCH   4  16
ATOM     16  O   UNL     1       1.216   2.870   4.929  0.00  0.00    -0.501 OA
ATOM     17  H   UNL     1       1.211   3.294   5.798  0.00  0.00    +0.292 HD
ENDBRANCH   4  16
ENDBRANCH   1   3
BRANCH   1  18
ATOM     18  N   UNL     1       1.176   1.029   2.916  0.00  0.00    -0.110 NA
ATOM     19  H   UNL     1       1.838   0.902   3.614  0.00  0.00    +0.172 HD
BRANCH  18  20
ATOM     20  S   UNL     1      -0.059  -0.059   2.737  0.00  0.00    +0.074 S 
ATOM     21  O   UNL     1      -1.268   0.687   2.788  0.00  0.00    -0.152 OA
ATOM     22  O   UNL     1       0.212  -1.131   3.629  0.00  0.00    -0.152 OA
BRANCH  20  29
ATOM     23  C   UNL     1       2.247  -1.748   1.749  0.00  0.00    +0.046 C 
ATOM     24  C   UNL     1       1.154  -1.480   0.747  0.00  0.00    -0.024 A 
ATOM     25  C   UNL     1       1.244  -2.001  -0.530  0.00  0.00    +0.007 A 
ATOM     26  C   UNL     1       0.241  -1.755  -1.449  0.00  0.00    +0.033 A 
ATOM     27  C   UNL     1      -0.852  -0.988  -1.091  0.00  0.00    +0.128 A 
ATOM     28  C   UNL     1      -0.942  -0.468   0.187  0.00  0.00    +0.061 A 
ATOM     29  C   UNL     1       0.059  -0.717   1.107  0.00  0.00    +0.112 A 
BRANCH  27  30
ATOM     30  N   UNL     1      -1.925  -0.724  -2.075  0.00  0.00    +0.056 N 
ATOM     31  O   UNL     1      -1.846  -1.179  -3.192  0.00  0.00    -0.126 OA
ATOM     32  O   UNL     1      -2.881  -0.053  -1.762  0.00  0.00    -0.126 OA
ENDBRANCH  27  30
ENDBRANCH  20  29
ENDBRANCH  18  20
ENDBRANCH   1  18
TORSDOF 7
