REMARK  Name = ZINC21178353
REMARK  9 active torsions:
REMARK  status: ('A' for Active; 'I' for Inactive)
REMARK    1  A    between atoms: C_1  and  C_2
REMARK    2  A    between atoms: C_2  and  O_3
REMARK    3  A    between atoms: O_3  and  C_4
REMARK    4  A    between atoms: C_4  and  C_6
REMARK    5  A    between atoms: C_7  and  C_31
REMARK    6  A    between atoms: C_13  and  C_17
REMARK    7  A    between atoms: C_17  and  C_19
REMARK    8  A    between atoms: C_17  and  S_20
REMARK    9  A    between atoms: S_20  and  C_21
REMARK                            x       y       z     vdW  Elec       q    Type
REMARK                         _______ _______ _______ _____ _____    ______ ____
ROOT
ATOM      1  C   UNL     1      -2.793  -2.474   0.161  0.00  0.00    +0.102 A 
ATOM      2  C   UNL     1      -3.167  -3.787   0.154  0.00  0.00    -0.015 A 
ATOM      3  C   UNL     1      -4.522  -4.123   0.130  0.00  0.00    +0.076 A 
ATOM      4  C   UNL     1      -5.154  -5.463   0.119  0.00  0.00    +0.260 A 
ATOM      5  O   UNL     1      -4.474  -6.474   0.132  0.00  0.00    -0.267 OA
ATOM      6  N   UNL     1      -6.499  -5.534   0.094  0.00  0.00    -0.309 N 
ATOM      7  H   UNL     1      -6.928  -6.403   0.086  0.00  0.00    +0.170 HD
ATOM      8  C   UNL     1      -7.264  -4.415   0.080  0.00  0.00    +0.124 A 
ATOM      9  N   UNL     1      -6.740  -3.220   0.089  0.00  0.00    -0.225 NA
ATOM     10  C   UNL     1      -5.426  -3.036   0.113  0.00  0.00    +0.116 A 
ATOM     11  S   UNL     1      -4.359  -1.618   0.140  0.00  0.00    -0.062 S 
ATOM     12  C   UNL     1      -2.120  -4.871   0.173  0.00  0.00    +0.046 C 
ENDROOT
BRANCH   1  13
ATOM     13  C   UNL     1      -1.442  -1.909   0.185  0.00  0.00    +0.346 C 
ATOM     14  O   UNL     1      -0.475  -2.645   0.197  0.00  0.00    -0.244 OA
BRANCH  13  15
ATOM     15  O   UNL     1      -1.272  -0.570   0.194  0.00  0.00    -0.461 OA
BRANCH  15  17
ATOM     16  C   UNL     1       0.067   1.442   0.224  0.00  0.00    +0.048 C 
ATOM     17  C   UNL     1       0.073  -0.088   0.217  0.00  0.00    +0.229 C 
ENDBRANCH  15  17
ENDBRANCH  13  15
ENDBRANCH   1  13
BRANCH   8  18
ATOM     18  C   UNL     1      -8.764  -4.555   0.052  0.00  0.00    +0.114 C 
ATOM     19  C   UNL     1      -9.257  -4.477  -1.394  0.00  0.00    +0.027 C 
BRANCH  18  20
ATOM     20  S   UNL     1      -9.235  -6.155   0.766  0.00  0.00    -0.114 S 
BRANCH  20  21
ATOM     21  C   UNL     1      -8.835  -5.994   2.474  0.00  0.00    +0.012 A 
ATOM     22  C   UNL     1      -8.409  -4.770   2.976  0.00  0.00    +0.018 A 
ATOM     23  C   UNL     1      -8.094  -4.644   4.315  0.00  0.00    +0.050 A 
ATOM     24  C   UNL     1      -8.201  -5.737   5.162  0.00  0.00    +0.162 A 
ATOM     25  C   UNL     1      -8.629  -6.963   4.664  0.00  0.00    +0.163 A 
ATOM     26  C   UNL     1      -8.949  -7.088   3.321  0.00  0.00    +0.064 A 
ATOM     27  O   UNL     1      -8.747  -8.044   5.482  0.00  0.00    -0.485 OA
ATOM     28  C   UNL     1      -8.069  -7.977   6.741  0.00  0.00    +0.270 C 
ATOM     29  C   UNL     1      -8.359  -6.608   7.371  0.00  0.00    +0.270 C 
ATOM     30  O   UNL     1      -7.882  -5.595   6.479  0.00  0.00    -0.485 OA
ENDBRANCH  20  21
ENDBRANCH  18  20
ENDBRANCH   8  18
TORSDOF 6
