REMARK  Name = ZINC65441265
REMARK  12 active torsions:
REMARK  status: ('A' for Active; 'I' for Inactive)
REMARK    1  A    between atoms: C_1  and  C_2
REMARK    2  A    between atoms: C_2  and  C_3
REMARK    3  A    between atoms: C_2  and  N_4
REMARK    4  A    between atoms: C_7  and  C_9
REMARK    5  A    between atoms: C_9  and  N_10
REMARK    6  A    between atoms: N_13  and  C_14
REMARK    7  A    between atoms: C_14  and  C_15
REMARK    8  A    between atoms: C_14  and  C_16
REMARK    9  A    between atoms: C_19  and  O_22
REMARK   10  A    between atoms: O_22  and  C_23
REMARK   11  A    between atoms: C_23  and  C_24
REMARK   12  A    between atoms: C_23  and  C_25
REMARK                            x       y       z     vdW  Elec       q    Type
REMARK                         _______ _______ _______ _____ _____    ______ ____
ROOT
ATOM      1  N   UNL     1      -4.025  -4.020  -3.146  0.00  0.00    -0.299 N 
ATOM      2  C   UNL     1      -4.338  -5.261  -3.568  0.00  0.00    +0.300 C 
ATOM      3  O   UNL     1      -3.463  -6.093  -3.713  0.00  0.00    -0.253 OA
ATOM      4  N   UNL     1      -5.621  -5.580  -3.831  0.00  0.00    -0.293 N 
ATOM      5  H   UNL     1      -4.723  -3.356  -3.031  0.00  0.00    +0.150 HD
ATOM      6  H   UNL     1      -6.319  -4.916  -3.716  0.00  0.00    +0.151 HD
ENDROOT
BRANCH   4   7
ATOM      7  C   UNL     1      -5.962  -6.928  -4.290  0.00  0.00    +0.102 C 
ATOM      8  C   UNL     1      -5.784  -7.011  -5.808  0.00  0.00    +0.033 C 
BRANCH   7   9
ATOM      9  C   UNL     1      -7.394  -7.233  -3.935  0.00  0.00    -0.027 A 
ATOM     10  C   UNL     1      -8.362  -6.256  -4.072  0.00  0.00    +0.009 A 
ATOM     11  C   UNL     1      -9.676  -6.533  -3.747  0.00  0.00    +0.046 A 
ATOM     12  C   UNL     1     -10.023  -7.793  -3.282  0.00  0.00    +0.121 A 
ATOM     13  C   UNL     1      -9.050  -8.772  -3.145  0.00  0.00    +0.046 A 
ATOM     14  C   UNL     1      -7.739  -8.492  -3.477  0.00  0.00    +0.009 A 
BRANCH  12  15
ATOM     15  O   UNL     1     -11.315  -8.068  -2.960  0.00  0.00    -0.489 OA
BRANCH  15  16
ATOM     16  C   UNL     1     -12.242  -6.981  -3.012  0.00  0.00    +0.167 C 
ATOM     17  C   UNL     1     -12.755  -6.816  -4.444  0.00  0.00    +0.051 C 
ATOM     18  C   UNL     1     -13.419  -7.269  -2.078  0.00  0.00    +0.051 C 
ENDBRANCH  15  16
ENDBRANCH  12  15
ENDBRANCH   7   9
ENDBRANCH   4   7
BRANCH   1  19
ATOM     19  C   UNL     1      -2.630  -3.674  -2.861  0.00  0.00    +0.107 C 
BRANCH  19  23
ATOM     20  N   UNL     1      -1.090  -0.343  -2.264  0.00  0.00    +0.381 N 
ATOM     21  C   UNL     1      -1.953  -0.077  -3.435  0.00  0.00    -0.078 C 
ATOM     22  C   UNL     1      -2.933  -1.258  -3.553  0.00  0.00    -0.015 C 
ATOM     23  C   UNL     1      -2.550  -2.217  -2.401  0.00  0.00    -0.012 C 
ATOM     24  C   UNL     1      -1.085  -1.819  -2.092  0.00  0.00    -0.074 C 
ATOM     25  H   UNL     1      -1.470   0.101  -1.442  0.00  0.00    -0.081 HD
BRANCH  20  27
ATOM     26  C   UNL     1       0.249   1.661  -2.692  0.00  0.00    -0.014 C 
ATOM     27  C   UNL     1       0.273   0.142  -2.518  0.00  0.00    -0.075 C 
ATOM     28  C   UNL     1       1.173  -0.222  -1.335  0.00  0.00    -0.014 C 
ENDBRANCH  20  27
ENDBRANCH  19  23
ENDBRANCH   1  19
TORSDOF 7
