REMARK  Name = ZINC13976692
REMARK  10 active torsions:
REMARK  status: ('A' for Active; 'I' for Inactive)
REMARK    1  A    between atoms: C_4  and  C_7
REMARK    2  A    between atoms: C_7  and  N_8
REMARK    3  A    between atoms: C_9  and  C_11
REMARK    4  A    between atoms: C_11  and  C_12
REMARK    5  A    between atoms: C_12  and  C_13
REMARK    6  A    between atoms: N_15  and  N_16
REMARK    7  A    between atoms: N_16  and  C_17
REMARK    8  A    between atoms: C_17  and  N_19
REMARK    9  A    between atoms: C_20  and  C_22
REMARK   10  A    between atoms: C_26  and  N_28
REMARK                            x       y       z     vdW  Elec       q    Type
REMARK                         _______ _______ _______ _____ _____    ______ ____
ROOT
ATOM      1  N   UNL     1      -1.192   2.002   0.019  0.00  0.00    -0.246 N 
ATOM      2  H   UNL     1      -1.206   2.971   0.024  0.00  0.00    +0.172 HD
ENDROOT
BRANCH   1   5
ATOM      3  C   UNL     1      -3.572   1.942   0.029  0.00  0.00    +0.230 C 
ATOM      4  O   UNL     1      -3.589   3.155   0.036  0.00  0.00    -0.274 OA
ATOM      5  N   UNL     1      -2.396   1.285   0.020  0.00  0.00    -0.235 N 
ATOM      6  H   UNL     1      -2.383   0.315   0.015  0.00  0.00    +0.173 HD
BRANCH   3   7
ATOM      7  C   UNL     1      -4.867   1.171   0.032  0.00  0.00    +0.106 C 
BRANCH   7   8
ATOM      8  C   UNL     1      -6.043   2.150   0.042  0.00  0.00    +0.105 C 
BRANCH   8  10
ATOM      9  N   UNL     1      -8.514   2.037   0.053  0.00  0.00    -0.311 N 
ATOM     10  C   UNL     1      -7.338   1.379   0.044  0.00  0.00    +0.214 C 
ATOM     11  O   UNL     1      -7.322   0.166   0.038  0.00  0.00    -0.276 OA
ATOM     12  H   UNL     1      -8.527   3.006   0.059  0.00  0.00    +0.149 HD
BRANCH   9  13
ATOM     13  C   UNL     1      -9.773   1.287   0.055  0.00  0.00    +0.139 C 
BRANCH  13  17
ATOM     14  C   UNL     1     -13.057   4.018   0.086  0.00  0.00    +0.000 A 
ATOM     15  C   UNL     1     -12.532   3.583  -1.116  0.00  0.00    +0.000 A 
ATOM     16  C   UNL     1     -11.469   2.699  -1.126  0.00  0.00    +0.005 A 
ATOM     17  C   UNL     1     -10.932   2.250   0.066  0.00  0.00    -0.030 A 
ATOM     18  C   UNL     1     -11.461   2.682   1.268  0.00  0.00    +0.005 A 
ATOM     19  C   UNL     1     -12.521   3.569   1.278  0.00  0.00    +0.000 A 
ENDBRANCH  13  17
ENDBRANCH   9  13
ENDBRANCH   8  10
ENDBRANCH   7   8
ENDBRANCH   3   7
ENDBRANCH   1   5
BRANCH   1  20
ATOM     20  C   UNL     1      -0.016   1.344   0.009  0.00  0.00    +0.153 C 
ATOM     21  S   UNL     1       1.455   2.220   0.000  0.00  0.00    -0.017 S 
BRANCH  20  22
ATOM     22  N   UNL     1       0.002  -0.004   0.002  0.00  0.00    -0.263 N 
ATOM     23  C   UNL     1       1.178  -0.662  -0.013  0.00  0.00    +0.250 C 
ATOM     24  O   UNL     1       2.222  -0.040  -0.019  0.00  0.00    -0.270 OA
ATOM     25  H   UNL     1      -0.831  -0.500   0.007  0.00  0.00    +0.157 HD
BRANCH  23  26
ATOM     26  C   UNL     1       1.198  -2.139  -0.021  0.00  0.00    +0.039 A 
ATOM     27  C   UNL     1       0.000  -2.857  -0.007  0.00  0.00    +0.014 A 
ATOM     28  C   UNL     1       0.025  -4.235  -0.020  0.00  0.00    +0.023 A 
ATOM     29  C   UNL     1       1.236  -4.908  -0.035  0.00  0.00    +0.071 A 
ATOM     30  C   UNL     1       2.427  -4.202  -0.043  0.00  0.00    +0.145 A 
ATOM     31  C   UNL     1       2.415  -2.823  -0.036  0.00  0.00    +0.047 A 
ATOM     32 CL   UNL     1       1.259  -6.644  -0.045  0.00  0.00    -0.081 Cl
BRANCH  30  33
ATOM     33  N   UNL     1       3.717  -4.929  -0.060  0.00  0.00    +0.058 N 
ATOM     34  O   UNL     1       4.765  -4.310  -0.067  0.00  0.00    -0.126 OA
ATOM     35  O   UNL     1       3.729  -6.147  -0.066  0.00  0.00    -0.126 OA
ENDBRANCH  30  33
ENDBRANCH  23  26
ENDBRANCH  20  22
ENDBRANCH   1  20
TORSDOF 10
