REMARK  Name = ZINC39350638
REMARK  8 active torsions:
REMARK  status: ('A' for Active; 'I' for Inactive)
REMARK    1  A    between atoms: C_1  and  C_2
REMARK    2  A    between atoms: C_7  and  O_8
REMARK    3  A    between atoms: O_8  and  C_9
REMARK    4  A    between atoms: C_9  and  C_10
REMARK    5  A    between atoms: N_12  and  C_13
REMARK    6  A    between atoms: C_13  and  C_14
REMARK    7  A    between atoms: N_16  and  N_17
REMARK    8  A    between atoms: C_18  and  C_19
REMARK                            x       y       z     vdW  Elec       q    Type
REMARK                         _______ _______ _______ _____ _____    ______ ____
ROOT
ATOM      1  C   UNL     1       0.089  -0.378   8.443  0.00  0.00    +0.249 C 
ATOM      2  O   UNL     1       0.104  -1.589   8.371  0.00  0.00    -0.272 OA
ATOM      3  N   UNL     1       0.092   0.225   9.648  0.00  0.00    -0.206 N 
ATOM      4  H   UNL     1       0.080   1.194   9.705  0.00  0.00    +0.177 HD
ENDROOT
BRANCH   3   5
ATOM      5  N   UNL     1       0.114  -0.546  10.817  0.00  0.00    -0.188 NA
ATOM      6  C   UNL     1       0.118   0.041  11.988  0.00  0.00    +0.136 C 
BRANCH   6   7
ATOM      7  C   UNL     1       0.139  -0.731  13.159  0.00  0.00    +0.000 C 
ATOM      8  C   UNL     1       0.140  -0.268  14.472  0.00  0.00    +0.004 A 
ATOM      9  C   UNL     1       0.122   1.031  15.027  0.00  0.00    +0.010 A 
ATOM     10  C   UNL     1       0.129   1.187  16.374  0.00  0.00    +0.001 A 
ATOM     11  C   UNL     1       0.154   0.089  17.240  0.00  0.00    +0.002 A 
ATOM     12  C   UNL     1       0.172  -1.184  16.779  0.00  0.00    +0.026 A 
ATOM     13  C   UNL     1       0.167  -1.429  15.380  0.00  0.00    +0.043 A 
ATOM     14  N   UNL     1       0.182  -2.551  14.691  0.00  0.00    -0.380 N 
ATOM     15  C   UNL     1       0.160  -2.240  13.259  0.00  0.00    +0.150 C 
ATOM     16  H   UNL     1       0.200  -3.443  15.072  0.00  0.00    +0.160 HD
ENDBRANCH   6   7
ENDBRANCH   3   5
BRANCH   1  17
ATOM     17  C   UNL     1       0.066   0.451   7.185  0.00  0.00    +0.202 C 
BRANCH  17  20
ATOM     18  C   UNL     1       0.047   0.090   4.775  0.00  0.00    +0.251 C 
ATOM     19  O   UNL     1       0.030   1.294   4.625  0.00  0.00    -0.272 OA
ATOM     20  N   UNL     1       0.066  -0.433   6.017  0.00  0.00    -0.304 N 
ATOM     21  H   UNL     1       0.080  -1.396   6.137  0.00  0.00    +0.149 HD
BRANCH  18  22
ATOM     22  C   UNL     1       0.048  -0.820   3.574  0.00  0.00    +0.324 C 
BRANCH  22  23
ATOM     23  O   UNL     1       0.025  -0.033   2.381  0.00  0.00    -0.483 OA
BRANCH  23  30
ATOM     24  C   UNL     1      -0.018   1.503   0.010  0.00  0.00    +0.047 C 
ATOM     25  C   UNL     1       0.002  -0.004   0.002  0.00  0.00    -0.009 A 
ATOM     26  C   UNL     1       0.006  -0.689  -1.198  0.00  0.00    +0.007 A 
ATOM     27  C   UNL     1       0.024  -2.071  -1.206  0.00  0.00    +0.000 A 
ATOM     28  C   UNL     1       0.039  -2.772  -0.014  0.00  0.00    +0.004 A 
ATOM     29  C   UNL     1       0.036  -2.092   1.188  0.00  0.00    +0.046 A 
ATOM     30  C   UNL     1       0.023  -0.705   1.199  0.00  0.00    +0.124 A 
ENDBRANCH  23  30
ENDBRANCH  22  23
ENDBRANCH  18  22
ENDBRANCH  17  20
ENDBRANCH   1  17
TORSDOF 7
