REMARK  Name = ZINC19209044
REMARK  8 active torsions:
REMARK  status: ('A' for Active; 'I' for Inactive)
REMARK    1  A    between atoms: C_1  and  N_2
REMARK    2  A    between atoms: C_3  and  C_5
REMARK    3  A    between atoms: C_10  and  N_11
REMARK    4  A    between atoms: C_12  and  C_14
REMARK    5  A    between atoms: C_14  and  S_15
REMARK    6  A    between atoms: S_15  and  C_16
REMARK    7  A    between atoms: C_19  and  C_25
REMARK    8  A    between atoms: C_21  and  N_22
REMARK                            x       y       z     vdW  Elec       q    Type
REMARK                         _______ _______ _______ _____ _____    ______ ____
ROOT
ATOM      1  C   UNL     1       2.227  -0.840   0.017  0.00  0.00    +0.170 C 
ENDROOT
BRANCH   1   3
ATOM      2  N   UNL     1       3.358  -3.040  -0.029  0.00  0.00    -0.284 N 
ATOM      3  C   UNL     1       3.467  -1.696  -0.019  0.00  0.00    +0.227 C 
ATOM      4  O   UNL     1       4.562  -1.177  -0.041  0.00  0.00    -0.275 OA
ATOM      5  H   UNL     1       2.368  -3.512   0.064  0.00  0.00    +0.155 HD
BRANCH   2  11
ATOM      6  C   UNL     1       4.444  -5.032  -0.877  0.00  0.00    +0.058 A 
ATOM      7  C   UNL     1       5.594  -5.816  -0.998  0.00  0.00    +0.015 A 
ATOM      8  C   UNL     1       6.771  -5.405  -0.409  0.00  0.00    +0.001 A 
ATOM      9  C   UNL     1       6.820  -4.217   0.302  0.00  0.00    +0.002 A 
ATOM     10  C   UNL     1       5.693  -3.430   0.425  0.00  0.00    +0.024 A 
ATOM     11  C   UNL     1       4.497  -3.830  -0.156  0.00  0.00    +0.046 A 
BRANCH   6  14
ATOM     12  C   UNL     1       1.852  -7.102  -2.726  0.00  0.00    +0.128 C 
ATOM     13  N   UNL     1       3.106  -6.671  -2.103  0.00  0.00    -0.314 N 
ATOM     14  C   UNL     1       3.182  -5.466  -1.505  0.00  0.00    +0.246 C 
ATOM     15  O   UNL     1       2.210  -4.736  -1.484  0.00  0.00    -0.270 OA
ATOM     16  H   UNL     1       3.985  -7.332  -2.123  0.00  0.00    +0.149 HD
ENDBRANCH   6  14
ENDBRANCH   2  11
ENDBRANCH   1   3
BRANCH   1  17
ATOM     17  S   UNL     1       2.702   0.911   0.022  0.00  0.00    -0.114 S 
BRANCH  17  18
ATOM     18  C   UNL     1       1.164   1.770   0.066  0.00  0.00    +0.039 A 
ATOM     19  C   UNL     1      -0.031   1.054   0.087  0.00  0.00    +0.018 A 
ATOM     20  C   UNL     1      -1.226   1.714   0.116  0.00  0.00    +0.014 A 
ATOM     21  C   UNL     1      -1.253   3.112   0.135  0.00  0.00    +0.039 A 
ATOM     22  C   UNL     1      -0.055   3.833   0.113  0.00  0.00    +0.047 A 
ATOM     23  C   UNL     1       1.146   3.162   0.078  0.00  0.00    +0.140 A 
BRANCH  21  24
ATOM     24  C   UNL     1      -2.544   3.825   0.172  0.00  0.00    +0.242 C 
ATOM     25  O   UNL     1      -2.567   5.041   0.182  0.00  0.00    -0.270 OA
ATOM     26  N   UNL     1      -3.698   3.130   0.193  0.00  0.00    -0.325 N 
ATOM     27  H   UNL     1      -4.660   3.662   0.220  0.00  0.00    +0.145 HD
ATOM     28  H   UNL     1      -3.677   2.030   0.183  0.00  0.00    +0.145 HD
ENDBRANCH  21  24
BRANCH  23  29
ATOM     29  N   UNL     1       2.417   3.920   0.055  0.00  0.00    +0.058 N 
ATOM     30  O   UNL     1       2.400   5.138   0.066  0.00  0.00    -0.126 OA
ATOM     31  O   UNL     1       3.480   3.326   0.025  0.00  0.00    -0.126 OA
ENDBRANCH  23  29
ENDBRANCH  17  18
ENDBRANCH   1  17
TORSDOF 7
