REMARK  Name = ZINC20187051
REMARK  5 active torsions:
REMARK  status: ('A' for Active; 'I' for Inactive)
REMARK    1  A    between atoms: C_1  and  N_2
REMARK    2  A    between atoms: C_4  and  C_7
REMARK    3  A    between atoms: C_7  and  N_8
REMARK    4  A    between atoms: N_8  and  C_9
REMARK    5  A    between atoms: C_12  and  C_15
REMARK                            x       y       z     vdW  Elec       q    Type
REMARK                         _______ _______ _______ _____ _____    ______ ____
ROOT
ATOM      1  C   UNL     1       4.273   0.909  -1.667  0.00  0.00    +0.027 A 
ATOM      2  C   UNL     1       5.147   0.645  -0.618  0.00  0.00    +0.023 A 
ATOM      3  C   UNL     1       6.438   0.243  -0.880  0.00  0.00    +0.015 A 
ATOM      4  C   UNL     1       6.873   0.112  -2.200  0.00  0.00    +0.039 A 
ATOM      5  C   UNL     1       5.995   0.383  -3.252  0.00  0.00    +0.015 A 
ATOM      6  C   UNL     1       4.703   0.779  -2.984  0.00  0.00    +0.023 A 
ENDROOT
BRANCH   4   7
ATOM      7  C   UNL     1       8.259  -0.313  -2.485  0.00  0.00    +0.248 A 
ATOM      8  N   UNL     1       8.794  -0.482  -3.672  0.00  0.00    -0.108 NA
ATOM      9  N   UNL     1      10.019  -0.852  -3.537  0.00  0.00    -0.116 NA
ATOM     10  C   UNL     1      10.309  -0.943  -2.269  0.00  0.00    +0.332 A 
ATOM     11  O   UNL     1       9.209  -0.606  -1.574  0.00  0.00    -0.423 OA
ENDBRANCH   4   7
BRANCH   1  12
ATOM     12  N   UNL     1       2.965   1.310  -1.399  0.00  0.00    -0.340 N 
ATOM     13  H   UNL     1       2.274   1.523  -2.228  0.00  0.00    +0.146 HD
BRANCH  12  14
ATOM     14  C   UNL     1       2.510   1.446  -0.013  0.00  0.00    +0.140 C 
BRANCH  14  18
ATOM     15  C   UNL     1      -2.502   1.389   0.021  0.00  0.00    +0.172 C 
ATOM     16  N   UNL     1      -1.113   1.857   0.017  0.00  0.00    -0.274 N 
ATOM     17  C   UNL     1      -0.013   1.076   0.008  0.00  0.00    +0.113 A 
ATOM     18  C   UNL     1       1.069   1.888   0.002  0.00  0.00    +0.007 A 
ATOM     19  C   UNL     1       0.614   3.211   0.013  0.00  0.00    +0.139 A 
ATOM     20  N   UNL     1      -0.694   3.193   0.025  0.00  0.00    -0.180 NA
ENDBRANCH  14  18
ENDBRANCH  12  14
ENDBRANCH   1  12
TORSDOF 4
