REMARK  Name = ZINC62925311
REMARK  5 active torsions:
REMARK  status: ('A' for Active; 'I' for Inactive)
REMARK    1  A    between atoms: C_1  and  C_2
REMARK    2  A    between atoms: C_2  and  C_4
REMARK    3  A    between atoms: C_2  and  N_7
REMARK    4  A    between atoms: C_13  and  C_15
REMARK    5  A    between atoms: C_13  and  C_16
REMARK                            x       y       z     vdW  Elec       q    Type
REMARK                         _______ _______ _______ _____ _____    ______ ____
ROOT
ATOM      1  N   UNL     1       0.711  -0.489   1.189  0.00  0.00    -0.288 N 
ATOM      2  C   UNL     1       0.051  -0.633   2.355  0.00  0.00    +0.303 C 
ATOM      3  O   UNL     1      -1.132  -0.361   2.423  0.00  0.00    -0.253 OA
ATOM      4  N   UNL     1       0.703  -1.080   3.447  0.00  0.00    -0.285 N 
ATOM      5  C   UNL     1       2.134  -1.450   3.543  0.00  0.00    +0.110 C 
ATOM      6  C   UNL     1       2.118  -2.701   4.456  0.00  0.00    +0.038 C 
ATOM      7  C   UNL     1       1.011  -2.364   5.481  0.00  0.00    +0.086 C 
ATOM      8  C   UNL     1       0.139  -1.294   4.793  0.00  0.00    +0.127 C 
ATOM      9  C   UNL     1       1.628  -1.797   6.762  0.00  0.00    +0.024 C 
ATOM     10  H   UNL     1       1.654  -0.707   1.135  0.00  0.00    +0.151 HD
ENDROOT
BRANCH   7  11
ATOM     11  C   UNL     1       0.193  -3.591   5.792  0.00  0.00    +0.363 C 
ATOM     12  O   UNL     1      -0.322  -3.719   6.889  0.00  0.00    -0.246 OA
ATOM     13  O   UNL     1       0.047  -4.457   4.946  0.00  0.00    -0.246 OA
ENDBRANCH   7  11
BRANCH   1  15
ATOM     14  C   UNL     1      -0.019   1.526   0.010  0.00  0.00    +0.038 C 
ATOM     15  C   UNL     1       0.002  -0.004   0.002  0.00  0.00    +0.157 C 
BRANCH  15  16
ATOM     16  C   UNL     1       0.707  -0.490  -1.238  0.00  0.00    +0.231 C 
ATOM     17  O   UNL     1       1.704  -1.174  -1.140  0.00  0.00    -0.274 OA
ATOM     18  N   UNL     1       0.231  -0.164  -2.456  0.00  0.00    -0.328 N 
ATOM     19  H   UNL     1      -0.566   0.383  -2.534  0.00  0.00    +0.145 HD
ATOM     20  H   UNL     1       0.685  -0.477  -3.254  0.00  0.00    +0.145 HD
ENDBRANCH  15  16
ENDBRANCH   1  15
TORSDOF 3
