REMARK  Name = ZINC08937514
REMARK  7 active torsions:
REMARK  status: ('A' for Active; 'I' for Inactive)
REMARK    1  A    between atoms: C_3  and  N_18
REMARK    2  A    between atoms: C_5  and  S_7
REMARK    3  A    between atoms: S_7  and  N_10
REMARK    4  A    between atoms: C_19  and  C_21
REMARK    5  A    between atoms: C_21  and  O_22
REMARK    6  A    between atoms: O_22  and  C_23
REMARK    7  A    between atoms: C_23  and  C_25
REMARK                            x       y       z     vdW  Elec       q    Type
REMARK                         _______ _______ _______ _____ _____    ______ ____
ROOT
ATOM      1  C   UNL     1      -6.784   4.544  -0.216  0.00  0.00    +0.004 A 
ATOM      2  C   UNL     1      -5.711   3.679  -0.131  0.00  0.00    +0.023 A 
ATOM      3  C   UNL     1      -5.929   2.310  -0.048  0.00  0.00    +0.035 A 
ATOM      4  C   UNL     1      -7.227   1.816  -0.038  0.00  0.00    +0.052 A 
ATOM      5  C   UNL     1      -8.296   2.686  -0.118  0.00  0.00    +0.114 A 
ATOM      6  C   UNL     1      -8.075   4.049  -0.207  0.00  0.00    +0.029 A 
ENDROOT
BRANCH   3   7
ATOM      7  N   UNL     1      -4.843   1.431   0.033  0.00  0.00    -0.283 N 
ATOM      8  C   UNL     1      -4.910   0.222  -0.558  0.00  0.00    +0.255 C 
ATOM      9  O   UNL     1      -5.940  -0.138  -1.088  0.00  0.00    -0.272 OA
ATOM     10  H   UNL     1      -4.042   1.692   0.514  0.00  0.00    +0.155 HD
BRANCH   8  11
ATOM     11  C   UNL     1      -3.705  -0.683  -0.562  0.00  0.00    +0.328 C 
BRANCH  11  12
ATOM     12  O   UNL     1      -4.029  -1.917  -1.255  0.00  0.00    -0.452 OA
BRANCH  12  13
ATOM     13  C   UNL     1      -3.052  -2.841  -1.347  0.00  0.00    +0.340 C 
ATOM     14  O   UNL     1      -1.960  -2.622  -0.861  0.00  0.00    -0.245 OA
BRANCH  13  15
ATOM     15  C   UNL     1      -3.311  -4.122  -2.031  0.00  0.00    +0.060 A 
ATOM     16  C   UNL     1      -4.568  -4.385  -2.595  0.00  0.00    +0.017 A 
ATOM     17  C   UNL     1      -4.827  -5.555  -3.229  0.00  0.00    +0.029 A 
ATOM     18  C   UNL     1      -3.833  -6.556  -3.345  0.00  0.00    +0.078 A 
ATOM     19  C   UNL     1      -2.572  -6.269  -2.768  0.00  0.00    +0.040 A 
ATOM     20  C   UNL     1      -2.304  -5.087  -2.132  0.00  0.00    +0.032 A 
ATOM     21  S   UNL     1      -1.654  -7.745  -3.131  0.00  0.00    -0.075 S 
ATOM     22  C   UNL     1      -2.912  -8.598  -3.970  0.00  0.00    +0.157 A 
ATOM     23  N   UNL     1      -3.915  -7.764  -3.935  0.00  0.00    -0.247 NA
ENDBRANCH  13  15
ENDBRANCH  12  13
ENDBRANCH  11  12
ENDBRANCH   8  11
ENDBRANCH   3   7
BRANCH   5  24
ATOM     24  S   UNL     1      -9.943   2.061  -0.105  0.00  0.00    +0.100 S 
ATOM     25  O   UNL     1     -10.754   3.040  -0.740  0.00  0.00    -0.146 OA
ATOM     26  O   UNL     1      -9.870   0.718  -0.564  0.00  0.00    -0.146 OA
BRANCH  24  27
ATOM     27  N   UNL     1     -10.430   1.995   1.476  0.00  0.00    -0.118 NA
ATOM     28  C   UNL     1     -11.614   1.566   1.771  0.00  0.00    +0.117 C 
ATOM     29  C   UNL     1     -12.567   1.127   0.662  0.00  0.00    +0.073 C 
ATOM     30  C   UNL     1     -12.719  -0.381   0.779  0.00  0.00    +0.008 C 
ATOM     31  C   UNL     1     -13.846  -0.806   1.722  0.00  0.00    +0.002 C 
ATOM     32  C   UNL     1     -13.886   0.011   3.014  0.00  0.00    +0.019 C 
ATOM     33  C   UNL     1     -12.517   0.252   3.612  0.00  0.00    +0.102 C 
ATOM     34  N   UNL     1     -12.004   1.513   3.029  0.00  0.00    -0.331 N 
ATOM     35  H   UNL     1     -11.953   2.310   3.580  0.00  0.00    +0.147 HD
ENDBRANCH  24  27
ENDBRANCH   5  24
TORSDOF 7
