REMARK  Name = ZINC67530267
REMARK  11 active torsions:
REMARK  status: ('A' for Active; 'I' for Inactive)
REMARK    1  A    between atoms: C_1  and  C_2
REMARK    2  A    between atoms: C_9  and  C_11
REMARK    3  A    between atoms: N_13  and  N_14
REMARK    4  A    between atoms: N_17  and  C_18
REMARK    5  A    between atoms: C_18  and  C_19
REMARK    6  A    between atoms: C_19  and  N_20
REMARK    7  A    between atoms: C_21  and  O_23
REMARK    8  A    between atoms: O_23  and  C_24
REMARK    9  A    between atoms: C_24  and  C_25
REMARK   10  A    between atoms: C_24  and  C_26
REMARK   11  A    between atoms: C_24  and  C_27
REMARK                            x       y       z     vdW  Elec       q    Type
REMARK                         _______ _______ _______ _____ _____    ______ ____
ROOT
ATOM      1  N   UNL     1       1.978  -7.562   3.418  0.00  0.00    -0.218 N 
ATOM      2  C   UNL     1       2.065  -8.835   2.985  0.00  0.00    +0.316 C 
ATOM      3  O   UNL     1       2.307  -9.730   3.772  0.00  0.00    -0.251 OA
ATOM      4  N   UNL     1       1.885  -9.117   1.679  0.00  0.00    -0.297 N 
ATOM      5  H   UNL     1       2.108  -7.359   4.357  0.00  0.00    +0.174 HD
ATOM      6  H   UNL     1       1.692  -8.403   1.051  0.00  0.00    +0.150 HD
ENDROOT
BRANCH   1   9
ATOM      7  C   UNL     1       1.612  -5.258   2.944  0.00  0.00    +0.267 C 
ATOM      8  O   UNL     1       1.775  -5.003   4.123  0.00  0.00    -0.268 OA
ATOM      9  N   UNL     1       1.699  -6.531   2.511  0.00  0.00    -0.229 N 
ATOM     10  H   UNL     1       1.569  -6.734   1.571  0.00  0.00    +0.173 HD
BRANCH   7  18
ATOM     11  C   UNL     1      -0.019   1.526   0.010  0.00  0.00    +0.008 C 
ATOM     12  C   UNL     1       0.002  -0.004   0.002  0.00  0.00    -0.009 C 
ATOM     13  C   UNL     1       0.716  -0.496  -1.260  0.00  0.00    +0.009 C 
ATOM     14  C   UNL     1       0.494  -2.009  -1.394  0.00  0.00    +0.043 C 
ATOM     15  C   UNL     1       0.790  -2.651  -0.071  0.00  0.00    -0.006 A 
ATOM     16  C   UNL     1       0.909  -2.022   1.133  0.00  0.00    -0.036 A 
ATOM     17  C   UNL     1       1.190  -2.823   2.230  0.00  0.00    +0.024 A 
ATOM     18  C   UNL     1       1.320  -4.179   1.995  0.00  0.00    +0.076 A 
ATOM     19  S   UNL     1       1.042  -4.273   0.236  0.00  0.00    -0.088 S 
ATOM     20  C   UNL     1       0.739  -0.509   1.243  0.00  0.00    +0.039 C 
ENDBRANCH   7  18
ENDBRANCH   1   9
BRANCH   4  21
ATOM     21  C   UNL     1       1.980 -10.501   1.208  0.00  0.00    +0.124 C 
BRANCH  21  22
ATOM     22  C   UNL     1       1.735 -10.544  -0.301  0.00  0.00    +0.126 C 
BRANCH  22  23
ATOM     23  N   UNL     1       1.830 -11.928  -0.772  0.00  0.00    -0.280 N 
ATOM     24  C   UNL     1       1.650 -12.210  -2.078  0.00  0.00    +0.401 C 
ATOM     25  O   UNL     1       1.408 -11.315  -2.864  0.00  0.00    -0.226 OA
ATOM     26  H   UNL     1       2.023 -12.642  -0.144  0.00  0.00    +0.152 HD
BRANCH  24  27
ATOM     27  O   UNL     1       1.737 -13.482  -2.510  0.00  0.00    -0.445 OA
BRANCH  27  28
ATOM     28  C   UNL     1       1.534 -13.707  -3.907  0.00  0.00    +0.107 C 
ATOM     29  C   UNL     1       2.580 -12.928  -4.707  0.00  0.00    +0.055 C 
ATOM     30  C   UNL     1       1.671 -15.201  -4.207  0.00  0.00    +0.055 C 
ATOM     31  C   UNL     1       0.134 -13.234  -4.302  0.00  0.00    +0.055 C 
ENDBRANCH  27  28
ENDBRANCH  24  27
ENDBRANCH  22  23
ENDBRANCH  21  22
ENDBRANCH   4  21
TORSDOF 7
