REMARK  Name = ZINC35840564
REMARK  13 active torsions:
REMARK  status: ('A' for Active; 'I' for Inactive)
REMARK    1  A    between atoms: C_1  and  C_2
REMARK    2  A    between atoms: C_2  and  N_3
REMARK    3  A    between atoms: N_3  and  C_4
REMARK    4  A    between atoms: C_4  and  C_5
REMARK    5  A    between atoms: C_6  and  C_8
REMARK    6  A    between atoms: C_15  and  C_17
REMARK    7  A    between atoms: C_20  and  C_22
REMARK    8  A    between atoms: C_22  and  N_23
REMARK    9  A    between atoms: N_26  and  C_29
REMARK   10  A    between atoms: C_29  and  C_30
REMARK   11  A    between atoms: C_30  and  C_31
REMARK   12  A    between atoms: C_30  and  C_32
REMARK   13  A    between atoms: C_30  and  O_33
REMARK                            x       y       z     vdW  Elec       q    Type
REMARK                         _______ _______ _______ _____ _____    ______ ____
ROOT
ATOM      1  C   UNL     1       6.056  -2.379  -6.604  0.00  0.00    +0.164 A 
ATOM      2  C   UNL     1       7.166  -3.128  -6.847  0.00  0.00    +0.230 A 
ATOM      3  O   UNL     1       7.021  -3.656  -8.073  0.00  0.00    -0.449 OA
ATOM      4  C   UNL     1       5.848  -3.240  -8.572  0.00  0.00    +0.179 A 
ATOM      5  N   UNL     1       5.258  -2.479  -7.701  0.00  0.00    -0.210 NA
ENDROOT
BRANCH   1  12
ATOM      6  C   UNL     1       2.920  -0.889  -3.426  0.00  0.00    +0.092 C 
ATOM      7  C   UNL     1       1.842  -0.785  -4.507  0.00  0.00    +0.016 C 
ATOM      8  C   UNL     1       2.257  -1.614  -5.725  0.00  0.00    +0.020 C 
ATOM      9  C   UNL     1       3.567  -1.058  -6.293  0.00  0.00    +0.108 C 
ATOM     10  N   UNL     1       4.569  -1.019  -5.219  0.00  0.00    -0.295 N 
ATOM     11  C   UNL     1       4.238  -0.326  -3.967  0.00  0.00    +0.121 C 
ATOM     12  C   UNL     1       5.771  -1.609  -5.380  0.00  0.00    +0.268 C 
ATOM     13  O   UNL     1       6.619  -1.506  -4.514  0.00  0.00    -0.268 OA
BRANCH   6  15
ATOM     14  N   UNL     1       3.131  -0.275  -1.039  0.00  0.00    -0.302 N 
ATOM     15  C   UNL     1       2.495  -0.100  -2.215  0.00  0.00    +0.220 C 
ATOM     16  O   UNL     1       1.581   0.694  -2.298  0.00  0.00    -0.275 OA
BRANCH  14  18
ATOM     17  C   UNL     1       3.335   1.770   0.287  0.00  0.00    +0.024 C 
ATOM     18  C   UNL     1       2.648   0.409   0.164  0.00  0.00    +0.104 C 
ENDBRANCH  14  18
BRANCH  14  19
ATOM     19  C   UNL     1       4.304  -1.148  -0.964  0.00  0.00    +0.104 C 
ATOM     20  C   UNL     1       3.876  -2.538  -0.487  0.00  0.00    +0.024 C 
ENDBRANCH  14  19
ENDBRANCH   6  15
ENDBRANCH   1  12
BRANCH   4  21
ATOM     21  C   UNL     1       5.299  -3.603  -9.928  0.00  0.00    +0.019 C 
BRANCH  21  22
ATOM     22  N   UNL     1       5.748  -2.614 -10.918  0.00  0.00    +0.387 N 
ATOM     23  C   UNL     1       5.166  -1.304 -10.600  0.00  0.00    -0.063 C 
ATOM     24  C   UNL     1       5.647  -0.270 -11.620  0.00  0.00    +0.066 C 
ATOM     25  N   UNL     1       5.242  -0.690 -12.968  0.00  0.00    -0.303 NA
ATOM     26  C   UNL     1       5.796  -2.012 -13.292  0.00  0.00    +0.066 C 
ATOM     27  C   UNL     1       5.313  -3.032 -12.258  0.00  0.00    -0.063 C 
ATOM     28  H   UNL     1       6.754  -2.549 -10.896  0.00  0.00    -0.081 HD
BRANCH  25  29
ATOM     29  C   UNL     1       5.637   0.307 -13.972  0.00  0.00    +0.118 C 
BRANCH  29  30
ATOM     30  C   UNL     1       4.664   1.487 -13.930  0.00  0.00    +0.073 C 
ATOM     31  C   UNL     1       4.979   2.448 -15.077  0.00  0.00    +0.042 C 
ATOM     32  C   UNL     1       3.231   0.971 -14.074  0.00  0.00    +0.042 C 
BRANCH  30  33
ATOM     33  O   UNL     1       4.801   2.172 -12.683  0.00  0.00    -0.388 OA
ATOM     34  H   UNL     1       5.686   2.526 -12.524  0.00  0.00    +0.210 HD
ENDBRANCH  30  33
ENDBRANCH  29  30
ENDBRANCH  25  29
ENDBRANCH  21  22
ENDBRANCH   4  21
TORSDOF 9
