REMARK  Name = ZINC17878329
REMARK  5 active torsions:
REMARK  status: ('A' for Active; 'I' for Inactive)
REMARK    1  A    between atoms: C_1  and  C_2
REMARK    2  A    between atoms: C_2  and  C_3
REMARK    3  A    between atoms: C_2  and  N_4
REMARK    4  A    between atoms: C_11  and  C_14
REMARK    5  A    between atoms: C_11  and  O_22
REMARK                            x       y       z     vdW  Elec       q    Type
REMARK                         _______ _______ _______ _____ _____    ______ ____
ROOT
ATOM      1  N   UNL     1      -1.372  -0.511   0.012  0.00  0.00    -0.266 N 
ATOM      2  C   UNL     1      -1.909  -1.323  -0.987  0.00  0.00    +0.043 A 
ATOM      3  C   UNL     1      -1.341  -1.825  -2.157  0.00  0.00    +0.024 A 
ATOM      4  C   UNL     1      -2.086  -2.620  -3.003  0.00  0.00    +0.002 A 
ATOM      5  C   UNL     1      -3.400  -2.926  -2.698  0.00  0.00    +0.000 A 
ATOM      6  C   UNL     1      -3.971  -2.431  -1.539  0.00  0.00    +0.009 A 
ATOM      7  C   UNL     1      -3.230  -1.637  -0.693  0.00  0.00    +0.016 A 
ATOM      8  C   UNL     1      -3.547  -0.955   0.618  0.00  0.00    +0.189 C 
ATOM      9  C   UNL     1      -2.259  -0.253   0.989  0.00  0.00    +0.258 C 
ATOM     10  O   UNL     1      -2.063   0.419   1.980  0.00  0.00    -0.272 OA
ENDROOT
BRANCH   8  11
ATOM     11  C   UNL     1      -4.681   0.056   0.435  0.00  0.00    +0.187 C 
ATOM     12  C   UNL     1      -4.866   0.917   1.680  0.00  0.00    +0.255 C 
ATOM     13  O   UNL     1      -5.182   0.471   2.766  0.00  0.00    -0.272 OA
ATOM     14  N   UNL     1      -4.646   2.187   1.455  0.00  0.00    -0.159 NA
ATOM     15  C   UNL     1      -4.301   2.684   0.281  0.00  0.00    +0.145 C 
ATOM     16  S   UNL     1      -4.223   1.369  -0.769  0.00  0.00    -0.077 S 
ATOM     17  N   UNL     1      -4.060   3.992  -0.019  0.00  0.00    -0.340 N 
ATOM     18  H   UNL     1      -4.136   4.670   0.670  0.00  0.00    +0.144 HD
ATOM     19  H   UNL     1      -3.812   4.245  -0.922  0.00  0.00    +0.144 HD
ENDBRANCH   8  11
BRANCH   1  21
ATOM     20  C   UNL     1      -0.019   1.526   0.010  0.00  0.00    +0.028 C 
ATOM     21  C   UNL     1       0.002  -0.004   0.002  0.00  0.00    +0.075 C 
ATOM     22  C   UNL     1       0.742  -0.511   1.242  0.00  0.00    +0.028 C 
ENDBRANCH   1  21
BRANCH   8  23
ATOM     23  O   UNL     1      -3.891  -1.921   1.614  0.00  0.00    -0.373 OA
ATOM     24  H   UNL     1      -4.105  -1.537   2.476  0.00  0.00    +0.211 HD
ENDBRANCH   8  23
TORSDOF 3
