REMARK  Name = ZINC59285573
REMARK  10 active torsions:
REMARK  status: ('A' for Active; 'I' for Inactive)
REMARK    1  A    between atoms: C_1  and  C_2
REMARK    2  A    between atoms: C_8  and  C_32
REMARK    3  A    between atoms: C_8  and  C_33
REMARK    4  A    between atoms: C_10  and  N_12
REMARK    5  A    between atoms: C_13  and  C_15
REMARK    6  A    between atoms: C_15  and  N_16
REMARK    7  A    between atoms: C_19  and  C_23
REMARK    8  A    between atoms: C_19  and  C_24
REMARK    9  A    between atoms: C_27  and  O_30
REMARK   10  A    between atoms: O_30  and  C_31
REMARK                            x       y       z     vdW  Elec       q    Type
REMARK                         _______ _______ _______ _____ _____    ______ ____
ROOT
ATOM      1  C   UNL     1      -4.807  -2.618  -1.562  0.00  0.00    +0.213 C 
ENDROOT
BRANCH   1   2
ATOM      2  N   UNL     1      -5.948  -1.973  -0.909  0.00  0.00    -0.215 N 
ATOM      3  C   UNL     1      -6.914  -2.636  -0.243  0.00  0.00    +0.251 C 
ATOM      4  O   UNL     1      -6.999  -3.834  -0.077  0.00  0.00    -0.272 OA
ATOM      5  C   UNL     1      -7.872  -1.572   0.256  0.00  0.00    +0.135 C 
ATOM      6  N   UNL     1      -7.279  -0.316  -0.232  0.00  0.00    -0.281 N 
ATOM      7  C   UNL     1      -6.158  -0.651  -0.896  0.00  0.00    +0.310 C 
ATOM      8  O   UNL     1      -5.420   0.155  -1.427  0.00  0.00    -0.252 OA
ATOM      9  C   UNL     1      -7.935  -1.579   1.785  0.00  0.00    +0.047 C 
ATOM     10  H   UNL     1      -7.627   0.580  -0.099  0.00  0.00    +0.152 HD
BRANCH   5  11
ATOM     11  C   UNL     1      -9.244  -1.776  -0.333  0.00  0.00    -0.015 A 
ATOM     12  C   UNL     1      -9.676  -3.050  -0.652  0.00  0.00    +0.010 A 
ATOM     13  C   UNL     1     -10.933  -3.239  -1.193  0.00  0.00    +0.046 A 
ATOM     14  C   UNL     1     -11.762  -2.149  -1.415  0.00  0.00    +0.120 A 
ATOM     15  C   UNL     1     -11.326  -0.872  -1.094  0.00  0.00    +0.046 A 
ATOM     16  C   UNL     1     -10.070  -0.688  -0.549  0.00  0.00    +0.010 A 
BRANCH  14  17
ATOM     17  O   UNL     1     -12.999  -2.332  -1.948  0.00  0.00    -0.495 OA
ATOM     18  C   UNL     1     -13.798  -1.165  -2.149  0.00  0.00    +0.277 C 
ENDBRANCH  14  17
ENDBRANCH   5  11
ENDBRANCH   1   2
BRANCH   1  20
ATOM     19  N   UNL     1      -2.505  -3.298  -0.964  0.00  0.00    -0.307 N 
ATOM     20  C   UNL     1      -3.667  -2.732  -0.582  0.00  0.00    +0.231 C 
ATOM     21  O   UNL     1      -3.796  -2.316   0.549  0.00  0.00    -0.274 OA
ATOM     22  H   UNL     1      -2.401  -3.631  -1.869  0.00  0.00    +0.149 HD
BRANCH  19  32
ATOM     23  C   UNL     1      -0.018   1.503   0.010  0.00  0.00    +0.086 C 
ATOM     24  C   UNL     1       0.002  -0.004   0.002  0.00  0.00    +0.103 A 
ATOM     25  C   UNL     1      -1.081  -0.806   0.003  0.00  0.00    +0.050 A 
ATOM     26  C   UNL     1      -0.602  -2.129  -0.007  0.00  0.00    +0.014 A 
ATOM     27  C   UNL     1       0.745  -2.064  -0.011  0.00  0.00    +0.111 A 
ATOM     28  O   UNL     1       1.104  -0.775  -0.013  0.00  0.00    -0.464 OA
ATOM     29  C   UNL     1       1.646  -3.276  -0.019  0.00  0.00    +0.081 C 
ATOM     30  C   UNL     1       0.818  -4.497   0.398  0.00  0.00    -0.026 C 
ATOM     31  C   UNL     1      -0.466  -4.554  -0.433  0.00  0.00    +0.034 C 
ATOM     32  C   UNL     1      -1.397  -3.409  -0.012  0.00  0.00    +0.107 C 
ATOM     33  C   UNL     1       1.634  -5.770   0.162  0.00  0.00    +0.011 C 
ATOM     34  C   UNL     1       0.461  -4.389   1.882  0.00  0.00    +0.011 C 
ENDBRANCH  19  32
ENDBRANCH   1  20
TORSDOF 5
