REMARK  Name = ZINC20125523
REMARK  3 active torsions:
REMARK  status: ('A' for Active; 'I' for Inactive)
REMARK    1  A    between atoms: C_1  and  C_2
REMARK    2  A    between atoms: C_8  and  N_10
REMARK    3  A    between atoms: N_10  and  C_11
REMARK                            x       y       z     vdW  Elec       q    Type
REMARK                         _______ _______ _______ _____ _____    ______ ____
ROOT
ATOM      1  C   UNL     1       0.345   3.756   1.780  0.00  0.00    +0.029 A 
ATOM      2  C   UNL     1       1.446   3.073   2.280  0.00  0.00    +0.026 A 
ATOM      3  C   UNL     1       2.531   3.772   2.776  0.00  0.00    +0.049 A 
ATOM      4  C   UNL     1       2.517   5.156   2.784  0.00  0.00    +0.142 A 
ATOM      5  C   UNL     1       1.410   5.844   2.289  0.00  0.00    +0.077 A 
ATOM      6  C   UNL     1       0.326   5.144   1.788  0.00  0.00    +0.050 A 
ATOM      7  N   UNL     1       1.410   7.246   2.307  0.00  0.00    -0.280 N 
ATOM      8  C   UNL     1       2.578   7.899   2.499  0.00  0.00    +0.255 C 
ATOM      9  O   UNL     1       2.597   9.110   2.547  0.00  0.00    -0.272 OA
ATOM     10  C   UNL     1       3.856   7.114   2.652  0.00  0.00    +0.325 C 
ATOM     11  O   UNL     1       3.576   5.857   3.272  0.00  0.00    -0.481 OA
ATOM     12  H   UNL     1       0.469   7.798   2.166  0.00  0.00    +0.155 HD
ENDROOT
BRANCH   1  13
ATOM     13  N   UNL     1      -0.749   3.044   1.275  0.00  0.00    -0.341 N 
ATOM     14  H   UNL     1      -1.623   3.584   0.884  0.00  0.00    +0.146 HD
BRANCH  13  21
ATOM     15  C   UNL     1      -2.880   1.543   2.537  0.00  0.00    +0.009 C 
ATOM     16  C   UNL     1      -2.164   1.050   1.278  0.00  0.00    +0.006 C 
ATOM     17  C   UNL     1      -2.904   1.556   0.038  0.00  0.00    +0.005 C 
ATOM     18  C   UNL     1      -2.188   1.063  -1.221  0.00  0.00    +0.000 C 
ATOM     19  C   UNL     1      -0.753   1.593  -1.232  0.00  0.00    +0.002 C 
ATOM     20  C   UNL     1      -0.013   1.086   0.008  0.00  0.00    +0.022 C 
ATOM     21  C   UNL     1      -0.729   1.579   1.267  0.00  0.00    +0.073 C 
ENDBRANCH  13  21
ENDBRANCH   1  13
TORSDOF 2
