REMARK  Name = ZINC36826046
REMARK  7 active torsions:
REMARK  status: ('A' for Active; 'I' for Inactive)
REMARK    1  A    between atoms: C_1  and  C_2
REMARK    2  A    between atoms: C_2  and  C_4
REMARK    3  A    between atoms: C_9  and  N_10
REMARK    4  A    between atoms: C_11  and  C_13
REMARK    5  A    between atoms: C_13  and  N_14
REMARK    6  A    between atoms: C_17  and  C_21
REMARK    7  A    between atoms: C_17  and  C_22
REMARK                            x       y       z     vdW  Elec       q    Type
REMARK                         _______ _______ _______ _____ _____    ______ ____
ROOT
ATOM      1  C   UNL     1       0.443  -4.803   1.315  0.00  0.00    +0.214 C 
ENDROOT
BRANCH   1   2
ATOM      2  N   UNL     1       0.696  -6.228   1.083  0.00  0.00    -0.215 N 
ATOM      3  C   UNL     1      -0.270  -7.142   0.865  0.00  0.00    +0.251 C 
ATOM      4  O   UNL     1      -1.466  -6.949   0.825  0.00  0.00    -0.272 OA
ATOM      5  C   UNL     1       0.451  -8.463   0.678  0.00  0.00    +0.136 C 
ATOM      6  N   UNL     1       1.872  -8.105   0.827  0.00  0.00    -0.281 N 
ATOM      7  C   UNL     1       1.914  -6.780   1.056  0.00  0.00    +0.310 C 
ATOM      8  O   UNL     1       2.943  -6.155   1.222  0.00  0.00    -0.252 OA
ATOM      9  C   UNL     1       0.031  -9.462   1.758  0.00  0.00    +0.047 C 
ATOM     10  H   UNL     1       2.631  -8.707   0.769  0.00  0.00    +0.152 HD
BRANCH   5  11
ATOM     11  C   UNL     1       0.186  -9.022  -0.696  0.00  0.00    +0.003 A 
ATOM     12  C   UNL     1       1.238  -9.253  -1.562  0.00  0.00    +0.009 A 
ATOM     13  C   UNL     1       0.996  -9.766  -2.823  0.00  0.00    +0.020 A 
ATOM     14  C   UNL     1      -0.300 -10.049  -3.218  0.00  0.00    +0.042 A 
ATOM     15  C   UNL     1      -1.353  -9.819  -2.351  0.00  0.00    +0.040 A 
ATOM     16  C   UNL     1      -1.109  -9.309  -1.088  0.00  0.00    +0.048 A 
ATOM     17 CL   UNL     1      -2.429  -9.025   0.003  0.00  0.00    -0.083 Cl
ATOM     18 CL   UNL     1      -0.604 -10.693  -4.801  0.00  0.00    -0.083 Cl
ENDBRANCH   5  11
ENDBRANCH   1   2
BRANCH   1  20
ATOM     19  N   UNL     1       0.220  -2.743  -0.036  0.00  0.00    -0.283 N 
ATOM     20  C   UNL     1       0.435  -4.073  -0.003  0.00  0.00    +0.235 C 
ATOM     21  O   UNL     1       0.622  -4.683  -1.035  0.00  0.00    -0.274 OA
ATOM     22  H   UNL     1       0.128  -2.247   0.792  0.00  0.00    +0.155 HD
BRANCH  19  28
ATOM     23  C   UNL     1      -0.861  -1.104  -1.460  0.00  0.00    +0.042 A 
ATOM     24  C   UNL     1      -0.939  -0.439  -2.693  0.00  0.00    +0.062 A 
ATOM     25  C   UNL     1      -0.052  -0.750  -3.700  0.00  0.00    +0.167 A 
ATOM     26  C   UNL     1       0.928  -1.727  -3.496  0.00  0.00    +0.168 A 
ATOM     27  C   UNL     1       1.013  -2.388  -2.281  0.00  0.00    +0.073 A 
ATOM     28  C   UNL     1       0.130  -2.082  -1.258  0.00  0.00    +0.048 A 
ATOM     29  O   UNL     1       1.669  -1.842  -4.635  0.00  0.00    -0.453 OA
ATOM     30  C   UNL     1       0.881  -1.227  -5.672  0.00  0.00    +0.466 C 
ATOM     31  O   UNL     1       0.082  -0.259  -4.968  0.00  0.00    -0.453 OA
BRANCH  23  33
ATOM     32  C   UNL     1      -2.787   0.350  -0.565  0.00  0.00    +0.091 C 
ATOM     33  C   UNL     1      -1.802  -0.777  -0.387  0.00  0.00    +0.162 C 
ATOM     34  O   UNL     1      -1.789  -1.413   0.646  0.00  0.00    -0.292 OA
ENDBRANCH  23  33
ENDBRANCH  19  28
ENDBRANCH   1  20
TORSDOF 5
