REMARK  Name = ZINC40836936
REMARK  6 active torsions:
REMARK  status: ('A' for Active; 'I' for Inactive)
REMARK    1  A    between atoms: C_1  and  C_2
REMARK    2  A    between atoms: N_12  and  C_13
REMARK    3  A    between atoms: C_13  and  C_14
REMARK    4  A    between atoms: C_14  and  C_15
REMARK    5  A    between atoms: N_17  and  C_18
REMARK    6  A    between atoms: C_23  and  C_24
REMARK                            x       y       z     vdW  Elec       q    Type
REMARK                         _______ _______ _______ _____ _____    ______ ____
ROOT
ATOM      1  C   UNL     1       0.403  -4.931  -1.221  0.00  0.00    +0.123 C 
ENDROOT
BRANCH   1  13
ATOM      2  C   UNL     1      -0.024   1.478   0.070  0.00  0.00    +0.044 C 
ATOM      3  C   UNL     1      -0.003  -0.028   0.050  0.00  0.00    -0.047 A 
ATOM      4  C   UNL     1       0.002  -0.701  -1.158  0.00  0.00    +0.005 A 
ATOM      5  C   UNL     1       0.022  -2.083  -1.185  0.00  0.00    +0.027 A 
ATOM      6  C   UNL     1       0.038  -2.795   0.003  0.00  0.00    +0.078 A 
ATOM      7  C   UNL     1       0.032  -2.117   1.221  0.00  0.00    +0.143 A 
ATOM      8  C   UNL     1       0.018  -0.733   1.240  0.00  0.00    +0.051 A 
ATOM      9  O   UNL     1       0.045  -2.826   2.381  0.00  0.00    -0.481 OA
ATOM     10  C   UNL     1      -0.630  -4.087   2.372  0.00  0.00    +0.325 C 
ATOM     11  C   UNL     1      -0.242  -4.859   1.137  0.00  0.00    +0.258 C 
ATOM     12  O   UNL     1      -0.201  -6.071   1.165  0.00  0.00    -0.272 OA
ATOM     13  N   UNL     1       0.059  -4.197  -0.001  0.00  0.00    -0.265 N 
ENDBRANCH   1  13
BRANCH   1  14
ATOM     14  C   UNL     1       1.914  -5.167  -1.266  0.00  0.00    +0.115 C 
BRANCH  14  15
ATOM     15  C   UNL     1       2.267  -5.923  -2.521  0.00  0.00    +0.219 C 
ATOM     16  O   UNL     1       1.396  -6.242  -3.303  0.00  0.00    -0.275 OA
ATOM     17  N   UNL     1       3.551  -6.245  -2.775  0.00  0.00    -0.285 N 
ATOM     18  H   UNL     1       4.256  -5.921  -2.193  0.00  0.00    +0.155 HD
BRANCH  17  19
ATOM     19  C   UNL     1       3.866  -7.045  -3.879  0.00  0.00    +0.036 A 
ATOM     20  C   UNL     1       2.919  -7.916  -4.401  0.00  0.00    +0.023 A 
ATOM     21  C   UNL     1       3.233  -8.704  -5.490  0.00  0.00    +0.002 A 
ATOM     22  C   UNL     1       4.490  -8.627  -6.061  0.00  0.00    +0.000 A 
ATOM     23  C   UNL     1       5.436  -7.762  -5.544  0.00  0.00    +0.005 A 
ATOM     24  C   UNL     1       5.126  -6.966  -4.458  0.00  0.00    -0.029 A 
ATOM     25  C   UNL     1       6.155  -6.017  -3.899  0.00  0.00    +0.045 C 
ENDBRANCH  17  19
ENDBRANCH  14  15
ENDBRANCH   1  14
TORSDOF 4
