REMARK  Name = ZINC03417711
REMARK  8 active torsions:
REMARK  status: ('A' for Active; 'I' for Inactive)
REMARK    1  A    between atoms: C_3  and  C_9
REMARK    2  A    between atoms: C_4  and  O_8
REMARK    3  A    between atoms: C_6  and  O_7
REMARK    4  A    between atoms: C_9  and  O_11
REMARK    5  A    between atoms: O_11  and  C_12
REMARK    6  A    between atoms: C_12  and  C_13
REMARK    7  A    between atoms: N_15  and  C_16
REMARK    8  A    between atoms: C_21  and  C_22
REMARK                            x       y       z     vdW  Elec       q    Type
REMARK                         _______ _______ _______ _____ _____    ______ ____
ROOT
ATOM      1  C   UNL     1       4.673   5.678  -0.017  0.00  0.00    +0.255 C 
ATOM      2  O   UNL     1       3.545   6.125   0.002  0.00  0.00    -0.272 OA
ATOM      3  N   UNL     1       5.729   6.515  -0.020  0.00  0.00    -0.282 N 
ATOM      4  H   UNL     1       6.630   6.160   0.045  0.00  0.00    +0.155 HD
ENDROOT
BRANCH   3   5
ATOM      5  C   UNL     1       5.527   7.897  -0.117  0.00  0.00    +0.045 A 
ATOM      6  C   UNL     1       4.373   8.391  -0.709  0.00  0.00    +0.025 A 
ATOM      7  C   UNL     1       4.176   9.755  -0.803  0.00  0.00    +0.022 A 
ATOM      8  C   UNL     1       5.128  10.629  -0.309  0.00  0.00    +0.042 A 
ATOM      9  C   UNL     1       6.280  10.139   0.282  0.00  0.00    +0.034 A 
ATOM     10  C   UNL     1       6.479   8.776   0.384  0.00  0.00    +0.077 A 
ATOM     11 CL   UNL     1       4.878  12.342  -0.430  0.00  0.00    -0.084 Cl
BRANCH  10  12
ATOM     12  C   UNL     1       7.730   8.243   1.033  0.00  0.00    +0.419 C 
ATOM     13  F   UNL     1       8.528   9.311   1.456  0.00  0.00    -0.166 F 
ATOM     14  F   UNL     1       7.384   7.455   2.136  0.00  0.00    -0.166 F 
ATOM     15  F   UNL     1       8.440   7.467   0.111  0.00  0.00    -0.166 F 
ENDBRANCH  10  12
ENDBRANCH   3   5
BRANCH   1  16
ATOM     16  C   UNL     1       4.893   4.188  -0.039  0.00  0.00    +0.328 C 
BRANCH  16  17
ATOM     17  O   UNL     1       3.629   3.520  -0.032  0.00  0.00    -0.452 OA
BRANCH  17  18
ATOM     18  C   UNL     1       3.649   2.172  -0.049  0.00  0.00    +0.343 C 
ATOM     19  O   UNL     1       4.711   1.581  -0.069  0.00  0.00    -0.245 OA
BRANCH  18  22
ATOM     20  C   UNL     1      -0.016   1.386  -0.013  0.00  0.00    +0.046 A 
ATOM     21  C   UNL     1       1.163   2.096  -0.018  0.00  0.00    +0.022 A 
ATOM     22  C   UNL     1       2.386   1.417  -0.042  0.00  0.00    +0.100 A 
ATOM     23  C   UNL     1       2.403   0.014  -0.061  0.00  0.00    +0.134 A 
ATOM     24  C   UNL     1       1.211  -0.688  -0.055  0.00  0.00    +0.091 A 
ATOM     25  C   UNL     1       0.003  -0.005  -0.031  0.00  0.00    +0.120 A 
BRANCH  25  26
ATOM     26  O   UNL     1      -1.164  -0.697  -0.026  0.00  0.00    -0.507 OA
ATOM     27  H   UNL     1      -1.514  -0.886  -0.908  0.00  0.00    +0.292 HD
ENDBRANCH  25  26
BRANCH  23  28
ATOM     28  O   UNL     1       3.585  -0.652  -0.084  0.00  0.00    -0.506 OA
ATOM     29  H   UNL     1       3.939  -0.857   0.792  0.00  0.00    +0.292 HD
ENDBRANCH  23  28
ENDBRANCH  18  22
ENDBRANCH  17  18
ENDBRANCH  16  17
ENDBRANCH   1  16
TORSDOF 8
