REMARK  Name = ZINC20366291
REMARK  4 active torsions:
REMARK  status: ('A' for Active; 'I' for Inactive)
REMARK    1  A    between atoms: C_1  and  C_2
REMARK    2  A    between atoms: C_7  and  S_8
REMARK    3  A    between atoms: S_8  and  C_11
REMARK    4  A    between atoms: C_20  and  N_21
REMARK                            x       y       z     vdW  Elec       q    Type
REMARK                         _______ _______ _______ _____ _____    ______ ____
ROOT
ATOM      1  C   UNL     1       1.540   1.068   2.812  0.00  0.00    +0.133 A 
ATOM      2  C   UNL     1       1.527   2.430   2.821  0.00  0.00    +0.041 A 
ATOM      3  C   UNL     1       2.760   3.110   2.891  0.00  0.00    +0.002 A 
ATOM      4  C   UNL     1       2.819   4.512   2.905  0.00  0.00    +0.010 A 
ATOM      5  C   UNL     1       4.029   5.134   2.973  0.00  0.00    +0.001 A 
ATOM      6  C   UNL     1       5.209   4.397   3.030  0.00  0.00    +0.002 A 
ATOM      7  C   UNL     1       5.188   3.036   3.018  0.00  0.00    +0.028 A 
ATOM      8  C   UNL     1       3.959   2.358   2.949  0.00  0.00    +0.073 A 
ATOM      9  N   UNL     1       3.910   1.021   2.936  0.00  0.00    -0.230 NA
ATOM     10  C   UNL     1       2.760   0.381   2.876  0.00  0.00    +0.142 A 
ENDROOT
BRANCH   1  11
ATOM     11  S   UNL     1       0.026   0.171   2.726  0.00  0.00    +0.029 S 
ATOM     12  O   UNL     1      -1.014   1.137   2.645  0.00  0.00    -0.164 OA
ATOM     13  O   UNL     1       0.076  -0.810   3.753  0.00  0.00    -0.164 OA
BRANCH  11  20
ATOM     14  C   UNL     1      -0.018   1.503   0.010  0.00  0.00    +0.046 C 
ATOM     15  C   UNL     1       0.002  -0.004   0.002  0.00  0.00    -0.025 A 
ATOM     16  C   UNL     1       0.006  -0.689  -1.199  0.00  0.00    +0.005 A 
ATOM     17  C   UNL     1       0.025  -2.071  -1.207  0.00  0.00    +0.000 A 
ATOM     18  C   UNL     1       0.040  -2.768  -0.013  0.00  0.00    +0.002 A 
ATOM     19  C   UNL     1       0.037  -2.084   1.188  0.00  0.00    +0.027 A 
ATOM     20  C   UNL     1       0.023  -0.702   1.195  0.00  0.00    +0.097 A 
ENDBRANCH  11  20
ENDBRANCH   1  11
BRANCH  10  21
ATOM     21  N   UNL     1       2.758  -1.006   2.872  0.00  0.00    -0.342 N 
ATOM     22  H   UNL     1       1.918  -1.490   2.824  0.00  0.00    +0.144 HD
ATOM     23  H   UNL     1       3.595  -1.493   2.916  0.00  0.00    +0.144 HD
ENDBRANCH  10  21
TORSDOF 3
