REMARK  Name = ZINC02639839
REMARK  8 active torsions:
REMARK  status: ('A' for Active; 'I' for Inactive)
REMARK    1  A    between atoms: C_1  and  O_2
REMARK    2  A    between atoms: O_2  and  C_3
REMARK    3  A    between atoms: C_3  and  C_4
REMARK    4  A    between atoms: C_4  and  N_5
REMARK    5  A    between atoms: C_9  and  C_11
REMARK    6  A    between atoms: C_11  and  O_12
REMARK    7  A    between atoms: O_12  and  C_13
REMARK    8  A    between atoms: C_15  and  C_22
REMARK                            x       y       z     vdW  Elec       q    Type
REMARK                         _______ _______ _______ _____ _____    ______ ____
ROOT
ATOM      1  C   UNL     1       3.707   0.745  -0.030  0.00  0.00    +0.227 A 
ATOM      2  C   UNL     1       2.289   0.790  -0.015  0.00  0.00    +0.077 A 
ATOM      3  C   UNL     1       1.322  -0.302  -0.012  0.00  0.00    +0.004 A 
ATOM      4  C   UNL     1       0.002  -0.004   0.002  0.00  0.00    +0.056 A 
ATOM      5  S   UNL     1      -0.022   1.778   0.012  0.00  0.00    -0.076 S 
ATOM      6  C   UNL     1       1.724   2.083  -0.003  0.00  0.00    +0.116 A 
ATOM      7  N   UNL     1       2.481   3.163  -0.005  0.00  0.00    -0.228 NA
ATOM      8  C   UNL     1       3.795   3.056  -0.018  0.00  0.00    +0.226 A 
ATOM      9  N   UNL     1       4.389   1.876  -0.031  0.00  0.00    -0.201 NA
ENDROOT
BRANCH   3  10
ATOM     10  C   UNL     1       1.777  -1.713  -0.025  0.00  0.00    -0.016 A 
ATOM     11  C   UNL     1       2.716  -2.137  -0.964  0.00  0.00    +0.011 A 
ATOM     12  C   UNL     1       3.141  -3.450  -0.968  0.00  0.00    +0.039 A 
ATOM     13  C   UNL     1       2.627  -4.349  -0.048  0.00  0.00    +0.123 A 
ATOM     14  C   UNL     1       1.690  -3.934   0.884  0.00  0.00    +0.039 A 
ATOM     15  C   UNL     1       1.263  -2.622   0.899  0.00  0.00    +0.011 A 
ATOM     16  F   UNL     1       3.042  -5.635  -0.059  0.00  0.00    -0.205 F 
ENDBRANCH   3  10
BRANCH   1  17
ATOM     17  O   UNL     1       4.354  -0.445  -0.042  0.00  0.00    -0.466 OA
BRANCH  17  18
ATOM     18  C   UNL     1       5.782  -0.407  -0.056  0.00  0.00    +0.326 C 
BRANCH  18  23
ATOM     19  N   UNL     1       9.467  -3.494  -0.107  0.00  0.00    -0.297 N 
ATOM     20  C   UNL     1       8.136  -3.283  -0.093  0.00  0.00    +0.306 C 
ATOM     21  O   UNL     1       7.371  -4.228  -0.090  0.00  0.00    -0.252 OA
ATOM     22  N   UNL     1       7.653  -2.025  -0.082  0.00  0.00    -0.237 N 
ATOM     23  C   UNL     1       6.322  -1.814  -0.068  0.00  0.00    +0.258 C 
ATOM     24  O   UNL     1       5.559  -2.756  -0.065  0.00  0.00    -0.272 OA
ATOM     25  H   UNL     1      10.077  -2.740  -0.110  0.00  0.00    +0.150 HD
ATOM     26  H   UNL     1       8.264  -1.271  -0.085  0.00  0.00    +0.159 HD
BRANCH  19  27
ATOM     27  C   UNL     1       9.992  -4.862  -0.119  0.00  0.00    +0.133 C 
BRANCH  27  28
ATOM     28  C   UNL     1      11.521  -4.821  -0.134  0.00  0.00    +0.178 C 
BRANCH  28  30
ATOM     29  C   UNL     1      13.418  -4.160   1.174  0.00  0.00    +0.194 C 
ATOM     30  O   UNL     1      11.994  -4.245   1.085  0.00  0.00    -0.381 OA
ENDBRANCH  28  30
ENDBRANCH  27  28
ENDBRANCH  19  27
ENDBRANCH  18  23
ENDBRANCH  17  18
ENDBRANCH   1  17
TORSDOF 7
