REMARK  Name = ZINC39678312
REMARK  6 active torsions:
REMARK  status: ('A' for Active; 'I' for Inactive)
REMARK    1  A    between atoms: C_1  and  N_2
REMARK    2  A    between atoms: C_6  and  C_7
REMARK    3  A    between atoms: C_11  and  C_20
REMARK    4  A    between atoms: N_22  and  C_23
REMARK    5  A    between atoms: C_23  and  C_24
REMARK    6  A    between atoms: C_29  and  N_30
REMARK                            x       y       z     vdW  Elec       q    Type
REMARK                         _______ _______ _______ _____ _____    ______ ____
ROOT
ATOM      1  C   UNL     1      -0.116  -0.231   3.345  0.00  0.00    +0.263 C 
ATOM      2  O   UNL     1      -0.360  -0.986   4.268  0.00  0.00    -0.268 OA
ATOM      3  N   UNL     1      -0.484   1.063   3.419  0.00  0.00    -0.295 N 
ATOM      4  C   UNL     1      -0.408   2.091   2.354  0.00  0.00    +0.121 C 
ATOM      5  C   UNL     1      -1.706   2.914   2.512  0.00  0.00    +0.100 C 
ATOM      6  C   UNL     1      -2.126   2.708   3.977  0.00  0.00    -0.004 C 
ATOM      7  C   UNL     1      -1.062   1.779   4.582  0.00  0.00    +0.115 C 
ATOM      8  C   UNL     1      -3.497   2.044   4.046  0.00  0.00    -0.010 C 
ATOM      9  C   UNL     1      -3.918   1.901   5.511  0.00  0.00    -0.082 C 
ATOM     10  N   UNL     1      -3.961   3.226   6.141  0.00  0.00    +0.379 N 
ATOM     11  C   UNL     1      -2.619   3.819   6.154  0.00  0.00    -0.082 C 
ATOM     12  C   UNL     1      -2.143   4.043   4.715  0.00  0.00    -0.010 C 
ATOM     13  H   UNL     1      -4.586   3.824   5.621  0.00  0.00    -0.086 HD
ATOM     14  H   UNL     1      -4.297   3.136   7.088  0.00  0.00    -0.086 HD
ENDROOT
BRANCH   1  20
ATOM     15  C   UNL     1       0.558  -3.192   2.730  0.00  0.00    +0.149 C 
ATOM     16  N   UNL     1       0.879  -2.045   1.877  0.00  0.00    -0.346 N 
ATOM     17  C   UNL     1       1.516  -2.102   0.682  0.00  0.00    +0.086 A 
ATOM     18  C   UNL     1       1.634  -0.846   0.189  0.00  0.00    +0.020 A 
ATOM     19  C   UNL     1       1.050   0.033   1.106  0.00  0.00    +0.032 A 
ATOM     20  C   UNL     1       0.578  -0.730   2.153  0.00  0.00    +0.104 A 
ENDBRANCH   1  20
BRANCH   5  21
ATOM     21  C   UNL     1      -1.439   4.372   2.241  0.00  0.00    +0.218 C 
ATOM     22  O   UNL     1      -0.436   4.896   2.676  0.00  0.00    -0.275 OA
ATOM     23  N   UNL     1      -2.316   5.093   1.514  0.00  0.00    -0.311 N 
ATOM     24  H   UNL     1      -3.118   4.674   1.166  0.00  0.00    +0.149 HD
BRANCH  23  25
ATOM     25  C   UNL     1      -2.056   6.511   1.250  0.00  0.00    +0.141 C 
BRANCH  25  26
ATOM     26  C   UNL     1      -3.179   7.082   0.423  0.00  0.00    -0.009 A 
ATOM     27  C   UNL     1      -3.025   7.234  -0.941  0.00  0.00    +0.007 A 
ATOM     28  C   UNL     1      -4.054   7.758  -1.701  0.00  0.00    +0.000 A 
ATOM     29  C   UNL     1      -5.242   8.130  -1.098  0.00  0.00    +0.002 A 
ATOM     30  C   UNL     1      -5.404   7.980   0.265  0.00  0.00    +0.023 A 
ATOM     31  C   UNL     1      -4.373   7.449   1.030  0.00  0.00    +0.034 A 
BRANCH  31  32
ATOM     32  N   UNL     1      -4.535   7.290   2.409  0.00  0.00    -0.330 N 
ATOM     33  C   UNL     1      -4.173   8.373   3.334  0.00  0.00    +0.105 C 
ATOM     34  C   UNL     1      -5.377   8.676   4.233  0.00  0.00    +0.019 C 
ATOM     35  C   UNL     1      -5.832   7.387   4.920  0.00  0.00    +0.003 C 
ATOM     36  C   UNL     1      -6.263   6.367   3.863  0.00  0.00    +0.019 C 
ATOM     37  C   UNL     1      -5.076   6.041   2.960  0.00  0.00    +0.105 C 
ENDBRANCH  31  32
ENDBRANCH  25  26
ENDBRANCH  23  25
ENDBRANCH   5  21
TORSDOF 5
