REMARK  Name = ZINC33301974
REMARK  8 active torsions:
REMARK  status: ('A' for Active; 'I' for Inactive)
REMARK    1  A    between atoms: C_1  and  C_2
REMARK    2  A    between atoms: C_2  and  C_3
REMARK    3  A    between atoms: C_2  and  C_4
REMARK    4  A    between atoms: C_7  and  S_10
REMARK    5  A    between atoms: S_10  and  C_13
REMARK    6  A    between atoms: C_18  and  N_19
REMARK    7  A    between atoms: C_23  and  C_26
REMARK    8  A    between atoms: C_23  and  N_29
REMARK                            x       y       z     vdW  Elec       q    Type
REMARK                         _______ _______ _______ _____ _____    ______ ____
ROOT
ATOM      1  C   UNL     1       2.332   4.886   1.662  0.00  0.00    +0.151 A 
ATOM      2  C   UNL     1       3.041   5.801   2.417  0.00  0.00    +0.145 A 
ATOM      3  N   UNL     1       2.631   6.085   3.644  0.00  0.00    -0.221 NA
ATOM      4  C   UNL     1       1.554   5.506   4.154  0.00  0.00    +0.220 A 
ATOM      5  N   UNL     1       0.846   4.625   3.463  0.00  0.00    -0.198 NA
ATOM      6  C   UNL     1       1.198   4.296   2.224  0.00  0.00    +0.147 A 
ATOM      7  N   UNL     1       1.158   5.830   5.439  0.00  0.00    -0.300 N 
ATOM      8  C   UNL     1      -0.231   6.305   5.458  0.00  0.00    +0.107 C 
ATOM      9  C   UNL     1      -0.680   6.515   6.906  0.00  0.00    +0.016 C 
ATOM     10  C   UNL     1       0.238   7.540   7.577  0.00  0.00    +0.015 C 
ATOM     11  C   UNL     1       1.685   7.045   7.501  0.00  0.00    +0.016 C 
ATOM     12  C   UNL     1       2.066   6.819   6.036  0.00  0.00    +0.107 C 
ENDROOT
BRANCH  10  13
ATOM     13  N   UNL     1      -0.151   7.702   8.984  0.00  0.00    +0.389 N 
ATOM     14  C   UNL     1       0.019   6.446   9.726  0.00  0.00    -0.077 C 
ATOM     15  C   UNL     1      -0.256   6.688  11.211  0.00  0.00    -0.019 C 
ATOM     16  C   UNL     1      -1.684   7.214  11.382  0.00  0.00    -0.004 C 
ATOM     17  C   UNL     1      -1.849   8.496  10.562  0.00  0.00    -0.019 C 
ATOM     18  C   UNL     1      -1.528   8.201   9.095  0.00  0.00    -0.077 C 
ATOM     19  H   UNL     1       0.514   8.452   9.437  0.00  0.00    -0.080 HD
ENDBRANCH  10  13
BRANCH  10  20
ATOM     20  C   UNL     1       0.121   8.864   6.866  0.00  0.00    +0.200 C 
ATOM     21  O   UNL     1      -0.315   8.909   5.736  0.00  0.00    -0.278 OA
ATOM     22  N   UNL     1       0.501   9.998   7.487  0.00  0.00    -0.330 N 
ATOM     23  H   UNL     1       0.416  10.964   6.968  0.00  0.00    +0.145 HD
ATOM     24  H   UNL     1       0.897   9.958   8.513  0.00  0.00    +0.145 HD
ENDBRANCH  10  20
BRANCH   1  25
ATOM     25  S   UNL     1       2.842   4.480   0.025  0.00  0.00    +0.030 S 
ATOM     26  O   UNL     1       4.013   5.241  -0.236  0.00  0.00    -0.164 OA
ATOM     27  O   UNL     1       1.683   4.560  -0.793  0.00  0.00    -0.164 OA
BRANCH  25  31
ATOM     28  C   UNL     1       4.106   0.133   0.058  0.00  0.00    -0.045 A 
ATOM     29  C   UNL     1       2.825   0.478  -0.331  0.00  0.00    +0.006 A 
ATOM     30  C   UNL     1       2.439   1.805  -0.340  0.00  0.00    +0.027 A 
ATOM     31  C   UNL     1       3.334   2.788   0.038  0.00  0.00    +0.094 A 
ATOM     32  C   UNL     1       4.615   2.443   0.426  0.00  0.00    +0.027 A 
ATOM     33  C   UNL     1       5.001   1.116   0.436  0.00  0.00    +0.006 A 
BRANCH  28  35
ATOM     34  C   UNL     1       5.710  -1.509  -0.879  0.00  0.00    +0.012 C 
ATOM     35  C   UNL     1       4.526  -1.314   0.070  0.00  0.00    +0.013 C 
ATOM     36  C   UNL     1       4.937  -1.714   1.488  0.00  0.00    +0.012 C 
ENDBRANCH  28  35
ENDBRANCH  25  31
ENDBRANCH   1  25
BRANCH   6  37
ATOM     37  N   UNL     1       0.453   3.378   1.502  0.00  0.00    -0.341 N 
ATOM     38  H   UNL     1      -0.439   2.918   1.953  0.00  0.00    +0.144 HD
ATOM     39  H   UNL     1       0.753   3.109   0.479  0.00  0.00    +0.144 HD
ENDBRANCH   6  37
TORSDOF 6
