REMARK  Name = ZINC46585971
REMARK  7 active torsions:
REMARK  status: ('A' for Active; 'I' for Inactive)
REMARK    1  A    between atoms: C_1  and  C_2
REMARK    2  A    between atoms: C_4  and  C_28
REMARK    3  A    between atoms: C_8  and  N_27
REMARK    4  A    between atoms: C_9  and  C_11
REMARK    5  A    between atoms: C_11  and  O_13
REMARK    6  A    between atoms: O_13  and  C_14
REMARK    7  A    between atoms: C_14  and  C_15
REMARK                            x       y       z     vdW  Elec       q    Type
REMARK                         _______ _______ _______ _____ _____    ______ ____
ROOT
ATOM      1  C   UNL     1       1.979  -0.745   4.319  0.00  0.00    +0.348 C 
ATOM      2  O   UNL     1       2.116   0.412   4.672  0.00  0.00    -0.244 OA
ENDROOT
BRANCH   1  11
ATOM      3  C   UNL     1      -1.696   1.372   0.766  0.00  0.00    +0.044 C 
ATOM      4  C   UNL     1      -1.521  -0.123   0.688  0.00  0.00    -0.037 A 
ATOM      5  C   UNL     1      -2.240  -0.864  -0.221  0.00  0.00    +0.025 A 
ATOM      6  C   UNL     1      -2.078  -2.239  -0.290  0.00  0.00    +0.014 A 
ATOM      7  N   UNL     1      -1.231  -2.853   0.513  0.00  0.00    -0.353 N 
ATOM      8  C   UNL     1      -0.520  -2.189   1.399  0.00  0.00    +0.088 A 
ATOM      9  C   UNL     1      -0.609  -0.786   1.546  0.00  0.00    +0.030 A 
ATOM     10  C   UNL     1       0.254  -0.216   2.569  0.00  0.00    +0.055 A 
ATOM     11  C   UNL     1       1.067  -1.067   3.287  0.00  0.00    +0.119 A 
ATOM     12  S   UNL     1       0.683  -2.671   2.612  0.00  0.00    -0.062 S 
ATOM     13  C   UNL     1      -2.873  -3.037  -1.291  0.00  0.00    +0.063 C 
ATOM     14  H   UNL     1      -1.131  -3.816   0.450  0.00  0.00    +0.166 HD
BRANCH  10  15
ATOM     15  N   UNL     1       0.258   1.149   2.816  0.00  0.00    -0.356 N 
ATOM     16  H   UNL     1       0.106   1.774   2.090  0.00  0.00    +0.142 HD
ATOM     17  H   UNL     1       0.414   1.479   3.715  0.00  0.00    +0.142 HD
ENDBRANCH  10  15
ENDBRANCH   1  11
BRANCH   1  18
ATOM     18  O   UNL     1       2.697  -1.721   4.914  0.00  0.00    -0.454 OA
BRANCH  18  19
ATOM     19  C   UNL     1       3.599  -1.324   5.949  0.00  0.00    +0.288 C 
BRANCH  19  20
ATOM     20  C   UNL     1       4.308  -2.539   6.491  0.00  0.00    +0.086 A 
ATOM     21  C   UNL     1       5.674  -2.669   6.333  0.00  0.00    +0.097 A 
ATOM     22  C   UNL     1       6.309  -3.806   6.845  0.00  0.00    +0.259 A 
ATOM     23  O   UNL     1       7.516  -3.950   6.722  0.00  0.00    -0.267 OA
ATOM     24  N   UNL     1       5.568  -4.740   7.478  0.00  0.00    -0.267 N 
ATOM     25  C   UNL     1       6.173  -5.852   7.981  0.00  0.00    +0.116 A 
ATOM     26  C   UNL     1       5.451  -6.802   8.619  0.00  0.00    +0.058 A 
ATOM     27  C   UNL     1       4.064  -6.651   8.769  0.00  0.00    +0.025 A 
ATOM     28  C   UNL     1       3.451  -5.542   8.268  0.00  0.00    +0.048 A 
ATOM     29  C   UNL     1       4.219  -4.565   7.608  0.00  0.00    +0.141 A 
ATOM     30  N   UNL     1       3.621  -3.478   7.122  0.00  0.00    -0.231 NA
ATOM     31 CL   UNL     1       6.242  -8.211   9.253  0.00  0.00    -0.082 Cl
ENDBRANCH  19  20
ENDBRANCH  18  19
ENDBRANCH   1  18
TORSDOF 5
