REMARK  Name = ZINC57415046
REMARK  7 active torsions:
REMARK  status: ('A' for Active; 'I' for Inactive)
REMARK    1  A    between atoms: C_1  and  O_2
REMARK    2  A    between atoms: O_2  and  C_3
REMARK    3  A    between atoms: C_3  and  C_5
REMARK    4  A    between atoms: C_6  and  C_20
REMARK    5  A    between atoms: C_11  and  C_13
REMARK    6  A    between atoms: C_20  and  N_21
REMARK    7  A    between atoms: C_24  and  C_27
REMARK                            x       y       z     vdW  Elec       q    Type
REMARK                         _______ _______ _______ _____ _____    ______ ____
ROOT
ATOM      1  C   UNL     1      -1.273  -2.035  -0.195  0.00  0.00    +0.079 C 
ATOM      2  C   UNL     1      -2.416  -2.687   0.104  0.00  0.00    +0.038 C 
ATOM      3  N   UNL     1      -2.427  -4.040   0.293  0.00  0.00    -0.271 N 
ATOM      4  C   UNL     1      -1.337  -4.811   0.202  0.00  0.00    +0.304 C 
ATOM      5  O   UNL     1      -1.446  -6.008   0.387  0.00  0.00    -0.252 OA
ATOM      6  N   UNL     1      -0.122  -4.305  -0.090  0.00  0.00    -0.288 N 
ATOM      7  C   UNL     1      -0.004  -2.855  -0.319  0.00  0.00    +0.144 C 
ATOM      8  H   UNL     1      -3.273  -4.465   0.506  0.00  0.00    +0.156 HD
ATOM      9  H   UNL     1       0.655  -4.882  -0.151  0.00  0.00    +0.151 HD
ENDROOT
BRANCH   7  10
ATOM     10  C   UNL     1       0.997  -2.313   0.669  0.00  0.00    -0.021 A 
ATOM     11  C   UNL     1       0.918  -2.674   2.001  0.00  0.00    +0.006 A 
ATOM     12  C   UNL     1       1.836  -2.178   2.908  0.00  0.00    +0.002 A 
ATOM     13  C   UNL     1       2.834  -1.321   2.482  0.00  0.00    +0.020 A 
ATOM     14  C   UNL     1       2.913  -0.959   1.150  0.00  0.00    +0.041 A 
ATOM     15  C   UNL     1       1.997  -1.461   0.242  0.00  0.00    +0.025 A 
ATOM     16 CL   UNL     1       4.165   0.118   0.615  0.00  0.00    -0.084 Cl
ENDBRANCH   7  10
BRANCH   1  17
ATOM     17  C   UNL     1      -1.260  -0.634  -0.392  0.00  0.00    +0.339 C 
ATOM     18  O   UNL     1      -2.306  -0.012  -0.407  0.00  0.00    -0.245 OA
BRANCH  17  20
ATOM     19  C   UNL     1      -0.150   1.427  -0.756  0.00  0.00    +0.280 C 
ATOM     20  O   UNL     1      -0.088   0.013  -0.563  0.00  0.00    -0.465 OA
ENDBRANCH  17  20
ENDBRANCH   1  17
BRANCH   2  21
ATOM     21  C   UNL     1      -3.701  -1.911   0.231  0.00  0.00    +0.135 C 
BRANCH  21  22
ATOM     22  N   UNL     1      -4.307  -1.744  -1.097  0.00  0.00    -0.297 NA
ATOM     23  C   UNL     1      -4.847  -3.017  -1.592  0.00  0.00    +0.085 C 
ATOM     24  C   UNL     1      -5.337  -2.839  -3.031  0.00  0.00    +0.028 C 
ATOM     25  C   UNL     1      -6.418  -1.755  -3.067  0.00  0.00    +0.077 C 
ATOM     26  C   UNL     1      -5.844  -0.454  -2.501  0.00  0.00    +0.028 C 
ATOM     27  C   UNL     1      -5.340  -0.700  -1.078  0.00  0.00    +0.085 C 
BRANCH  25  28
ATOM     28  C   UNL     1      -6.861  -1.534  -4.490  0.00  0.00    +0.214 C 
ATOM     29  O   UNL     1      -6.362  -2.178  -5.388  0.00  0.00    -0.276 OA
ATOM     30  N   UNL     1      -7.812  -0.619  -4.765  0.00  0.00    -0.329 N 
ATOM     31  H   UNL     1      -8.211  -0.103  -4.046  0.00  0.00    +0.145 HD
ATOM     32  H   UNL     1      -8.098  -0.476  -5.681  0.00  0.00    +0.145 HD
ENDBRANCH  25  28
ENDBRANCH  21  22
ENDBRANCH   2  21
TORSDOF 6
