REMARK  Name = ZINC65405950
REMARK  4 active torsions:
REMARK  status: ('A' for Active; 'I' for Inactive)
REMARK    1  A    between atoms: C_1  and  O_2
REMARK    2  A    between atoms: O_2  and  C_3
REMARK    3  A    between atoms: C_8  and  C_9
REMARK    4  A    between atoms: C_9  and  N_10
REMARK                            x       y       z     vdW  Elec       q    Type
REMARK                         _______ _______ _______ _____ _____    ______ ____
ROOT
ATOM      1  C   UNL     1       0.049  -2.824   0.001  0.00  0.00    -0.039 C 
ENDROOT
BRANCH   1   2
ATOM      2  N   UNL     1       0.949  -2.869  -1.159  0.00  0.00    +0.382 N 
ATOM      3  C   UNL     1       1.102  -1.517  -1.710  0.00  0.00    -0.078 C 
ATOM      4  C   UNL     1       2.115  -1.544  -2.858  0.00  0.00    -0.010 C 
ATOM      5  C   UNL     1       1.633  -2.510  -3.932  0.00  0.00    -0.009 C 
ATOM      6  C   UNL     1       1.369  -3.890  -3.346  0.00  0.00    -0.010 C 
ATOM      7  C   UNL     1       0.387  -3.765  -2.177  0.00  0.00    -0.078 C 
ATOM      8  C   UNL     1       0.374  -1.965  -4.628  0.00  0.00    +0.104 C 
ATOM      9  C   UNL     1       0.910  -1.243  -5.846  0.00  0.00    +0.214 C 
ATOM     10  O   UNL     1       0.283  -0.450  -6.516  0.00  0.00    -0.276 OA
ATOM     11  N   UNL     1       2.184  -1.609  -6.077  0.00  0.00    -0.315 N 
ATOM     12  C   UNL     1       2.645  -2.592  -5.087  0.00  0.00    +0.111 C 
ATOM     13  H   UNL     1       2.729  -1.267  -6.803  0.00  0.00    +0.149 HD
ATOM     14  H   UNL     1       1.852  -3.215  -0.869  0.00  0.00    -0.081 HD
ENDBRANCH   1   2
BRANCH   1  20
ATOM     15  C   UNL     1       0.626  -0.619   1.042  0.00  0.00    +0.125 A 
ATOM     16  C   UNL     1       1.202   0.141   2.051  0.00  0.00    +0.095 A 
ATOM     17  C   UNL     1       1.836  -0.491   3.107  0.00  0.00    +0.165 A 
ATOM     18  C   UNL     1       1.895  -1.877   3.156  0.00  0.00    +0.162 A 
ATOM     19  C   UNL     1       1.320  -2.633   2.149  0.00  0.00    +0.054 A 
ATOM     20  C   UNL     1       0.681  -2.003   1.096  0.00  0.00    -0.019 A 
ATOM     21  O   UNL     1       2.522  -2.488   4.204  0.00  0.00    -0.488 OA
ATOM     22  C   UNL     1       3.940  -2.320   4.268  0.00  0.00    +0.232 C 
ATOM     23  C   UNL     1       4.298  -1.015   4.961  0.00  0.00    +0.082 C 
ATOM     24  C   UNL     1       3.832   0.203   4.178  0.00  0.00    +0.232 C 
ATOM     25  O   UNL     1       2.405   0.244   4.107  0.00  0.00    -0.488 OA
BRANCH  15  27
ATOM     26  C   UNL     1      -0.017   1.425   0.010  0.00  0.00    +0.277 C 
ATOM     27  O   UNL     1       0.002  -0.004   0.002  0.00  0.00    -0.495 OA
ENDBRANCH  15  27
ENDBRANCH   1  20
TORSDOF 3
