REMARK  Name = ZINC13249639
REMARK  8 active torsions:
REMARK  status: ('A' for Active; 'I' for Inactive)
REMARK    1  A    between atoms: C_1  and  C_2
REMARK    2  A    between atoms: C_4  and  C_27
REMARK    3  A    between atoms: C_6  and  S_9
REMARK    4  A    between atoms: C_7  and  C_8
REMARK    5  A    between atoms: S_9  and  N_12
REMARK    6  A    between atoms: C_15  and  C_18
REMARK    7  A    between atoms: C_18  and  N_19
REMARK    8  A    between atoms: C_23  and  C_26
REMARK                            x       y       z     vdW  Elec       q    Type
REMARK                         _______ _______ _______ _____ _____    ______ ____
ROOT
ATOM      1  N   UNL     1       1.794  -2.318   3.362  0.00  0.00    -0.103 NA
ATOM      2  C   UNL     1       1.959  -2.879   4.535  0.00  0.00    +0.191 A 
ATOM      3  N   UNL     1       3.044  -2.827   5.383  0.00  0.00    -0.338 N 
ATOM      4  C   UNL     1       2.978  -3.503   6.566  0.00  0.00    +0.008 A 
ATOM      5  C   UNL     1       1.883  -4.194   6.883  0.00  0.00    +0.068 A 
ATOM      6  S   UNL     1       0.835  -3.908   5.466  0.00  0.00    -0.057 S 
ATOM      7  H   UNL     1       3.837  -2.322   5.144  0.00  0.00    +0.167 HD
ENDROOT
BRANCH   1   8
ATOM      8  S   UNL     1       0.375  -2.530   2.535  0.00  0.00    +0.101 S 
ATOM      9  O   UNL     1      -0.637  -1.883   3.293  0.00  0.00    -0.146 OA
ATOM     10  O   UNL     1       0.307  -3.908   2.193  0.00  0.00    -0.146 OA
BRANCH   8  16
ATOM     11  C   UNL     1       0.861   1.946  -0.118  0.00  0.00    +0.044 C 
ATOM     12  C   UNL     1       0.740   0.445  -0.147  0.00  0.00    -0.045 A 
ATOM     13  C   UNL     1       0.742  -0.223  -1.354  0.00  0.00    +0.018 A 
ATOM     14  C   UNL     1       0.630  -1.615  -1.379  0.00  0.00    +0.065 A 
ATOM     15  C   UNL     1       0.517  -2.322  -0.179  0.00  0.00    +0.044 A 
ATOM     16  C   UNL     1       0.517  -1.641   1.020  0.00  0.00    +0.116 A 
ATOM     17  C   UNL     1       0.633  -0.262   1.038  0.00  0.00    -0.021 A 
ATOM     18  C   UNL     1       0.639   0.473   2.353  0.00  0.00    +0.046 C 
BRANCH  14  19
ATOM     19  C   UNL     1       0.631  -2.336  -2.667  0.00  0.00    +0.387 C 
ATOM     20  O   UNL     1       0.729  -1.714  -3.715  0.00  0.00    -0.241 OA
ATOM     21  O   UNL     1       0.533  -3.554  -2.685  0.00  0.00    -0.241 OA
ENDBRANCH  14  19
ENDBRANCH   8  16
ENDBRANCH   1   8
BRANCH   4  22
ATOM     22  C   UNL     1       4.146  -3.468   7.518  0.00  0.00    -0.024 C 
BRANCH  22  23
ATOM     23  N   UNL     1       5.300  -4.135   6.901  0.00  0.00    +0.384 N 
ATOM     24  C   UNL     1       6.476  -3.973   7.764  0.00  0.00    -0.078 C 
ATOM     25  C   UNL     1       7.699  -4.596   7.088  0.00  0.00    -0.018 C 
ATOM     26  C   UNL     1       7.441  -6.086   6.851  0.00  0.00    -0.001 C 
ATOM     27  C   UNL     1       6.170  -6.246   6.011  0.00  0.00    -0.031 C 
ATOM     28  C   UNL     1       5.003  -5.562   6.727  0.00  0.00    -0.075 C 
ATOM     29  C   UNL     1       5.859  -7.734   5.833  0.00  0.00    +0.005 C 
ATOM     30  H   UNL     1       5.486  -3.719   6.001  0.00  0.00    -0.081 HD
ENDBRANCH  22  23
ENDBRANCH   4  22
TORSDOF 5
