REMARK  Name = ZINC12073009
REMARK  11 active torsions:
REMARK  status: ('A' for Active; 'I' for Inactive)
REMARK    1  A    between atoms: C_1  and  N_61
REMARK    2  A    between atoms: C_2  and  N_61
REMARK    3  A    between atoms: C_3  and  C_4
REMARK    4  A    between atoms: C_3  and  N_61
REMARK    5  A    between atoms: C_4  and  N_5
REMARK    6  A    between atoms: N_5  and  C_6
REMARK    7  A    between atoms: C_6  and  C_7
REMARK    8  A    between atoms: C_13  and  C_14
REMARK    9  A    between atoms: C_13  and  N_63
REMARK   10  A    between atoms: C_21  and  C_23
REMARK   11  A    between atoms: C_23  and  C_26
REMARK                            x       y       z     vdW  Elec       q    Type
REMARK                         _______ _______ _______ _____ _____    ______ ____
ROOT
ATOM      1  N   UNL     1      -5.715   5.551   4.950  0.00  0.00    -0.302 N 
ATOM      2  C   UNL     1      -5.848   4.222   5.134  0.00  0.00    +0.231 C 
ATOM      3  O   UNL     1      -5.703   3.463   4.199  0.00  0.00    -0.274 OA
ENDROOT
BRANCH   2   4
ATOM      4  C   UNL     1      -6.177   3.680   6.501  0.00  0.00    +0.123 C 
ATOM      5  C   UNL     1      -7.277   2.621   6.595  0.00  0.00    +0.027 C 
ATOM      6  C   UNL     1      -7.539   4.043   7.096  0.00  0.00    +0.027 C 
BRANCH   4   7
ATOM      7  C   UNL     1      -5.012   3.560   7.450  0.00  0.00    +0.226 C 
ATOM      8  O   UNL     1      -5.032   4.146   8.511  0.00  0.00    -0.275 OA
ATOM      9  N   UNL     1      -3.949   2.801   7.119  0.00  0.00    -0.328 N 
ATOM     10  H   UNL     1      -3.905   2.383   6.245  0.00  0.00    +0.145 HD
ATOM     11  H   UNL     1      -3.227   2.674   7.755  0.00  0.00    +0.145 HD
ENDBRANCH   4   7
ENDBRANCH   2   4
BRANCH   1  12
ATOM     12  C   UNL     1      -5.834   6.463   6.089  0.00  0.00    +0.089 C 
BRANCH  12  13
ATOM     13  C   UNL     1      -7.254   7.031   6.141  0.00  0.00    -0.060 C 
BRANCH  13  16
ATOM     14  C   UNL     1      -6.521   9.164   7.022  0.00  0.00    -0.097 C 
ATOM     15  C   UNL     1      -8.760   8.368   7.486  0.00  0.00    -0.097 C 
ATOM     16  N   UNL     1      -7.352   7.969   7.279  0.00  0.00    +0.377 N 
ATOM     17  H   UNL     1      -7.010   7.501   8.127  0.00  0.00    -0.083 HD
ENDBRANCH  13  16
ENDBRANCH  12  13
ENDBRANCH   1  12
BRANCH   1  18
ATOM     18  C   UNL     1      -5.450   6.082   3.610  0.00  0.00    +0.109 C 
BRANCH  18  19
ATOM     19  C   UNL     1      -3.939   6.157   3.381  0.00  0.00    -0.010 C 
ATOM     20  C   UNL     1      -3.352   4.743   3.374  0.00  0.00    +0.001 C 
ATOM     21  C   UNL     1      -1.851   4.823   3.084  0.00  0.00    -0.018 C 
ATOM     22  C   UNL     1      -1.632   5.532   1.746  0.00  0.00    -0.078 C 
ATOM     23  C   UNL     1      -3.660   6.826   2.033  0.00  0.00    -0.073 C 
ATOM     24  N   UNL     1      -2.198   6.895   1.826  0.00  0.00    +0.383 N 
ATOM     25  H   UNL     1      -1.771   7.386   2.620  0.00  0.00    -0.081 HD
BRANCH  24  26
ATOM     26  C   UNL     1      -1.899   7.639   0.585  0.00  0.00    -0.040 C 
BRANCH  26  27
ATOM     27  C   UNL     1      -0.413   7.883   0.511  0.00  0.00    -0.029 A 
ATOM     28  C   UNL     1       0.105   9.108   0.887  0.00  0.00    +0.004 A 
ATOM     29  C   UNL     1       1.467   9.335   0.814  0.00  0.00    +0.000 A 
ATOM     30  C   UNL     1       2.312   8.336   0.366  0.00  0.00    +0.003 A 
ATOM     31  C   UNL     1       1.796   7.111  -0.010  0.00  0.00    +0.038 A 
ATOM     32  C   UNL     1       0.431   6.883   0.062  0.00  0.00    +0.125 A 
ATOM     33  F   UNL     1      -0.074   5.685  -0.304  0.00  0.00    -0.205 F 
ENDBRANCH  26  27
ENDBRANCH  24  26
ENDBRANCH  18  19
ENDBRANCH   1  18
TORSDOF 9
