REMARK  Name = ZINC13117874
REMARK  6 active torsions:
REMARK  status: ('A' for Active; 'I' for Inactive)
REMARK    1  A    between atoms: C_6  and  C_7
REMARK    2  A    between atoms: C_10  and  S_19
REMARK    3  A    between atoms: N_11  and  C_12
REMARK    4  A    between atoms: C_12  and  C_13
REMARK    5  A    between atoms: S_19  and  C_20
REMARK    6  A    between atoms: C_20  and  C_21
REMARK                            x       y       z     vdW  Elec       q    Type
REMARK                         _______ _______ _______ _____ _____    ______ ____
ROOT
ATOM      1  C   UNL     1      -8.034   4.233   0.044  0.00  0.00    +0.165 A 
ATOM      2  N   UNL     1      -7.475   3.046   0.068  0.00  0.00    -0.128 NA
ATOM      3  N   UNL     1      -6.196   3.164   0.114  0.00  0.00    -0.122 NA
ATOM      4  C   UNL     1      -5.861   4.435   0.131  0.00  0.00    +0.192 A 
ATOM      5  N   UNL     1      -7.018   5.159   0.084  0.00  0.00    -0.300 N 
ENDROOT
BRANCH   1  11
ATOM      6  C   UNL     1     -10.408   3.539   0.346  0.00  0.00    +0.013 A 
ATOM      7  C   UNL     1     -11.758   3.816   0.294  0.00  0.00    +0.021 A 
ATOM      8  C   UNL     1     -12.198   5.059  -0.127  0.00  0.00    +0.041 A 
ATOM      9  C   UNL     1     -11.285   6.035  -0.492  0.00  0.00    +0.021 A 
ATOM     10  C   UNL     1      -9.932   5.773  -0.439  0.00  0.00    +0.013 A 
ATOM     11  C   UNL     1      -9.483   4.521  -0.015  0.00  0.00    +0.019 A 
ATOM     12 CL   UNL     1     -13.899   5.397  -0.198  0.00  0.00    -0.084 Cl
ENDBRANCH   1  11
BRANCH   5  13
ATOM     13  C   UNL     1      -7.149   6.618   0.076  0.00  0.00    +0.157 C 
BRANCH  13  14
ATOM     14  C   UNL     1      -7.085   7.128  -1.365  0.00  0.00    +0.138 C 
ATOM     15  C   UNL     1      -7.276   8.666  -1.400  0.00  0.00    +0.035 C 
ATOM     16  C   UNL     1      -6.559   9.022  -2.731  0.00  0.00    +0.031 C 
ATOM     17  C   UNL     1      -5.411   7.990  -2.771  0.00  0.00    +0.160 C 
ATOM     18  O   UNL     1      -5.778   6.900  -1.917  0.00  0.00    -0.375 OA
ENDBRANCH  13  14
ENDBRANCH   5  13
BRANCH   4  19
ATOM     19  S   UNL     1      -4.224   5.083   0.196  0.00  0.00    -0.077 S 
BRANCH  19  20
ATOM     20  C   UNL     1      -3.277   3.541   0.237  0.00  0.00    +0.173 C 
BRANCH  20  21
ATOM     21  C   UNL     1      -1.804   3.857   0.295  0.00  0.00    +0.233 C 
ATOM     22  O   UNL     1      -1.432   5.011   0.308  0.00  0.00    -0.274 OA
ATOM     23  N   UNL     1      -0.901   2.857   0.333  0.00  0.00    -0.224 N 
ATOM     24  C   UNL     1       0.558   3.029   0.391  0.00  0.00    +0.136 C 
ATOM     25  C   UNL     1       1.099   1.586   0.416  0.00  0.00    +0.125 C 
ATOM     26  N   UNL     1      -0.113   0.755   0.368  0.00  0.00    -0.297 N 
ATOM     27  C   UNL     1      -1.190   1.549   0.318  0.00  0.00    +0.309 C 
ATOM     28  O   UNL     1      -2.327   1.123   0.267  0.00  0.00    -0.252 OA
ATOM     29  H   UNL     1      -0.130  -0.215   0.369  0.00  0.00    +0.150 HD
ENDBRANCH  20  21
ENDBRANCH  19  20
ENDBRANCH   4  19
TORSDOF 6
