REMARK  Name = ZINC18744596
REMARK  14 active torsions:
REMARK  status: ('A' for Active; 'I' for Inactive)
REMARK    1  A    between atoms: C_1  and  C_2
REMARK    2  A    between atoms: C_4  and  C_30
REMARK    3  A    between atoms: C_6  and  O_8
REMARK    4  A    between atoms: O_8  and  C_9
REMARK    5  A    between atoms: C_9  and  C_10
REMARK    6  A    between atoms: C_13  and  S_16
REMARK    7  A    between atoms: N_14  and  N_15
REMARK    8  A    between atoms: S_16  and  C_17
REMARK    9  A    between atoms: C_17  and  C_19
REMARK   10  A    between atoms: C_17  and  C_20
REMARK   11  A    between atoms: N_25  and  C_26
REMARK   12  A    between atoms: C_26  and  C_27
REMARK   13  A    between atoms: C_26  and  C_28
REMARK   14  A    between atoms: C_26  and  C_29
REMARK                            x       y       z     vdW  Elec       q    Type
REMARK                         _______ _______ _______ _____ _____    ______ ____
ROOT
ATOM      1  C   UNL     1       2.657  -6.646   0.943  0.00  0.00    +0.189 A 
ATOM      2  N   UNL     1       1.492  -6.367   0.430  0.00  0.00    -0.128 NA
ATOM      3  N   UNL     1       1.369  -5.096   0.279  0.00  0.00    -0.121 NA
ATOM      4  C   UNL     1       2.459  -4.491   0.691  0.00  0.00    +0.209 A 
ATOM      5  N   UNL     1       3.317  -5.462   1.122  0.00  0.00    -0.225 N 
ENDROOT
BRANCH   5   6
ATOM      6  N   UNL     1       4.573  -5.286   1.630  0.00  0.00    -0.295 N 
ATOM      7  H   UNL     1       4.545  -5.173   2.632  0.00  0.00    +0.163 HD
ATOM      8  H   UNL     1       5.179  -6.049   1.369  0.00  0.00    +0.163 HD
ENDBRANCH   5   6
BRANCH   1   9
ATOM      9  C   UNL     1       3.182  -8.020   1.272  0.00  0.00    +0.306 C 
BRANCH   9  10
ATOM     10  O   UNL     1       3.870  -8.551   0.138  0.00  0.00    -0.484 OA
BRANCH  10  16
ATOM     11  C   UNL     1       4.683 -12.498   2.891  0.00  0.00    +0.044 C 
ATOM     12  C   UNL     1       4.825 -11.745   1.593  0.00  0.00    -0.047 A 
ATOM     13  C   UNL     1       5.504 -12.318   0.533  0.00  0.00    +0.007 A 
ATOM     14  C   UNL     1       5.636 -11.630  -0.659  0.00  0.00    -0.047 A 
ATOM     15  C   UNL     1       5.089 -10.369  -0.794  0.00  0.00    +0.049 A 
ATOM     16  C   UNL     1       4.408  -9.792   0.268  0.00  0.00    +0.122 A 
ATOM     17  C   UNL     1       4.282 -10.482   1.465  0.00  0.00    +0.049 A 
ATOM     18  C   UNL     1       6.375 -12.258  -1.812  0.00  0.00    +0.044 C 
ENDBRANCH  10  16
ENDBRANCH   9  10
ENDBRANCH   1   9
BRANCH   4  19
ATOM     19  S   UNL     1       2.760  -2.755   0.682  0.00  0.00    -0.072 S 
BRANCH  19  20
ATOM     20  C   UNL     1       1.199  -2.169  -0.021  0.00  0.00    +0.137 C 
ATOM     21  C   UNL     1       1.066  -2.673  -1.460  0.00  0.00    +0.029 C 
BRANCH  20  22
ATOM     22  C   UNL     1       1.178  -0.662  -0.013  0.00  0.00    +0.234 C 
ATOM     23  O   UNL     1       2.220  -0.042  -0.019  0.00  0.00    -0.274 OA
ATOM     24  N   UNL     1       0.002  -0.004   0.002  0.00  0.00    -0.239 N 
ATOM     25  C   UNL     1      -0.016   1.344   0.009  0.00  0.00    +0.306 C 
ATOM     26  O   UNL     1       1.028   1.966   0.003  0.00  0.00    -0.252 OA
ATOM     27  N   UNL     1      -1.192   2.002   0.019  0.00  0.00    -0.294 N 
ATOM     28  H   UNL     1      -0.831  -0.500   0.007  0.00  0.00    +0.159 HD
ATOM     29  H   UNL     1      -2.026   1.505   0.020  0.00  0.00    +0.151 HD
BRANCH  27  30
ATOM     30  C   UNL     1      -1.212   3.466   0.027  0.00  0.00    +0.028 C 
ATOM     31  C   UNL     1      -0.504   3.993  -1.223  0.00  0.00    +0.031 C 
ATOM     32  C   UNL     1      -2.662   3.957   0.036  0.00  0.00    +0.031 C 
ATOM     33  C   UNL     1      -0.492   3.979   1.275  0.00  0.00    +0.031 C 
ENDBRANCH  27  30
ENDBRANCH  20  22
ENDBRANCH  19  20
ENDBRANCH   4  19
TORSDOF 8
