REMARK  Name = ZINC66684841
REMARK  8 active torsions:
REMARK  status: ('A' for Active; 'I' for Inactive)
REMARK    1  A    between atoms: C_1  and  C_2
REMARK    2  A    between atoms: C_2  and  C_3
REMARK    3  A    between atoms: N_15  and  C_16
REMARK    4  A    between atoms: C_19  and  C_28
REMARK    5  A    between atoms: C_20  and  C_22
REMARK    6  A    between atoms: N_24  and  C_25
REMARK    7  A    between atoms: C_25  and  C_26
REMARK    8  A    between atoms: C_25  and  C_27
REMARK                            x       y       z     vdW  Elec       q    Type
REMARK                         _______ _______ _______ _____ _____    ______ ____
ROOT
ATOM      1  C   UNL     1      -1.834  -1.029   2.201  0.00  0.00    +0.108 C 
ATOM      2  C   UNL     1      -0.484  -1.362   2.832  0.00  0.00    -0.017 A 
ATOM      3  C   UNL     1      -0.310  -2.373   3.776  0.00  0.00    +0.013 A 
ATOM      4  C   UNL     1       0.917  -2.615   4.290  0.00  0.00    +0.046 A 
ATOM      5  S   UNL     1       1.916  -1.398   3.446  0.00  0.00    -0.101 S 
ATOM      6  C   UNL     1       0.627  -0.659   2.478  0.00  0.00    -0.004 A 
ATOM      7  C   UNL     1       0.727   0.471   1.506  0.00  0.00    +0.062 C 
ATOM      8  C   UNL     1      -0.540   0.487   0.637  0.00  0.00    +0.115 C 
ATOM      9  N   UNL     1      -1.703   0.261   1.510  0.00  0.00    -0.278 N 
ATOM     10  C   UNL     1      -2.633   1.222   1.674  0.00  0.00    +0.307 C 
ATOM     11  O   UNL     1      -2.468   2.319   1.177  0.00  0.00    -0.252 OA
ATOM     12  N   UNL     1      -3.746   0.968   2.390  0.00  0.00    -0.269 N 
ATOM     13  H   UNL     1      -3.834   0.128   2.867  0.00  0.00    +0.156 HD
ENDROOT
BRANCH  12  14
ATOM     14  C   UNL     1      -4.775   1.915   2.446  0.00  0.00    +0.036 A 
ATOM     15  C   UNL     1      -5.040   2.718   1.342  0.00  0.00    +0.023 A 
ATOM     16  C   UNL     1      -6.055   3.655   1.392  0.00  0.00    +0.006 A 
ATOM     17  C   UNL     1      -6.811   3.800   2.537  0.00  0.00    -0.038 A 
ATOM     18  C   UNL     1      -6.553   2.999   3.650  0.00  0.00    +0.041 A 
ATOM     19  C   UNL     1      -5.532   2.050   3.599  0.00  0.00    +0.036 A 
ATOM     20  C   UNL     1      -7.916   4.824   2.586  0.00  0.00    +0.044 C 
BRANCH  18  21
ATOM     21  C   UNL     1      -7.361   3.152   4.878  0.00  0.00    +0.245 C 
ATOM     22  O   UNL     1      -8.325   3.894   4.883  0.00  0.00    -0.270 OA
ATOM     23  N   UNL     1      -7.030   2.470   5.993  0.00  0.00    -0.309 N 
ATOM     24  H   UNL     1      -6.262   1.879   5.989  0.00  0.00    +0.149 HD
BRANCH  23  25
ATOM     25  C   UNL     1      -7.832   2.622   7.210  0.00  0.00    +0.067 C 
ATOM     26  C   UNL     1      -9.026   1.667   7.157  0.00  0.00    +0.027 C 
ATOM     27  C   UNL     1      -6.971   2.295   8.431  0.00  0.00    +0.027 C 
ENDBRANCH  23  25
ENDBRANCH  18  21
ENDBRANCH  12  14
BRANCH   1  29
ATOM     28  C   UNL     1      -3.619  -1.832   0.648  0.00  0.00    +0.006 C 
ATOM     29  C   UNL     1      -2.220  -2.118   1.197  0.00  0.00    +0.024 C 
ENDBRANCH   1  29
TORSDOF 4
