REMARK  Name = ZINC36560520
REMARK  14 active torsions:
REMARK  status: ('A' for Active; 'I' for Inactive)
REMARK    1  A    between atoms: C_1  and  C_2
REMARK    2  A    between atoms: C_2  and  C_3
REMARK    3  A    between atoms: C_3  and  N_4
REMARK    4  A    between atoms: N_4  and  C_5
REMARK    5  A    between atoms: C_5  and  C_7
REMARK    6  A    between atoms: C_5  and  C_16
REMARK    7  A    between atoms: C_8  and  O_15
REMARK    8  A    between atoms: C_10  and  O_14
REMARK    9  A    between atoms: C_12  and  O_13
REMARK   10  A    between atoms: N_18  and  C_19
REMARK   11  A    between atoms: C_19  and  C_20
REMARK   12  A    between atoms: C_19  and  C_21
REMARK   13  A    between atoms: C_19  and  C_22
REMARK   14  A    between atoms: C_23  and  C_25
REMARK                            x       y       z     vdW  Elec       q    Type
REMARK                         _______ _______ _______ _____ _____    ______ ____
ROOT
ATOM      1  C   UNL     1      -1.849  -2.819   1.053  0.00  0.00    +0.199 C 
ENDROOT
BRANCH   1   2
ATOM      2  C   UNL     1      -3.060  -2.294   1.778  0.00  0.00    +0.065 A 
ATOM      3  C   UNL     1      -2.990  -2.017   3.135  0.00  0.00    +0.129 A 
ATOM      4  C   UNL     1      -4.105  -1.533   3.803  0.00  0.00    +0.091 A 
ATOM      5  C   UNL     1      -5.290  -1.326   3.114  0.00  0.00    +0.124 A 
ATOM      6  C   UNL     1      -5.361  -1.602   1.757  0.00  0.00    +0.091 A 
ATOM      7  C   UNL     1      -4.244  -2.082   1.088  0.00  0.00    +0.129 A 
BRANCH   7   8
ATOM      8  O   UNL     1      -4.312  -2.348  -0.243  0.00  0.00    -0.506 OA
ATOM      9  H   UNL     1      -4.584  -3.253  -0.450  0.00  0.00    +0.292 HD
ENDBRANCH   7   8
BRANCH   5  10
ATOM     10  O   UNL     1      -6.383  -0.853   3.768  0.00  0.00    -0.507 OA
ATOM     11  H   UNL     1      -6.449   0.112   3.777  0.00  0.00    +0.292 HD
ENDBRANCH   5  10
BRANCH   3  12
ATOM     12  O   UNL     1      -1.828  -2.219   3.811  0.00  0.00    -0.506 OA
ATOM     13  H   UNL     1      -1.283  -1.426   3.903  0.00  0.00    +0.292 HD
ENDBRANCH   3  12
ENDBRANCH   1   2
BRANCH   1  14
ATOM     14  C   UNL     1      -0.639  -2.700   1.943  0.00  0.00    +0.239 C 
ATOM     15  O   UNL     1       0.119  -1.763   1.814  0.00  0.00    -0.273 OA
ATOM     16  N   UNL     1      -0.400  -3.636   2.883  0.00  0.00    -0.309 N 
ATOM     17  H   UNL     1      -0.978  -4.412   2.954  0.00  0.00    +0.149 HD
BRANCH  16  18
ATOM     18  C   UNL     1       0.735  -3.483   3.798  0.00  0.00    +0.026 C 
ATOM     19  C   UNL     1       0.597  -2.166   4.564  0.00  0.00    +0.031 C 
ATOM     20  C   UNL     1       0.753  -4.649   4.788  0.00  0.00    +0.031 C 
ATOM     21  C   UNL     1       2.038  -3.473   2.997  0.00  0.00    +0.031 C 
ENDBRANCH  16  18
ENDBRANCH   1  14
BRANCH   1  22
ATOM     22  N   UNL     1      -1.634  -2.039  -0.169  0.00  0.00    -0.285 N 
ATOM     23  C   UNL     1      -1.583  -0.694  -0.109  0.00  0.00    +0.220 C 
ATOM     24  O   UNL     1      -1.740  -0.128   0.952  0.00  0.00    -0.275 OA
BRANCH  23  25
ATOM     25  C   UNL     1      -1.331   0.107  -1.360  0.00  0.00    +0.075 C 
ATOM     26  C   UNL     1       0.076  -0.192  -1.881  0.00  0.00    +0.013 C 
ATOM     27  C   UNL     1       0.333   0.621  -3.152  0.00  0.00    +0.001 C 
ATOM     28  C   UNL     1       0.213   2.113  -2.835  0.00  0.00    +0.000 C 
ATOM     29  C   UNL     1      -1.194   2.412  -2.314  0.00  0.00    +0.001 C 
ATOM     30  C   UNL     1      -1.451   1.599  -1.043  0.00  0.00    +0.013 C 
ENDBRANCH  23  25
BRANCH  22  31
ATOM     31  C   UNL     1      -1.476  -2.722  -1.455  0.00  0.00    +0.108 C 
BRANCH  31  33
ATOM     32  C   UNL     1       0.053  -4.131  -2.841  0.00  0.00    +0.005 C 
ATOM     33  C   UNL     1      -0.088  -3.363  -1.525  0.00  0.00    +0.016 C 
ENDBRANCH  31  33
ENDBRANCH  22  31
ENDBRANCH   1  22
TORSDOF 10
