REMARK  Name = ZINC39468833
REMARK  7 active torsions:
REMARK  status: ('A' for Active; 'I' for Inactive)
REMARK    1  A    between atoms: C_1  and  O_2
REMARK    2  A    between atoms: O_2  and  C_3
REMARK    3  A    between atoms: C_6  and  N_11
REMARK    4  A    between atoms: C_7  and  O_9
REMARK    5  A    between atoms: O_9  and  C_10
REMARK    6  A    between atoms: C_12  and  C_23
REMARK    7  A    between atoms: C_28  and  C_29
REMARK                            x       y       z     vdW  Elec       q    Type
REMARK                         _______ _______ _______ _____ _____    ______ ____
ROOT
ATOM      1  N   UNL     1       2.700  -2.592   5.161  0.00  0.00    -0.244 N 
ATOM      2  C   UNL     1       4.063  -3.096   4.995  0.00  0.00    +0.181 C 
ATOM      3  N   UNL     1       4.731  -3.199   6.298  0.00  0.00    -0.324 N 
ATOM      4  C   UNL     1       4.023  -3.727   7.372  0.00  0.00    +0.041 A 
ATOM      5  C   UNL     1       4.659  -4.391   8.408  0.00  0.00    +0.024 A 
ATOM      6  C   UNL     1       3.915  -4.889   9.460  0.00  0.00    +0.002 A 
ATOM      7  C   UNL     1       2.539  -4.729   9.487  0.00  0.00    +0.001 A 
ATOM      8  C   UNL     1       1.889  -4.074   8.462  0.00  0.00    +0.015 A 
ATOM      9  C   UNL     1       2.627  -3.571   7.392  0.00  0.00    +0.058 A 
ATOM     10  C   UNL     1       1.979  -2.881   6.263  0.00  0.00    +0.254 C 
ATOM     11  O   UNL     1       0.802  -2.579   6.324  0.00  0.00    -0.270 OA
ATOM     12  H   UNL     1       5.648  -2.904   6.407  0.00  0.00    +0.148 HD
ENDROOT
BRANCH   1  16
ATOM     13  C   UNL     1       1.018  -0.206   2.178  0.00  0.00    +0.124 A 
ATOM     14  C   UNL     1       2.063   0.280   2.951  0.00  0.00    +0.047 A 
ATOM     15  C   UNL     1       2.619  -0.510   3.938  0.00  0.00    +0.031 A 
ATOM     16  C   UNL     1       2.134  -1.791   4.159  0.00  0.00    +0.080 A 
ATOM     17  C   UNL     1       1.085  -2.280   3.384  0.00  0.00    +0.145 A 
ATOM     18  C   UNL     1       0.526  -1.483   2.398  0.00  0.00    +0.093 A 
BRANCH  13  20
ATOM     19  C   UNL     1       1.029   1.879   1.034  0.00  0.00    +0.277 C 
ATOM     20  O   UNL     1       0.473   0.574   1.206  0.00  0.00    -0.495 OA
ENDBRANCH  13  20
BRANCH  17  21
ATOM     21  O   UNL     1       0.608  -3.534   3.598  0.00  0.00    -0.493 OA
ATOM     22  C   UNL     1      -0.542  -3.928   2.846  0.00  0.00    +0.277 C 
ENDBRANCH  17  21
ENDBRANCH   1  16
BRANCH   2  23
ATOM     23  C   UNL     1       4.016  -4.479   4.343  0.00  0.00    +0.122 C 
ATOM     24  C   UNL     1       3.027  -5.375   5.061  0.00  0.00    +0.121 C 
ATOM     25  N   UNL     1       2.124  -5.687   4.189  0.00  0.00    -0.161 NA
ATOM     26  N   UNL     1       2.364  -5.115   2.944  0.00  0.00    -0.153 NA
ATOM     27  C   UNL     1       3.458  -4.388   2.936  0.00  0.00    +0.089 C 
BRANCH  27  28
ATOM     28  C   UNL     1       4.003  -3.668   1.845  0.00  0.00    +0.036 A 
ATOM     29  C   UNL     1       3.590  -3.643   0.518  0.00  0.00    +0.017 A 
ATOM     30  C   UNL     1       4.325  -2.838  -0.319  0.00  0.00    +0.008 A 
ATOM     31  C   UNL     1       5.373  -2.142   0.188  0.00  0.00    +0.046 A 
ATOM     32  S   UNL     1       5.391  -2.550   1.817  0.00  0.00    -0.095 S 
ENDBRANCH  27  28
ENDBRANCH   2  23
TORSDOF 5
