REMARK  Name = ZINC40920653
REMARK  6 active torsions:
REMARK  status: ('A' for Active; 'I' for Inactive)
REMARK    1  A    between atoms: C_1  and  C_2
REMARK    2  A    between atoms: C_5  and  C_9
REMARK    3  A    between atoms: C_6  and  C_8
REMARK    4  A    between atoms: C_18  and  C_21
REMARK    5  A    between atoms: C_26  and  C_29
REMARK    6  A    between atoms: C_26  and  N_32
REMARK                            x       y       z     vdW  Elec       q    Type
REMARK                         _______ _______ _______ _____ _____    ______ ____
ROOT
ATOM      1  C   UNL     1      -1.403  -4.261   1.509  0.00  0.00    +0.094 A 
ATOM      2  C   UNL     1      -1.563  -4.843   0.247  0.00  0.00    +0.033 A 
ATOM      3  C   UNL     1      -1.390  -6.211   0.137  0.00  0.00    +0.047 A 
ATOM      4  C   UNL     1      -1.067  -6.926   1.292  0.00  0.00    +0.144 A 
ATOM      5  N   UNL     1      -0.935  -6.290   2.447  0.00  0.00    -0.134 NA
ATOM      6  N   UNL     1      -1.090  -5.020   2.550  0.00  0.00    -0.147 NA
ATOM      7  N   UNL     1      -0.885  -8.303   1.230  0.00  0.00    -0.314 N 
ATOM      8  C   UNL     1      -0.786  -9.101   2.459  0.00  0.00    +0.107 C 
ATOM      9  C   UNL     1       0.501  -9.929   2.408  0.00  0.00    +0.032 C 
ATOM     10  C   UNL     1       0.520 -10.755   1.119  0.00  0.00    +0.078 C 
ATOM     11  C   UNL     1       0.501  -9.817  -0.090  0.00  0.00    +0.032 C 
ATOM     12  C   UNL     1      -0.792  -8.988  -0.067  0.00  0.00    +0.107 C 
ENDROOT
BRANCH   1  17
ATOM     13  C   UNL     1      -2.077   1.419   2.175  0.00  0.00    +0.044 C 
ATOM     14  C   UNL     1      -1.901  -0.067   2.001  0.00  0.00    -0.050 A 
ATOM     15  C   UNL     1      -1.132  -0.552   0.958  0.00  0.00    +0.004 A 
ATOM     16  C   UNL     1      -0.966  -1.912   0.794  0.00  0.00    +0.010 A 
ATOM     17  C   UNL     1      -1.576  -2.798   1.681  0.00  0.00    +0.005 A 
ATOM     18  C   UNL     1      -2.350  -2.304   2.729  0.00  0.00    -0.041 A 
ATOM     19  C   UNL     1      -2.503  -0.941   2.887  0.00  0.00    +0.007 A 
ATOM     20  C   UNL     1      -3.012  -3.255   3.692  0.00  0.00    +0.044 C 
ENDBRANCH   1  17
BRANCH  10  21
ATOM     21  C   UNL     1       1.769 -11.597   1.081  0.00  0.00    +0.219 C 
ATOM     22  O   UNL     1       2.741 -11.213   0.466  0.00  0.00    -0.275 OA
ATOM     23  N   UNL     1       1.806 -12.777   1.731  0.00  0.00    -0.301 N 
ATOM     24  C   UNL     1       0.604 -13.308   2.388  0.00  0.00    +0.107 C 
ATOM     25  C   UNL     1       0.940 -13.627   3.848  0.00  0.00    +0.016 C 
ATOM     26  C   UNL     1       2.148 -14.564   3.897  0.00  0.00    +0.015 C 
ATOM     27  C   UNL     1       3.358 -13.873   3.263  0.00  0.00    +0.016 C 
ATOM     28  C   UNL     1       3.048 -13.560   1.791  0.00  0.00    +0.107 C 
BRANCH  26  29
ATOM     29  N   UNL     1       2.453 -14.898   5.295  0.00  0.00    +0.389 N 
ATOM     30  C   UNL     1       1.312 -15.606   5.887  0.00  0.00    -0.077 C 
ATOM     31  C   UNL     1       1.591 -15.885   7.365  0.00  0.00    -0.019 C 
ATOM     32  C   UNL     1       2.849 -16.748   7.488  0.00  0.00    -0.004 C 
ATOM     33  C   UNL     1       4.016 -16.033   6.802  0.00  0.00    -0.019 C 
ATOM     34  C   UNL     1       3.647 -15.749   5.344  0.00  0.00    -0.077 C 
ATOM     35  H   UNL     1       2.624 -14.049   5.813  0.00  0.00    -0.080 HD
ENDBRANCH  26  29
BRANCH  26  36
ATOM     36  C   UNL     1       1.835 -15.827   3.136  0.00  0.00    +0.200 C 
ATOM     37  O   UNL     1       0.685 -16.108   2.876  0.00  0.00    -0.278 OA
ATOM     38  N   UNL     1       2.834 -16.643   2.746  0.00  0.00    -0.330 N 
ATOM     39  H   UNL     1       3.747 -16.456   3.015  0.00  0.00    +0.145 HD
ATOM     40  H   UNL     1       2.640 -17.418   2.196  0.00  0.00    +0.145 HD
ENDBRANCH  26  36
ENDBRANCH  10  21
TORSDOF 4
