REMARK  Name = ZINC19511928
REMARK  4 active torsions:
REMARK  status: ('A' for Active; 'I' for Inactive)
REMARK    1  A    between atoms: C_4  and  S_10
REMARK    2  A    between atoms: C_5  and  C_7
REMARK    3  A    between atoms: C_7  and  N_9
REMARK    4  A    between atoms: S_10  and  N_13
REMARK                            x       y       z     vdW  Elec       q    Type
REMARK                         _______ _______ _______ _____ _____    ______ ____
ROOT
ATOM      1  C   UNL     1       1.947  -0.660   5.169  0.00  0.00    +0.001 A 
ATOM      2  C   UNL     1       0.796  -0.054   5.642  0.00  0.00    +0.002 A 
ATOM      3  C   UNL     1      -0.222   0.288   4.770  0.00  0.00    +0.029 A 
ATOM      4  C   UNL     1      -0.096   0.027   3.421  0.00  0.00    +0.115 A 
ATOM      5  C   UNL     1       1.060  -0.589   2.938  0.00  0.00    +0.029 A 
ATOM      6  C   UNL     1       2.086  -0.927   3.823  0.00  0.00    +0.012 A 
ENDROOT
BRANCH   4   7
ATOM      7  S   UNL     1      -1.394   0.463   2.312  0.00  0.00    +0.062 S 
ATOM      8  O   UNL     1      -2.424   1.043   3.101  0.00  0.00    -0.153 OA
ATOM      9  O   UNL     1      -1.616  -0.669   1.482  0.00  0.00    -0.153 OA
BRANCH   7  10
ATOM     10  N   UNL     1      -0.816   1.664   1.330  0.00  0.00    -0.166 NA
ATOM     11  C   UNL     1      -0.296   1.370  -0.016  0.00  0.00    +0.128 C 
ATOM     12  C   UNL     1      -1.162   2.112  -1.036  0.00  0.00    +0.121 C 
ATOM     13  N   UNL     1      -1.374   3.493  -0.626  0.00  0.00    -0.313 N 
ATOM     14  C   UNL     1      -1.261   3.937   0.626  0.00  0.00    +0.229 C 
ATOM     15  O   UNL     1      -1.539   5.095   0.857  0.00  0.00    -0.274 OA
ATOM     16  C   UNL     1      -0.803   3.069   1.766  0.00  0.00    +0.205 C 
ATOM     17  H   UNL     1      -1.649   4.253  -1.373  0.00  0.00    +0.149 HD
ENDBRANCH   7  10
ENDBRANCH   4   7
BRANCH   5  18
ATOM     18  C   UNL     1       1.200  -0.877   1.496  0.00  0.00    +0.079 C 
ATOM     19  S   UNL     1       0.518  -2.303   0.839  0.00  0.00    -0.035 S 
BRANCH  18  20
ATOM     20  N   UNL     1       1.863  -0.018   0.699  0.00  0.00    -0.352 N 
ATOM     21  H   UNL     1       1.967  -0.232  -0.375  0.00  0.00    +0.143 HD
ATOM     22  H   UNL     1       2.301   0.899   1.121  0.00  0.00    +0.143 HD
ENDBRANCH  18  20
ENDBRANCH   5  18
TORSDOF 4
