REMARK  Name = ZINC40364027
REMARK  7 active torsions:
REMARK  status: ('A' for Active; 'I' for Inactive)
REMARK    1  A    between atoms: C_1  and  C_2
REMARK    2  A    between atoms: C_3  and  S_9
REMARK    3  A    between atoms: C_4  and  C_8
REMARK    4  A    between atoms: S_9  and  N_12
REMARK    5  A    between atoms: N_12  and  C_13
REMARK    6  A    between atoms: C_13  and  C_18
REMARK    7  A    between atoms: C_18  and  N_20
REMARK                            x       y       z     vdW  Elec       q    Type
REMARK                         _______ _______ _______ _____ _____    ______ ____
ROOT
ATOM      1  N   UNL     1       1.840  -0.395  -2.835  0.00  0.00    -0.178 NA
ATOM      2  H   UNL     1       2.163   0.492  -3.058  0.00  0.00    +0.149 HD
ENDROOT
BRANCH   1   3
ATOM      3  C   UNL     1       2.756  -1.538  -2.867  0.00  0.00    +0.084 C 
ATOM      4  C   UNL     1       3.853  -1.324  -3.940  0.00  0.00    +0.030 C 
ATOM      5  C   UNL     1       3.132  -1.725  -5.251  0.00  0.00    +0.002 C 
ATOM      6  C   UNL     1       2.255  -2.929  -4.847  0.00  0.00    +0.002 C 
ATOM      7  C   UNL     1       2.016  -2.810  -3.331  0.00  0.00    +0.030 C 
BRANCH   3   8
ATOM      8  C   UNL     1       3.376  -1.754  -1.511  0.00  0.00    +0.068 C 
ATOM      9  S   UNL     1       3.377  -3.213  -0.855  0.00  0.00    -0.039 S 
BRANCH   8  10
ATOM     10  N   UNL     1       3.930  -0.718  -0.850  0.00  0.00    -0.354 N 
ATOM     11  H   UNL     1       3.863   0.179  -1.212  0.00  0.00    +0.143 HD
ATOM     12  H   UNL     1       4.396  -0.870  -0.013  0.00  0.00    +0.143 HD
ENDBRANCH   8  10
ENDBRANCH   3   8
ENDBRANCH   1   3
BRANCH   1  13
ATOM     13  S   UNL     1       0.253  -0.617  -2.417  0.00  0.00    +0.063 S 
ATOM     14  O   UNL     1      -0.295  -1.518  -3.369  0.00  0.00    -0.153 OA
ATOM     15  O   UNL     1      -0.292   0.675  -2.189  0.00  0.00    -0.153 OA
BRANCH  13  18
ATOM     16  C   UNL     1       0.775   0.562   0.605  0.00  0.00    +0.067 C 
ATOM     17  C   UNL     1       0.462  -0.889   0.345  0.00  0.00    +0.060 A 
ATOM     18  C   UNL     1       0.235  -1.452  -0.865  0.00  0.00    +0.148 A 
ATOM     19  C   UNL     1      -0.016  -2.813  -0.665  0.00  0.00    +0.086 A 
ATOM     20  N   UNL     1       0.057  -3.059   0.618  0.00  0.00    -0.177 NA
ATOM     21  N   UNL     1       0.363  -1.861   1.276  0.00  0.00    -0.280 N 
ATOM     22  H   UNL     1       0.480  -1.749   2.232  0.00  0.00    +0.189 HD
ATOM     23  C   UNL     1      -0.319  -3.823  -1.742  0.00  0.00    +0.069 C 
ENDBRANCH  13  18
ENDBRANCH   1  13
TORSDOF 5
