REMARK  Name = ZINC18195629
REMARK  4 active torsions:
REMARK  status: ('A' for Active; 'I' for Inactive)
REMARK    1  A    between atoms: C_1  and  C_2
REMARK    2  A    between atoms: C_2  and  C_29
REMARK    3  A    between atoms: C_6  and  C_16
REMARK    4  A    between atoms: C_13  and  O_14
REMARK                            x       y       z     vdW  Elec       q    Type
REMARK                         _______ _______ _______ _____ _____    ______ ____
ROOT
ATOM      1  C   UNL     1       2.656   5.609   4.211  0.00  0.00    +0.011 C 
ATOM      2  C   UNL     1       2.927   7.115   4.230  0.00  0.00    -0.023 C 
ATOM      3  C   UNL     1       4.120   7.436   3.328  0.00  0.00    +0.058 C 
ATOM      4  C   UNL     1       3.808   7.030   1.905  0.00  0.00    +0.017 C 
ATOM      5  C   UNL     1       2.543   7.068   1.437  0.00  0.00    +0.027 C 
ATOM      6  C   UNL     1       2.190   6.684   0.016  0.00  0.00    +0.128 C 
ATOM      7  C   UNL     1       3.441   6.600  -0.811  0.00  0.00    +0.070 A 
ATOM      8  C   UNL     1       4.691   6.576  -0.251  0.00  0.00    +0.126 A 
ATOM      9  N   UNL     1       5.588   6.493  -1.250  0.00  0.00    -0.260 N 
ATOM     10  H   UNL     1       6.583   6.456  -1.149  0.00  0.00    +0.190 HD
ATOM     11  N   UNL     1       4.878   6.470  -2.462  0.00  0.00    -0.134 NA
ATOM     12  C   UNL     1       3.593   6.533  -2.193  0.00  0.00    +0.237 A 
ATOM     13  N   UNL     1       4.867   6.636   1.127  0.00  0.00    -0.303 N 
ATOM     14  C   UNL     1       1.478   7.472   2.264  0.00  0.00    +0.162 C 
ATOM     15  O   UNL     1       0.351   7.503   1.809  0.00  0.00    -0.292 OA
ATOM     16  C   UNL     1       1.703   7.867   3.696  0.00  0.00    +0.086 C 
ATOM     17  C   UNL     1       3.227   7.567   5.661  0.00  0.00    +0.011 C 
ATOM     18  H   UNL     1       5.719   6.404   1.529  0.00  0.00    +0.153 HD
ENDROOT
BRANCH   6  19
ATOM     19  C   UNL     1       1.497   5.345   0.015  0.00  0.00    +0.120 A 
ATOM     20  N   UNL     1       2.130   4.141   0.003  0.00  0.00    -0.341 N 
ATOM     21  H   UNL     1       3.118   3.991  -0.007  0.00  0.00    +0.167 HD
ATOM     22  C   UNL     1       1.154   3.165   0.008  0.00  0.00    +0.066 A 
ATOM     23  C   UNL     1       1.175   1.777   0.000  0.00  0.00    +0.028 A 
ATOM     24  C   UNL     1      -0.013   1.076   0.008  0.00  0.00    +0.002 A 
ATOM     25  C   UNL     1      -1.226   1.748   0.017  0.00  0.00    +0.002 A 
ATOM     26  C   UNL     1      -1.266   3.114   0.030  0.00  0.00    +0.030 A 
ATOM     27  C   UNL     1      -0.075   3.845   0.022  0.00  0.00    +0.089 A 
ATOM     28  N   UNL     1       0.208   5.173   0.026  0.00  0.00    -0.232 NA
ENDBRANCH   6  19
BRANCH  12  29
ATOM     29  O   UNL     1       2.586   6.534  -3.107  0.00  0.00    -0.491 OA
ATOM     30  H   UNL     1       2.971   6.479  -4.028  0.00  0.00    +0.294 HD
ENDBRANCH  12  29
TORSDOF 2
