REMARK  Name = ZINC66886294
REMARK  6 active torsions:
REMARK  status: ('A' for Active; 'I' for Inactive)
REMARK    1  A    between atoms: C_4  and  C_7
REMARK    2  A    between atoms: C_7  and  C_8
REMARK    3  A    between atoms: N_10  and  C_11
REMARK    4  A    between atoms: N_14  and  C_17
REMARK    5  A    between atoms: C_17  and  C_18
REMARK    6  A    between atoms: C_18  and  C_19
REMARK                            x       y       z     vdW  Elec       q    Type
REMARK                         _______ _______ _______ _____ _____    ______ ____
ROOT
ATOM      1  C   UNL     1       3.726  -4.080  -3.435  0.00  0.00    +0.069 C 
ATOM      2  C   UNL     1       2.449  -4.723  -3.985  0.00  0.00    +0.003 C 
ATOM      3  C   UNL     1       2.618  -6.244  -4.004  0.00  0.00    -0.077 C 
ATOM      4  N   UNL     1       3.755  -6.603  -4.860  0.00  0.00    +0.380 N 
ATOM      5  C   UNL     1       4.994  -6.049  -4.300  0.00  0.00    -0.077 C 
ATOM      6  C   UNL     1       4.917  -4.521  -4.292  0.00  0.00    +0.003 C 
ATOM      7  H   UNL     1       3.610  -6.229  -5.785  0.00  0.00    -0.082 HD
ENDROOT
BRANCH   1  10
ATOM      8  C   UNL     1       2.999  -1.962  -2.475  0.00  0.00    +0.213 C 
ATOM      9  O   UNL     1       2.561  -2.576  -1.526  0.00  0.00    -0.276 OA
ATOM     10  N   UNL     1       3.601  -2.621  -3.485  0.00  0.00    -0.313 N 
ATOM     11  H   UNL     1       3.951  -2.130  -4.245  0.00  0.00    +0.149 HD
BRANCH   8  12
ATOM     12  C   UNL     1       2.870  -0.461  -2.526  0.00  0.00    +0.099 C 
BRANCH  12  16
ATOM     13  C   UNL     1      -0.019   1.526   0.010  0.00  0.00    +0.000 C 
ATOM     14  C   UNL     1       1.417   2.055  -0.000  0.00  0.00    +0.000 C 
ATOM     15  C   UNL     1       2.133   1.562  -1.259  0.00  0.00    +0.004 C 
ATOM     16  C   UNL     1       2.154   0.032  -1.268  0.00  0.00    -0.002 C 
ATOM     17  C   UNL     1       0.718  -0.497  -1.257  0.00  0.00    +0.004 C 
ATOM     18  C   UNL     1       0.002  -0.004   0.002  0.00  0.00    +0.000 C 
ENDBRANCH  12  16
ENDBRANCH   8  12
ENDBRANCH   1  10
BRANCH   4  19
ATOM     19  C   UNL     1       3.865  -8.065  -4.937  0.00  0.00    -0.070 C 
BRANCH  19  20
ATOM     20  C   UNL     1       4.970  -8.442  -5.926  0.00  0.00    +0.078 C 
BRANCH  20  21
ATOM     21  C   UNL     1       5.083  -9.943  -6.006  0.00  0.00    +0.219 C 
ATOM     22  O   UNL     1       4.352 -10.642  -5.338  0.00  0.00    -0.275 OA
ATOM     23  N   UNL     1       5.997 -10.507  -6.820  0.00  0.00    -0.240 N 
ATOM     24  C   UNL     1       6.098 -11.849  -6.891  0.00  0.00    +0.303 C 
ATOM     25  O   UNL     1       5.365 -12.550  -6.221  0.00  0.00    -0.253 OA
ATOM     26  N   UNL     1       7.012 -12.414  -7.705  0.00  0.00    -0.313 N 
ATOM     27  H   UNL     1       6.582  -9.948  -7.354  0.00  0.00    +0.159 HD
ATOM     28  H   UNL     1       7.597 -11.855  -8.239  0.00  0.00    +0.146 HD
ATOM     29  H   UNL     1       7.084 -13.380  -7.756  0.00  0.00    +0.146 HD
ENDBRANCH  20  21
ENDBRANCH  19  20
ENDBRANCH   4  19
TORSDOF 6
