REMARK  Name = ZINC51710162
REMARK  8 active torsions:
REMARK  status: ('A' for Active; 'I' for Inactive)
REMARK    1  A    between atoms: C_1  and  C_2
REMARK    2  A    between atoms: C_2  and  C_4
REMARK    3  A    between atoms: C_2  and  N_14
REMARK    4  A    between atoms: C_7  and  C_10
REMARK    5  A    between atoms: C_10  and  C_11
REMARK    6  A    between atoms: C_10  and  C_12
REMARK    7  A    between atoms: C_10  and  C_13
REMARK    8  A    between atoms: C_21  and  C_24
REMARK                            x       y       z     vdW  Elec       q    Type
REMARK                         _______ _______ _______ _____ _____    ______ ____
ROOT
ATOM      1  N   UNL     1       0.711  -0.485   1.190  0.00  0.00    -0.293 N 
ATOM      2  C   UNL     1       2.054  -0.600   1.174  0.00  0.00    +0.303 C 
ATOM      3  O   UNL     1       2.670  -0.388   0.147  0.00  0.00    -0.253 OA
ATOM      4  N   UNL     1       2.714  -0.949   2.296  0.00  0.00    -0.280 N 
ATOM      5  C   UNL     1       1.985  -1.327   3.517  0.00  0.00    +0.137 C 
ATOM      6  C   UNL     1       2.546  -2.661   4.022  0.00  0.00    +0.180 C 
ATOM      7  O   UNL     1       3.968  -2.561   4.136  0.00  0.00    -0.364 OA
ATOM      8  C   UNL     1       4.639  -2.317   2.898  0.00  0.00    +0.221 C 
ATOM      9  C   UNL     1       4.185  -0.971   2.333  0.00  0.00    +0.150 C 
ATOM     10  H   UNL     1       0.213  -0.724   1.988  0.00  0.00    +0.151 HD
ENDROOT
BRANCH   8  11
ATOM     11  C   UNL     1       6.128  -2.293   3.128  0.00  0.00    +0.241 C 
ATOM     12  O   UNL     1       6.569  -2.376   4.255  0.00  0.00    -0.273 OA
ATOM     13  N   UNL     1       6.970  -2.178   2.082  0.00  0.00    -0.327 N 
ATOM     14  H   UNL     1       6.618  -2.111   1.181  0.00  0.00    +0.145 HD
ATOM     15  H   UNL     1       7.929  -2.163   2.231  0.00  0.00    +0.145 HD
ENDBRANCH   8  11
BRANCH   1  17
ATOM     16  C   UNL     1      -0.013   1.530   0.008  0.00  0.00    +0.033 C 
ATOM     17  C   UNL     1       0.003  -0.000   0.003  0.00  0.00    +0.102 C 
BRANCH  17  18
ATOM     18  C   UNL     1      -1.413  -0.517   0.016  0.00  0.00    -0.027 A 
ATOM     19  C   UNL     1      -2.123  -0.557   1.202  0.00  0.00    +0.006 A 
ATOM     20  C   UNL     1      -3.421  -1.032   1.214  0.00  0.00    +0.004 A 
ATOM     21  C   UNL     1      -4.010  -1.465   0.041  0.00  0.00    -0.042 A 
ATOM     22  C   UNL     1      -3.300  -1.424  -1.145  0.00  0.00    +0.004 A 
ATOM     23  C   UNL     1      -2.003  -0.946  -1.158  0.00  0.00    +0.006 A 
BRANCH  21  24
ATOM     24  C   UNL     1      -5.425  -1.983   0.054  0.00  0.00    -0.013 C 
ATOM     25  C   UNL     1      -6.365  -0.885   0.555  0.00  0.00    +0.015 C 
ATOM     26  C   UNL     1      -5.831  -2.395  -1.363  0.00  0.00    +0.015 C 
ATOM     27  C   UNL     1      -5.515  -3.196   0.983  0.00  0.00    +0.015 C 
ENDBRANCH  21  24
ENDBRANCH  17  18
ENDBRANCH   1  17
TORSDOF 4
