REMARK  Name = ZINC67583734
REMARK  10 active torsions:
REMARK  status: ('A' for Active; 'I' for Inactive)
REMARK    1  A    between atoms: C_1  and  C_2
REMARK    2  A    between atoms: C_6  and  C_30
REMARK    3  A    between atoms: C_7  and  O_8
REMARK    4  A    between atoms: O_8  and  C_9
REMARK    5  A    between atoms: C_9  and  C_10
REMARK    6  A    between atoms: C_10  and  C_12
REMARK    7  A    between atoms: C_10  and  O_29
REMARK    8  A    between atoms: C_12  and  N_13
REMARK    9  A    between atoms: N_16  and  C_17
REMARK   10  A    between atoms: C_19  and  C_25
REMARK                            x       y       z     vdW  Elec       q    Type
REMARK                         _______ _______ _______ _____ _____    ______ ____
ROOT
ATOM      1  N   UNL     1      -2.202   1.809   6.296  0.00  0.00    -0.297 N 
ATOM      2  C   UNL     1      -3.253   2.118   7.080  0.00  0.00    +0.304 C 
ATOM      3  O   UNL     1      -4.354   1.669   6.825  0.00  0.00    -0.253 OA
ATOM      4  N   UNL     1      -3.085   2.923   8.147  0.00  0.00    -0.265 N 
ATOM      5  H   UNL     1      -1.323   2.167   6.499  0.00  0.00    +0.150 HD
ATOM      6  H   UNL     1      -2.195   3.221   8.394  0.00  0.00    +0.157 HD
ENDROOT
BRANCH   4   7
ATOM      7  C   UNL     1      -4.195   3.330   8.901  0.00  0.00    +0.100 A 
ATOM      8  C   UNL     1      -4.265   3.049  10.238  0.00  0.00    +0.042 A 
ATOM      9  C   UNL     1      -5.386   3.468  10.968  0.00  0.00    +0.073 A 
ATOM     10  C   UNL     1      -6.383   4.143  10.350  0.00  0.00    +0.098 A 
ATOM     11  N   UNL     1      -6.315   4.423   9.021  0.00  0.00    -0.327 N 
ATOM     12  H   UNL     1      -7.040   4.908   8.596  0.00  0.00    +0.168 HD
ATOM     13  C   UNL     1      -5.251   4.041   8.290  0.00  0.00    +0.270 A 
ATOM     14  O   UNL     1      -5.202   4.305   7.099  0.00  0.00    -0.266 OA
BRANCH   9  15
ATOM     15  C   UNL     1      -5.481   3.167  12.441  0.00  0.00    +0.419 C 
ATOM     16  F   UNL     1      -6.681   3.681  12.946  0.00  0.00    -0.166 F 
ATOM     17  F   UNL     1      -5.449   1.782  12.637  0.00  0.00    -0.166 F 
ATOM     18  F   UNL     1      -4.403   3.757  13.108  0.00  0.00    -0.166 F 
ENDBRANCH   9  15
ENDBRANCH   4   7
BRANCH   1  19
ATOM     19  C   UNL     1      -2.385   0.933   5.136  0.00  0.00    +0.140 C 
BRANCH  19  20
ATOM     20  C   UNL     1      -1.045   0.745   4.422  0.00  0.00    +0.169 C 
BRANCH  20  21
ATOM     21  O   UNL     1      -0.554   2.015   3.987  0.00  0.00    -0.387 OA
ATOM     22  H   UNL     1      -1.142   2.475   3.373  0.00  0.00    +0.210 HD
ENDBRANCH  20  21
BRANCH  20  23
ATOM     23  C   UNL     1      -1.236  -0.169   3.210  0.00  0.00    +0.261 C 
BRANCH  23  24
ATOM     24  O   UNL     1       0.033  -0.439   2.612  0.00  0.00    -0.489 OA
BRANCH  24  31
ATOM     25  C   UNL     1      -0.229   0.801   0.087  0.00  0.00    +0.047 C 
ATOM     26  C   UNL     1      -0.085  -0.691   0.249  0.00  0.00    -0.009 A 
ATOM     27  C   UNL     1      -0.071  -1.509  -0.864  0.00  0.00    +0.007 A 
ATOM     28  C   UNL     1       0.061  -2.877  -0.716  0.00  0.00    +0.001 A 
ATOM     29  C   UNL     1       0.180  -3.430   0.546  0.00  0.00    +0.007 A 
ATOM     30  C   UNL     1       0.167  -2.616   1.662  0.00  0.00    -0.009 A 
ATOM     31  C   UNL     1       0.040  -1.243   1.516  0.00  0.00    +0.126 A 
ATOM     32  C   UNL     1       0.296  -3.220   3.037  0.00  0.00    +0.047 C 
ENDBRANCH  24  31
ENDBRANCH  23  24
ENDBRANCH  20  23
ENDBRANCH  19  20
ENDBRANCH   1  19
TORSDOF 8
