REMARK  Name = ZINC16032980
REMARK  8 active torsions:
REMARK  status: ('A' for Active; 'I' for Inactive)
REMARK    1  A    between atoms: C_1  and  C_2
REMARK    2  A    between atoms: C_2  and  C_3
REMARK    3  A    between atoms: C_14  and  C_17
REMARK    4  A    between atoms: C_17  and  C_18
REMARK    5  A    between atoms: C_18  and  C_19
REMARK    6  A    between atoms: N_24  and  C_27
REMARK    7  A    between atoms: C_27  and  C_28
REMARK    8  A    between atoms: C_28  and  C_29
REMARK                            x       y       z     vdW  Elec       q    Type
REMARK                         _______ _______ _______ _____ _____    ______ ____
ROOT
ATOM      1  C   UNL     1      -0.203  -2.866   0.540  0.00  0.00    -0.047 A 
ATOM      2  C   UNL     1       0.940  -3.620   0.344  0.00  0.00    +0.005 A 
ATOM      3  C   UNL     1       1.705  -4.019   1.420  0.00  0.00    +0.024 A 
ATOM      4  C   UNL     1       1.331  -3.667   2.715  0.00  0.00    +0.039 A 
ATOM      5  C   UNL     1       0.178  -2.910   2.901  0.00  0.00    +0.004 A 
ATOM      6  C   UNL     1      -0.579  -2.507   1.823  0.00  0.00    +0.011 A 
ATOM      7  C   UNL     1       0.054  -2.708   4.385  0.00  0.00    +0.136 C 
ATOM      8  C   UNL     1       0.049  -1.220   4.755  0.00  0.00    +0.122 C 
ATOM      9  C   UNL     1      -0.925  -1.122   5.963  0.00  0.00    +0.107 C 
ATOM     10  C   UNL     1      -1.392  -2.571   6.215  0.00  0.00    +0.068 C 
ATOM     11  N   UNL     1      -1.214  -3.258   4.901  0.00  0.00    -0.295 NA
ATOM     12  C   UNL     1      -2.071  -0.299   5.420  0.00  0.00    +0.227 C 
ATOM     13  O   UNL     1      -3.065   0.011   6.041  0.00  0.00    -0.275 OA
ATOM     14  N   UNL     1      -1.818   0.033   4.149  0.00  0.00    -0.241 N 
ATOM     15  C   UNL     1      -0.640  -0.428   3.667  0.00  0.00    +0.228 C 
ATOM     16  O   UNL     1      -0.204  -0.243   2.551  0.00  0.00    -0.275 OA
ATOM     17  C   UNL     1       1.241  -3.418   4.976  0.00  0.00    +0.243 C 
ATOM     18  O   UNL     1       1.523  -3.500   6.153  0.00  0.00    -0.273 OA
ATOM     19  N   UNL     1       1.929  -3.945   3.945  0.00  0.00    -0.283 N 
ATOM     20  H   UNL     1      -1.977  -3.059   4.272  0.00  0.00    +0.123 HD
ATOM     21  H   UNL     1       2.746  -4.459   4.046  0.00  0.00    +0.155 HD
ENDROOT
BRANCH   1  23
ATOM     22  C   UNL     1      -0.531  -1.079  -1.147  0.00  0.00    +0.009 C 
ATOM     23  C   UNL     1      -1.034  -2.432  -0.639  0.00  0.00    +0.032 C 
ENDBRANCH   1  23
BRANCH  10  24
ATOM     24  C   UNL     1      -0.538  -3.223   7.305  0.00  0.00    +0.031 C 
BRANCH  24  25
ATOM     25  C   UNL     1      -1.198  -3.005   8.668  0.00  0.00    +0.126 C 
BRANCH  25  26
ATOM     26  C   UNL     1      -0.357  -3.647   9.741  0.00  0.00    +0.356 C 
ATOM     27  O   UNL     1       0.674  -4.225   9.443  0.00  0.00    -0.246 OA
ATOM     28  O   UNL     1      -0.708  -3.589  10.907  0.00  0.00    -0.246 OA
ENDBRANCH  25  26
ENDBRANCH  24  25
ENDBRANCH  10  24
BRANCH  14  29
ATOM     29  C   UNL     1      -2.739   0.837   3.342  0.00  0.00    +0.121 C 
BRANCH  29  30
ATOM     30  C   UNL     1      -2.399   2.320   3.506  0.00  0.00    +0.054 C 
BRANCH  30  31
ATOM     31  C   UNL     1      -3.346   3.147   2.676  0.00  0.00    -0.046 A 
ATOM     32  C   UNL     1      -3.030   3.452   1.365  0.00  0.00    +0.004 A 
ATOM     33  C   UNL     1      -3.899   4.211   0.603  0.00  0.00    +0.000 A 
ATOM     34  C   UNL     1      -5.084   4.665   1.153  0.00  0.00    +0.000 A 
ATOM     35  C   UNL     1      -5.400   4.359   2.463  0.00  0.00    +0.000 A 
ATOM     36  C   UNL     1      -4.533   3.596   3.223  0.00  0.00    +0.004 A 
ENDBRANCH  30  31
ENDBRANCH  29  30
ENDBRANCH  14  29
TORSDOF 7
