REMARK  Name = ZINC32859615
REMARK  5 active torsions:
REMARK  status: ('A' for Active; 'I' for Inactive)
REMARK    1  A    between atoms: C_1  and  C_2
REMARK    2  A    between atoms: N_11  and  C_15
REMARK    3  A    between atoms: C_15  and  C_16
REMARK    4  A    between atoms: C_20  and  S_22
REMARK    5  A    between atoms: S_22  and  N_25
REMARK                            x       y       z     vdW  Elec       q    Type
REMARK                         _______ _______ _______ _____ _____    ______ ____
ROOT
ATOM      1  C   UNL     1       1.229  -2.186  -0.022  0.00  0.00    +0.153 C 
ENDROOT
BRANCH   1  11
ATOM      2  C   UNL     1       1.837  -5.730  -2.657  0.00  0.00    +0.010 C 
ATOM      3  C   UNL     1       2.337  -4.791  -3.757  0.00  0.00    +0.018 C 
ATOM      4  C   UNL     1       1.806  -5.265  -5.113  0.00  0.00    +0.006 C 
ATOM      5  C   UNL     1       2.291  -4.315  -6.210  0.00  0.00    +0.000 C 
ATOM      6  C   UNL     1       1.766  -2.905  -5.932  0.00  0.00    +0.003 C 
ATOM      7  C   UNL     1       2.297  -2.421  -4.580  0.00  0.00    +0.035 C 
ATOM      8  C   UNL     1       1.843  -3.376  -3.481  0.00  0.00    +0.115 C 
ATOM      9  C   UNL     1       2.334  -2.900  -2.134  0.00  0.00    +0.247 C 
ATOM     10  O   UNL     1       3.485  -2.757  -1.780  0.00  0.00    -0.273 OA
ATOM     11  N   UNL     1       1.222  -2.666  -1.406  0.00  0.00    -0.220 N 
ATOM     12  C   UNL     1       0.112  -2.933  -2.104  0.00  0.00    +0.310 C 
ATOM     13  O   UNL     1      -1.013  -2.805  -1.661  0.00  0.00    -0.252 OA
ATOM     14  N   UNL     1       0.380  -3.357  -3.355  0.00  0.00    -0.285 N 
ATOM     15  H   UNL     1      -0.250  -3.658  -4.205  0.00  0.00    +0.151 HD
ENDBRANCH   1  11
BRANCH   1  16
ATOM     16  C   UNL     1       1.209  -0.679  -0.014  0.00  0.00    -0.028 A 
ATOM     17  C   UNL     1       0.002  -0.004   0.002  0.00  0.00    +0.005 A 
ATOM     18  C   UNL     1      -0.017   1.378   0.010  0.00  0.00    +0.002 A 
ATOM     19  C   UNL     1       1.171   2.085   0.002  0.00  0.00    +0.028 A 
ATOM     20  C   UNL     1       2.377   1.411  -0.014  0.00  0.00    +0.106 A 
ATOM     21  C   UNL     1       2.396   0.028  -0.022  0.00  0.00    +0.033 A 
BRANCH  20  22
ATOM     22  S   UNL     1       3.891   2.312  -0.025  0.00  0.00    +0.061 S 
ATOM     23  O   UNL     1       3.608   3.587   0.536  0.00  0.00    -0.153 OA
ATOM     24  O   UNL     1       4.883   1.447   0.511  0.00  0.00    -0.153 OA
BRANCH  22  25
ATOM     25  N   UNL     1       4.295   2.571  -1.610  0.00  0.00    -0.172 NA
ATOM     26  C   UNL     1       5.131   1.609  -2.345  0.00  0.00    +0.137 C 
ATOM     27  C   UNL     1       4.424   1.275  -3.669  0.00  0.00    +0.177 C 
ATOM     28  O   UNL     1       4.107   2.490  -4.351  0.00  0.00    -0.377 OA
ATOM     29  C   UNL     1       3.196   3.337  -3.645  0.00  0.00    +0.177 C 
ATOM     30  C   UNL     1       3.835   3.774  -2.322  0.00  0.00    +0.137 C 
ENDBRANCH  22  25
ENDBRANCH  20  22
ENDBRANCH   1  16
TORSDOF 4
