REMARK  Name = ZINC19236276
REMARK  8 active torsions:
REMARK  status: ('A' for Active; 'I' for Inactive)
REMARK    1  A    between atoms: C_1  and  C_2
REMARK    2  A    between atoms: C_6  and  C_8
REMARK    3  A    between atoms: C_8  and  N_9
REMARK    4  A    between atoms: C_16  and  C_18
REMARK    5  A    between atoms: C_26  and  C_29
REMARK    6  A    between atoms: C_29  and  C_30
REMARK    7  A    between atoms: C_29  and  C_31
REMARK    8  A    between atoms: C_29  and  C_32
REMARK                            x       y       z     vdW  Elec       q    Type
REMARK                         _______ _______ _______ _____ _____    ______ ____
ROOT
ATOM      1  N   UNL     1       0.096  -0.100  -0.017  0.00  0.00    +0.384 N 
ATOM      2  C   UNL     1       0.015   1.360   0.016  0.00  0.00    -0.077 C 
ATOM      3  C   UNL     1       1.414   1.933   0.003  0.00  0.00    +0.000 C 
ATOM      4  C   UNL     1       1.843   2.217  -1.447  0.00  0.00    +0.106 C 
ATOM      5  N   UNL     1       1.397   1.144  -2.357  0.00  0.00    -0.298 N 
ATOM      6  C   UNL     1       1.478  -0.259  -2.006  0.00  0.00    +0.089 C 
ATOM      7  C   UNL     1       0.172  -0.695  -1.298  0.00  0.00    -0.059 C 
ATOM      8  C   UNL     1       0.895   1.483  -3.562  0.00  0.00    +0.267 C 
ATOM      9  O   UNL     1       0.762   2.655  -3.856  0.00  0.00    -0.268 OA
ATOM     10  H   UNL     1       1.087  -0.338   0.396  0.00  0.00    -0.081 HD
ENDROOT
BRANCH   8  11
ATOM     11  C   UNL     1       0.507   0.431  -4.523  0.00  0.00    +0.150 A 
ATOM     12  C   UNL     1       0.084   0.621  -5.849  0.00  0.00    +0.006 A 
ATOM     13  C   UNL     1      -0.159  -0.618  -6.343  0.00  0.00    +0.040 A 
ATOM     14  N   UNL     1       0.097  -1.496  -5.359  0.00  0.00    -0.281 N 
ATOM     15  H   UNL     1      -0.038  -2.573  -5.534  0.00  0.00    +0.189 HD
ATOM     16  N   UNL     1       0.486  -0.872  -4.301  0.00  0.00    -0.169 NA
ATOM     17  C   UNL     1      -0.630  -0.884  -7.750  0.00  0.00    +0.055 C 
ATOM     18  C   UNL     1      -0.372   0.373  -8.591  0.00  0.00    +0.010 C 
ATOM     19  C   UNL     1      -0.931   1.600  -7.867  0.00  0.00    -0.001 C 
ATOM     20  C   UNL     1      -0.076   1.897  -6.627  0.00  0.00    +0.043 C 
BRANCH  19  21
ATOM     21  C   UNL     1      -0.901   2.806  -8.808  0.00  0.00    -0.035 C 
ATOM     22  C   UNL     1      -1.754   2.510 -10.043  0.00  0.00    +0.011 C 
ATOM     23  C   UNL     1      -1.460   4.032  -8.084  0.00  0.00    +0.011 C 
ATOM     24  C   UNL     1       0.541   3.080  -9.238  0.00  0.00    +0.011 C 
ENDBRANCH  19  21
ENDBRANCH   8  11
BRANCH   1  25
ATOM     25  C   UNL     1      -0.979  -0.705   0.781  0.00  0.00    -0.022 C 
BRANCH  25  31
ATOM     26  C   UNL     1      -1.410  -5.213  -1.039  0.00  0.00    +0.065 C 
ATOM     27  C   UNL     1      -0.928  -4.311   0.068  0.00  0.00    +0.038 A 
ATOM     28  C   UNL     1      -0.282  -4.856   1.161  0.00  0.00    +0.023 A 
ATOM     29  C   UNL     1       0.157  -4.018   2.174  0.00  0.00    +0.003 A 
ATOM     30  C   UNL     1      -0.071  -2.656   2.049  0.00  0.00    +0.021 A 
ATOM     31  C   UNL     1      -0.725  -2.183   0.927  0.00  0.00    +0.025 A 
ATOM     32  N   UNL     1      -1.134  -3.011  -0.015  0.00  0.00    -0.259 NA
ENDBRANCH  25  31
ENDBRANCH   1  25
TORSDOF 4
