REMARK  Name = ZINC44357821
REMARK  8 active torsions:
REMARK  status: ('A' for Active; 'I' for Inactive)
REMARK    1  A    between atoms: C_1  and  C_2
REMARK    2  A    between atoms: C_2  and  O_3
REMARK    3  A    between atoms: O_3  and  C_4
REMARK    4  A    between atoms: C_4  and  C_6
REMARK    5  A    between atoms: C_6  and  C_8
REMARK    6  A    between atoms: C_6  and  N_28
REMARK    7  A    between atoms: C_8  and  C_9
REMARK    8  A    between atoms: C_10  and  C_21
REMARK                            x       y       z     vdW  Elec       q    Type
REMARK                         _______ _______ _______ _____ _____    ______ ____
ROOT
ATOM      1  C   UNL     1       3.462  -2.817  -3.733  0.00  0.00    +0.051 A 
ATOM      2  C   UNL     1       4.115  -3.994  -3.881  0.00  0.00    +0.093 A 
ATOM      3  N   UNL     1       4.894  -3.906  -4.980  0.00  0.00    -0.221 NA
ATOM      4  C   UNL     1       4.742  -2.725  -5.508  0.00  0.00    +0.179 A 
ATOM      5  N   UNL     1       3.853  -1.988  -4.781  0.00  0.00    -0.290 N 
ATOM      6  C   UNL     1       3.562  -0.686  -5.209  0.00  0.00    +0.063 A 
ATOM      7  C   UNL     1       2.682   0.220  -4.595  0.00  0.00    +0.027 A 
ATOM      8  C   UNL     1       2.486   1.476  -5.120  0.00  0.00    +0.002 A 
ATOM      9  C   UNL     1       3.146   1.886  -6.266  0.00  0.00    +0.001 A 
ATOM     10  C   UNL     1       4.018   1.013  -6.891  0.00  0.00    +0.017 A 
ATOM     11  C   UNL     1       4.214  -0.243  -6.365  0.00  0.00    +0.039 A 
ATOM     12  S   UNL     1       5.220  -1.632  -6.827  0.00  0.00    -0.049 S 
ENDROOT
BRANCH   2  13
ATOM     13  C   UNL     1       3.997  -5.174  -2.989  0.00  0.00    +0.002 A 
ATOM     14  C   UNL     1       3.891  -6.452  -3.533  0.00  0.00    +0.013 A 
ATOM     15  C   UNL     1       3.781  -7.547  -2.700  0.00  0.00    +0.039 A 
ATOM     16  C   UNL     1       3.776  -7.376  -1.325  0.00  0.00    +0.123 A 
ATOM     17  C   UNL     1       3.881  -6.107  -0.780  0.00  0.00    +0.039 A 
ATOM     18  C   UNL     1       3.997  -5.007  -1.605  0.00  0.00    +0.013 A 
ATOM     19  F   UNL     1       3.668  -8.450  -0.513  0.00  0.00    -0.205 F 
ENDBRANCH   2  13
BRANCH   1  20
ATOM     20  C   UNL     1       2.486  -2.470  -2.639  0.00  0.00    +0.051 C 
BRANCH  20  21
ATOM     21  C   UNL     1       1.060  -2.731  -3.126  0.00  0.00    +0.042 C 
BRANCH  21  22
ATOM     22  N   UNL     1       0.880  -4.170  -3.365  0.00  0.00    +0.387 N 
ATOM     23  H   UNL     1       1.041  -4.676  -2.508  0.00  0.00    -0.089 HD
ATOM     24  H   UNL     1      -0.061  -4.342  -3.687  0.00  0.00    -0.089 HD
ATOM     25  H   UNL     1       1.537  -4.478  -4.066  0.00  0.00    -0.089 HD
ENDBRANCH  21  22
BRANCH  21  26
ATOM     26  C   UNL     1       0.079  -2.270  -2.079  0.00  0.00    +0.293 C 
ATOM     27  O   UNL     1      -0.429  -3.072  -1.332  0.00  0.00    -0.253 OA
BRANCH  26  28
ATOM     28  O   UNL     1      -0.231  -0.968  -1.977  0.00  0.00    -0.466 OA
BRANCH  28  30
ATOM     29  C   UNL     1      -1.393   0.911  -0.998  0.00  0.00    +0.048 C 
ATOM     30  C   UNL     1      -1.167  -0.601  -0.962  0.00  0.00    +0.228 C 
ENDBRANCH  28  30
ENDBRANCH  26  28
ENDBRANCH  21  26
ENDBRANCH  20  21
ENDBRANCH   1  20
TORSDOF 7
