REMARK  Name = ZINC63133238
REMARK  8 active torsions:
REMARK  status: ('A' for Active; 'I' for Inactive)
REMARK    1  A    between atoms: C_1  and  S_2
REMARK    2  A    between atoms: S_2  and  N_5
REMARK    3  A    between atoms: N_5  and  C_6
REMARK    4  A    between atoms: C_9  and  C_12
REMARK    5  A    between atoms: C_12  and  C_14
REMARK    6  A    between atoms: C_14  and  S_15
REMARK    7  A    between atoms: S_15  and  C_16
REMARK    8  A    between atoms: C_19  and  C_21
REMARK                            x       y       z     vdW  Elec       q    Type
REMARK                         _______ _______ _______ _____ _____    ______ ____
ROOT
ATOM      1  S   UNL     1       2.412  -7.995  -4.101  0.00  0.00    -0.058 S 
ENDROOT
BRANCH   1   2
ATOM      2  C   UNL     1       3.277  -8.264  -5.613  0.00  0.00    +0.278 A 
ATOM      3  N   UNL     1       3.739  -7.327  -6.427  0.00  0.00    -0.101 NA
ATOM      4  N   UNL     1       4.316  -7.883  -7.433  0.00  0.00    -0.107 NA
ATOM      5  C   UNL     1       4.247  -9.198  -7.304  0.00  0.00    +0.248 A 
ATOM      6  O   UNL     1       3.593  -9.457  -6.146  0.00  0.00    -0.411 OA
BRANCH   5   7
ATOM      7  C   UNL     1       4.761 -10.149  -8.197  0.00  0.00    +0.044 C 
ATOM      8  C   UNL     1       5.448  -9.904  -9.387  0.00  0.00    +0.008 A 
ATOM      9  C   UNL     1       5.825  -8.712 -10.041  0.00  0.00    +0.010 A 
ATOM     10  C   UNL     1       6.503  -8.774 -11.216  0.00  0.00    +0.001 A 
ATOM     11  C   UNL     1       6.840  -9.997 -11.802  0.00  0.00    +0.002 A 
ATOM     12  C   UNL     1       6.510 -11.180 -11.229  0.00  0.00    +0.026 A 
ATOM     13  C   UNL     1       5.801 -11.195 -10.000  0.00  0.00    +0.043 A 
ATOM     14  N   UNL     1       5.370 -12.193  -9.254  0.00  0.00    -0.380 N 
ATOM     15  C   UNL     1       4.694 -11.655  -8.070  0.00  0.00    +0.154 C 
ATOM     16  H   UNL     1       5.486 -13.135  -9.455  0.00  0.00    +0.160 HD
ENDBRANCH   5   7
ENDBRANCH   1   2
BRANCH   1  17
ATOM     17  C   UNL     1       2.316  -6.189  -3.965  0.00  0.00    +0.158 C 
BRANCH  17  18
ATOM     18  C   UNL     1       1.590  -5.819  -2.698  0.00  0.00    +0.173 C 
ATOM     19  O   UNL     1       1.177  -6.688  -1.960  0.00  0.00    -0.291 OA
BRANCH  18  23
ATOM     20  C   UNL     1       0.991  -1.748  -1.716  0.00  0.00    +0.074 A 
ATOM     21  C   UNL     1       0.515  -2.744  -0.867  0.00  0.00    +0.027 A 
ATOM     22  C   UNL     1       0.706  -4.060  -1.180  0.00  0.00    +0.013 A 
ATOM     23  C   UNL     1       1.381  -4.406  -2.358  0.00  0.00    +0.018 A 
ATOM     24  C   UNL     1       1.858  -3.401  -3.209  0.00  0.00    +0.013 A 
ATOM     25  C   UNL     1       1.658  -2.088  -2.891  0.00  0.00    +0.027 A 
BRANCH  20  26
ATOM     26  N   UNL     1       0.795  -0.411  -1.394  0.00  0.00    -0.103 NA
BRANCH  26  28
ATOM     27  C   UNL     1      -0.022   1.810   0.012  0.00  0.00    +0.220 C 
ATOM     28  S   UNL     1       0.002  -0.004   0.002  0.00  0.00    +0.059 S 
ATOM     29  O   UNL     1       0.835  -0.488   1.046  0.00  0.00    -0.154 OA
ATOM     30  O   UNL     1      -1.315  -0.510  -0.168  0.00  0.00    -0.154 OA
ENDBRANCH  26  28
ENDBRANCH  20  26
ENDBRANCH  18  23
ENDBRANCH  17  18
ENDBRANCH   1  17
TORSDOF 7
