REMARK  Name = ZINC21263853
REMARK  14 active torsions:
REMARK  status: ('A' for Active; 'I' for Inactive)
REMARK    1  A    between atoms: C_1  and  C_2
REMARK    2  A    between atoms: C_2  and  C_30
REMARK    3  A    between atoms: C_4  and  N_10
REMARK    4  A    between atoms: C_6  and  C_8
REMARK    5  A    between atoms: C_6  and  C_9
REMARK    6  A    between atoms: N_10  and  C_11
REMARK    7  A    between atoms: C_11  and  N_13
REMARK    8  A    between atoms: N_13  and  C_14
REMARK    9  A    between atoms: N_13  and  C_20
REMARK   10  A    between atoms: C_14  and  C_15
REMARK   11  A    between atoms: C_22  and  C_28
REMARK   12  A    between atoms: C_22  and  C_29
REMARK   13  A    between atoms: C_24  and  C_26
REMARK   14  A    between atoms: C_24  and  C_27
REMARK                            x       y       z     vdW  Elec       q    Type
REMARK                         _______ _______ _______ _____ _____    ______ ____
ROOT
ATOM      1  N   UNL     1       0.170   7.044  -2.408  0.00  0.00    -0.302 N 
ENDROOT
BRANCH   1   2
ATOM      2  C   UNL     1       0.596   7.795  -1.220  0.00  0.00    +0.073 C 
ATOM      3  C   UNL     1       2.030   7.404  -0.864  0.00  0.00    +0.009 C 
ATOM      4  C   UNL     1       2.491   8.153   0.384  0.00  0.00    -0.072 C 
ATOM      5  N   UNL     1       1.541   8.078   1.473  0.00  0.00    +0.386 N 
ATOM      6  C   UNL     1       0.121   8.186   1.212  0.00  0.00    -0.072 C 
ATOM      7  C   UNL     1      -0.312   7.434  -0.044  0.00  0.00    +0.009 C 
ATOM      8  C   UNL     1      -0.313   9.653   1.107  0.00  0.00    -0.010 C 
ATOM      9  C   UNL     1      -0.638   7.569   2.408  0.00  0.00    -0.010 C 
ATOM     10  C   UNL     1       2.803   9.610   0.020  0.00  0.00    -0.010 C 
ATOM     11  C   UNL     1       3.814   7.506   0.852  0.00  0.00    -0.010 C 
ATOM     12  H   UNL     1       1.642   7.107   1.981  0.00  0.00    -0.084 HD
ATOM     13  H   UNL     1       1.739   8.889   2.189  0.00  0.00    -0.084 HD
ENDBRANCH   1   2
BRANCH   1  14
ATOM     14  C   UNL     1       0.211   5.697  -2.404  0.00  0.00    +0.134 C 
ATOM     15  S   UNL     1       0.630   4.857  -0.972  0.00  0.00    -0.019 S 
BRANCH  14  16
ATOM     16  N   UNL     1      -0.079   5.011  -3.527  0.00  0.00    -0.324 N 
ATOM     17  H   UNL     1      -0.429   5.544  -4.423  0.00  0.00    +0.148 HD
BRANCH  16  21
ATOM     18  C   UNL     1       1.749   1.121  -2.557  0.00  0.00    -0.010 C 
ATOM     19  C   UNL     1       1.698   1.687  -3.981  0.00  0.00    -0.072 C 
ATOM     20  C   UNL     1       1.515   3.201  -3.922  0.00  0.00    +0.009 C 
ATOM     21  C   UNL     1       0.073   3.550  -3.555  0.00  0.00    +0.069 C 
ATOM     22  C   UNL     1      -0.854   2.968  -4.621  0.00  0.00    +0.009 C 
ATOM     23  C   UNL     1      -0.701   1.450  -4.686  0.00  0.00    -0.072 C 
ATOM     24  N   UNL     1       0.680   1.025  -4.771  0.00  0.00    +0.386 N 
ATOM     25  C   UNL     1      -1.435   0.963  -5.956  0.00  0.00    -0.010 C 
ATOM     26  C   UNL     1      -1.405   0.812  -3.483  0.00  0.00    -0.010 C 
ATOM     27  C   UNL     1       3.071   1.409  -4.633  0.00  0.00    -0.010 C 
ATOM     28  H   UNL     1       0.922   1.126  -5.839  0.00  0.00    -0.084 HD
ATOM     29  H   UNL     1       0.644  -0.041  -4.503  0.00  0.00    -0.084 HD
ENDBRANCH  16  21
ENDBRANCH  14  16
ENDBRANCH   1  14
BRANCH   1  30
ATOM     30  C   UNL     1      -0.299   7.759  -3.597  0.00  0.00    +0.181 C 
BRANCH  30  31
ATOM     31  C   UNL     1      -1.789   7.966  -3.504  0.00  0.00    +0.122 A 
ATOM     32  C   UNL     1      -2.403   9.023  -2.943  0.00  0.00    +0.046 A 
ATOM     33  C   UNL     1      -3.794   8.808  -3.079  0.00  0.00    +0.041 A 
ATOM     34  C   UNL     1      -3.946   7.629  -3.708  0.00  0.00    +0.195 A 
ATOM     35  O   UNL     1      -2.728   7.123  -3.963  0.00  0.00    -0.466 OA
ENDBRANCH  30  31
ENDBRANCH   1  30
TORSDOF 6
