REMARK  Name = ZINC33936922
REMARK  15 active torsions:
REMARK  status: ('A' for Active; 'I' for Inactive)
REMARK    1  A    between atoms: C_1  and  C_2
REMARK    2  A    between atoms: N_7  and  S_9
REMARK    3  A    between atoms: S_9  and  C_12
REMARK    4  A    between atoms: C_15  and  N_18
REMARK    5  A    between atoms: N_18  and  C_19
REMARK    6  A    between atoms: C_19  and  C_21
REMARK    7  A    between atoms: C_19  and  C_31
REMARK    8  A    between atoms: C_24  and  O_29
REMARK    9  A    between atoms: C_25  and  O_27
REMARK   10  A    between atoms: O_27  and  C_28
REMARK   11  A    between atoms: O_29  and  C_30
REMARK   12  A    between atoms: N_33  and  C_34
REMARK   13  A    between atoms: C_34  and  C_35
REMARK   14  A    between atoms: C_34  and  C_36
REMARK   15  A    between atoms: C_34  and  C_37
REMARK                            x       y       z     vdW  Elec       q    Type
REMARK                         _______ _______ _______ _____ _____    ______ ____
ROOT
ATOM      1  C   UNL     1       5.132  -2.741   7.191  0.00  0.00    +0.188 C 
ENDROOT
BRANCH   1   2
ATOM      2  C   UNL     1       5.907  -3.426   8.287  0.00  0.00    -0.015 A 
ATOM      3  C   UNL     1       6.958  -4.265   7.968  0.00  0.00    +0.010 A 
ATOM      4  C   UNL     1       7.673  -4.896   8.970  0.00  0.00    +0.050 A 
ATOM      5  C   UNL     1       7.336  -4.686  10.297  0.00  0.00    +0.162 A 
ATOM      6  C   UNL     1       6.279  -3.841  10.619  0.00  0.00    +0.162 A 
ATOM      7  C   UNL     1       5.570  -3.208   9.610  0.00  0.00    +0.055 A 
BRANCH   6   8
ATOM      8  O   UNL     1       5.945  -3.632  11.921  0.00  0.00    -0.491 OA
ATOM      9  C   UNL     1       4.849  -2.751  12.176  0.00  0.00    +0.277 C 
ENDBRANCH   6   8
BRANCH   5  10
ATOM     10  O   UNL     1       8.038  -5.305  11.284  0.00  0.00    -0.491 OA
ATOM     11  C   UNL     1       9.110  -6.159  10.880  0.00  0.00    +0.277 C 
ENDBRANCH   5  10
ENDBRANCH   1   2
BRANCH   1  12
ATOM     12  C   UNL     1       5.902  -1.541   6.705  0.00  0.00    +0.238 C 
ATOM     13  O   UNL     1       6.248  -1.472   5.545  0.00  0.00    -0.273 OA
ATOM     14  N   UNL     1       6.207  -0.544   7.560  0.00  0.00    -0.309 N 
ATOM     15  H   UNL     1       5.930  -0.600   8.488  0.00  0.00    +0.149 HD
BRANCH  14  16
ATOM     16  C   UNL     1       6.956   0.623   7.087  0.00  0.00    +0.026 C 
ATOM     17  C   UNL     1       6.169   1.318   5.974  0.00  0.00    +0.031 C 
ATOM     18  C   UNL     1       7.167   1.597   8.247  0.00  0.00    +0.031 C 
ATOM     19  C   UNL     1       8.314   0.172   6.546  0.00  0.00    +0.031 C 
ENDBRANCH  14  16
ENDBRANCH   1  12
BRANCH   1  20
ATOM     20  N   UNL     1       4.930  -3.675   6.080  0.00  0.00    -0.329 N 
ATOM     21  H   UNL     1       5.545  -4.413   5.949  0.00  0.00    +0.147 HD
BRANCH  20  25
ATOM     22  C   UNL     1       1.712  -3.159   3.488  0.00  0.00    +0.106 A 
ATOM     23  C   UNL     1       2.589  -4.212   3.299  0.00  0.00    +0.030 A 
ATOM     24  C   UNL     1       3.657  -4.386   4.157  0.00  0.00    +0.025 A 
ATOM     25  C   UNL     1       3.850  -3.502   5.211  0.00  0.00    +0.028 A 
ATOM     26  C   UNL     1       2.968  -2.445   5.398  0.00  0.00    +0.025 A 
ATOM     27  C   UNL     1       1.905  -2.274   4.533  0.00  0.00    +0.030 A 
BRANCH  22  28
ATOM     28  S   UNL     1       0.350  -2.942   2.392  0.00  0.00    +0.061 S 
ATOM     29  O   UNL     1      -0.630  -2.199   3.104  0.00  0.00    -0.153 OA
ATOM     30  O   UNL     1       0.077  -4.216   1.825  0.00  0.00    -0.153 OA
BRANCH  28  36
ATOM     31  C   UNL     1      -0.019   1.526   0.010  0.00  0.00    +0.009 C 
ATOM     32  C   UNL     1       0.002  -0.004   0.002  0.00  0.00    +0.002 C 
ATOM     33  C   UNL     1       0.720  -0.498  -1.256  0.00  0.00    +0.006 C 
ATOM     34  C   UNL     1       0.712  -2.028  -1.282  0.00  0.00    +0.017 C 
ATOM     35  C   UNL     1       1.463  -2.559  -0.057  0.00  0.00    +0.109 C 
ATOM     36  N   UNL     1       0.869  -1.973   1.153  0.00  0.00    -0.176 NA
ATOM     37  C   UNL     1       0.744  -0.512   1.242  0.00  0.00    +0.112 C 
ENDBRANCH  28  36
ENDBRANCH  22  28
ENDBRANCH  20  25
ENDBRANCH   1  20
TORSDOF 9
