REMARK  Name = ZINC10645694
REMARK  9 active torsions:
REMARK  status: ('A' for Active; 'I' for Inactive)
REMARK    1  A    between atoms: C_1  and  C_2
REMARK    2  A    between atoms: C_4  and  N_7
REMARK    3  A    between atoms: C_8  and  C_10
REMARK    4  A    between atoms: C_10  and  C_12
REMARK    5  A    between atoms: C_10  and  S_13
REMARK    6  A    between atoms: S_13  and  C_14
REMARK    7  A    between atoms: C_17  and  C_26
REMARK    8  A    between atoms: N_18  and  C_19
REMARK    9  A    between atoms: C_26  and  N_56
REMARK                            x       y       z     vdW  Elec       q    Type
REMARK                         _______ _______ _______ _____ _____    ______ ____
ROOT
ATOM      1  C   UNL     1       5.737   6.320  -0.755  0.00  0.00    +0.197 A 
ATOM      2  N   UNL     1       4.952   7.280  -0.324  0.00  0.00    -0.122 NA
ATOM      3  N   UNL     1       5.527   8.419  -0.482  0.00  0.00    -0.135 NA
ATOM      4  C   UNL     1       6.703   8.258  -1.019  0.00  0.00    +0.122 A 
ATOM      5  N   UNL     1       6.883   6.914  -1.208  0.00  0.00    -0.276 N 
ENDROOT
BRANCH   5   6
ATOM      6  C   UNL     1       8.008   6.278  -1.756  0.00  0.00    +0.050 A 
ATOM      7  C   UNL     1       9.228   6.335  -1.096  0.00  0.00    +0.029 A 
ATOM      8  C   UNL     1      10.333   5.705  -1.634  0.00  0.00    +0.040 A 
ATOM      9  C   UNL     1      10.227   5.025  -2.836  0.00  0.00    +0.124 A 
ATOM     10  C   UNL     1       9.012   4.972  -3.498  0.00  0.00    +0.040 A 
ATOM     11  C   UNL     1       7.904   5.596  -2.960  0.00  0.00    +0.029 A 
ATOM     12  F   UNL     1      11.310   4.414  -3.363  0.00  0.00    -0.205 F 
ENDBRANCH   5   6
BRANCH   1  13
ATOM     13  S   UNL     1       5.384   4.594  -0.746  0.00  0.00    -0.073 S 
BRANCH  13  14
ATOM     14  C   UNL     1       3.731   4.615  -0.009  0.00  0.00    +0.137 C 
ATOM     15  C   UNL     1       3.821   5.127   1.430  0.00  0.00    +0.029 C 
BRANCH  14  17
ATOM     16  N   UNL     1       1.827   3.036   0.001  0.00  0.00    -0.253 N 
ATOM     17  C   UNL     1       3.162   3.220  -0.011  0.00  0.00    +0.233 C 
ATOM     18  O   UNL     1       3.906   2.262  -0.023  0.00  0.00    -0.274 OA
ATOM     19  H   UNL     1       1.232   3.803   0.011  0.00  0.00    +0.158 HD
BRANCH  16  23
ATOM     20  C   UNL     1      -1.193  -0.922   0.008  0.00  0.00    +0.069 C 
ATOM     21  C   UNL     1       0.002  -0.004   0.002  0.00  0.00    +0.082 A 
ATOM     22  C   UNL     1      -0.017   1.405   0.010  0.00  0.00    +0.092 A 
ATOM     23  C   UNL     1       1.304   1.752  -0.001  0.00  0.00    +0.224 A 
ATOM     24  O   UNL     1       1.994   0.600  -0.014  0.00  0.00    -0.339 OA
ATOM     25  N   UNL     1       1.256  -0.358  -0.012  0.00  0.00    -0.081 NA
ENDBRANCH  16  23
ENDBRANCH  14  17
ENDBRANCH  13  14
ENDBRANCH   1  13
BRANCH   4  26
ATOM     26  C   UNL     1       7.685   9.348  -1.362  0.00  0.00    -0.001 C 
BRANCH  26  32
ATOM     27  C   UNL     1       7.809  10.143   0.921  0.00  0.00    -0.078 C 
ATOM     28  C   UNL     1       8.724  10.250   2.143  0.00  0.00    -0.019 C 
ATOM     29  C   UNL     1       9.909  11.160   1.808  0.00  0.00    -0.004 C 
ATOM     30  C   UNL     1      10.651  10.593   0.595  0.00  0.00    -0.019 C 
ATOM     31  C   UNL     1       9.680  10.476  -0.582  0.00  0.00    -0.078 C 
ATOM     32  N   UNL     1       8.576   9.568  -0.204  0.00  0.00    +0.384 N 
ATOM     33  H   UNL     1       8.971   8.667   0.088  0.00  0.00    -0.081 HD
ENDBRANCH  26  32
ENDBRANCH   4  26
TORSDOF 7
