REMARK  Name = ZINC45781769
REMARK  8 active torsions:
REMARK  status: ('A' for Active; 'I' for Inactive)
REMARK    1  A    between atoms: C_1  and  C_2
REMARK    2  A    between atoms: C_7  and  C_8
REMARK    3  A    between atoms: C_11  and  C_12
REMARK    4  A    between atoms: C_12  and  C_13
REMARK    5  A    between atoms: N_15  and  C_16
REMARK    6  A    between atoms: C_16  and  C_18
REMARK    7  A    between atoms: C_16  and  C_19
REMARK    8  A    between atoms: C_22  and  N_25
REMARK                            x       y       z     vdW  Elec       q    Type
REMARK                         _______ _______ _______ _____ _____    ______ ____
ROOT
ATOM      1  C   UNL     1       1.374  -2.892  -4.368  0.00  0.00    +0.218 C 
ATOM      2  O   UNL     1       2.229  -2.816  -3.512  0.00  0.00    -0.275 OA
ATOM      3  N   UNL     1       1.680  -2.622  -5.653  0.00  0.00    -0.308 N 
ATOM      4  H   UNL     1       0.996  -2.683  -6.338  0.00  0.00    +0.149 HD
ENDROOT
BRANCH   3   5
ATOM      5  C   UNL     1       3.046  -2.236  -6.014  0.00  0.00    +0.100 C 
ATOM      6  C   UNL     1       3.891  -3.493  -6.230  0.00  0.00    +0.033 C 
BRANCH   5   7
ATOM      7  C   UNL     1       3.020  -1.424  -7.283  0.00  0.00    -0.027 A 
ATOM      8  C   UNL     1       2.163  -1.776  -8.310  0.00  0.00    +0.007 A 
ATOM      9  C   UNL     1       2.136  -1.034  -9.474  0.00  0.00    +0.023 A 
ATOM     10  C   UNL     1       2.971   0.067  -9.614  0.00  0.00    +0.035 A 
ATOM     11  C   UNL     1       3.831   0.418  -8.581  0.00  0.00    +0.023 A 
ATOM     12  C   UNL     1       3.849  -0.325  -7.417  0.00  0.00    +0.007 A 
BRANCH  10  13
ATOM     13  N   UNL     1       2.947   0.820 -10.793  0.00  0.00    -0.270 N 
ATOM     14  C   UNL     1       1.793   0.970 -11.473  0.00  0.00    +0.301 C 
ATOM     15  O   UNL     1       0.755   0.533 -11.014  0.00  0.00    -0.253 OA
ATOM     16  N   UNL     1       1.789   1.604 -12.662  0.00  0.00    -0.313 N 
ATOM     17  H   UNL     1       3.760   1.235 -11.120  0.00  0.00    +0.156 HD
ATOM     18  H   UNL     1       2.617   1.953 -13.028  0.00  0.00    +0.146 HD
ATOM     19  H   UNL     1       0.959   1.712 -13.152  0.00  0.00    +0.146 HD
ENDBRANCH  10  13
ENDBRANCH   5   7
ENDBRANCH   3   5
BRANCH   1  20
ATOM     20  C   UNL     1      -0.032  -3.289  -3.996  0.00  0.00    +0.134 C 
BRANCH  20  31
ATOM     21  C   UNL     1      -0.907   1.001  -0.253  0.00  0.00    +0.044 C 
ATOM     22  C   UNL     1      -0.699  -0.492  -0.263  0.00  0.00    -0.047 A 
ATOM     23  C   UNL     1      -0.518  -1.151  -1.459  0.00  0.00    +0.015 A 
ATOM     24  C   UNL     1      -0.326  -2.531  -1.462  0.00  0.00    +0.024 A 
ATOM     25  C   UNL     1      -0.316  -3.245  -0.252  0.00  0.00    +0.135 A 
ATOM     26  C   UNL     1      -0.501  -2.562   0.942  0.00  0.00    +0.050 A 
ATOM     27  C   UNL     1      -0.684  -1.195   0.932  0.00  0.00    -0.044 A 
ATOM     28  C   UNL     1      -0.877  -0.459   2.233  0.00  0.00    +0.044 C 
ATOM     29  O   UNL     1      -0.113  -4.544  -0.555  0.00  0.00    -0.463 OA
ATOM     30  C   UNL     1       0.009  -4.713  -1.883  0.00  0.00    +0.200 A 
ATOM     31  C   UNL     1      -0.108  -3.535  -2.511  0.00  0.00    +0.007 A 
ENDBRANCH  20  31
ENDBRANCH   1  20
TORSDOF 5
