REMARK  Name = ZINC16757096
REMARK  7 active torsions:
REMARK  status: ('A' for Active; 'I' for Inactive)
REMARK    1  A    between atoms: C_3  and  N_20
REMARK    2  A    between atoms: C_4  and  N_16
REMARK    3  A    between atoms: C_6  and  S_7
REMARK    4  A    between atoms: S_7  and  N_10
REMARK    5  A    between atoms: N_16  and  C_17
REMARK    6  A    between atoms: C_17  and  C_18
REMARK    7  A    between atoms: C_18  and  O_19
REMARK                            x       y       z     vdW  Elec       q    Type
REMARK                         _______ _______ _______ _____ _____    ______ ____
ROOT
ATOM      1  C   UNL     1       3.512  -2.349  -0.760  0.00  0.00    +0.030 A 
ATOM      2  C   UNL     1       3.946  -2.656  -2.037  0.00  0.00    +0.026 A 
ATOM      3  C   UNL     1       4.846  -1.823  -2.682  0.00  0.00    +0.046 A 
ATOM      4  C   UNL     1       5.308  -0.673  -2.042  0.00  0.00    +0.050 A 
ATOM      5  C   UNL     1       4.864  -0.370  -0.764  0.00  0.00    +0.053 A 
ATOM      6  C   UNL     1       3.965  -1.207  -0.128  0.00  0.00    +0.107 A 
ENDROOT
BRANCH   6   7
ATOM      7  S   UNL     1       3.402  -0.819   1.496  0.00  0.00    +0.061 S 
ATOM      8  O   UNL     1       4.396   0.010   2.083  0.00  0.00    -0.153 OA
ATOM      9  O   UNL     1       2.987  -2.044   2.085  0.00  0.00    -0.153 OA
BRANCH   7  10
ATOM     10  N   UNL     1       2.043   0.113   1.334  0.00  0.00    -0.177 NA
ATOM     11  C   UNL     1       0.714  -0.508   1.262  0.00  0.00    +0.109 C 
ATOM     12  C   UNL     1       0.002  -0.004   0.002  0.00  0.00    +0.017 C 
ATOM     13  C   UNL     1      -0.019   1.526   0.010  0.00  0.00    +0.003 C 
ATOM     14  C   UNL     1       1.417   2.058  -0.000  0.00  0.00    +0.017 C 
ATOM     15  C   UNL     1       2.144   1.577   1.259  0.00  0.00    +0.109 C 
ENDBRANCH   7  10
ENDBRANCH   6   7
BRANCH   3  16
ATOM     16  N   UNL     1       5.290  -2.135  -3.973  0.00  0.00    -0.357 N 
ATOM     17  H   UNL     1       5.920  -1.551  -4.423  0.00  0.00    +0.142 HD
ATOM     18  H   UNL     1       4.968  -2.935  -4.416  0.00  0.00    +0.142 HD
ENDBRANCH   3  16
BRANCH   4  19
ATOM     19  N   UNL     1       6.217   0.173  -2.688  0.00  0.00    -0.340 N 
ATOM     20  H   UNL     1       6.527  -0.040  -3.582  0.00  0.00    +0.146 HD
BRANCH  19  21
ATOM     21  C   UNL     1       6.701   1.381  -2.014  0.00  0.00    +0.129 C 
BRANCH  21  22
ATOM     22  C   UNL     1       7.676   2.121  -2.932  0.00  0.00    +0.174 C 
BRANCH  22  23
ATOM     23  O   UNL     1       6.980   2.587  -4.090  0.00  0.00    -0.393 OA
ATOM     24  H   UNL     1       7.538   3.067  -4.717  0.00  0.00    +0.209 HD
ENDBRANCH  22  23
ENDBRANCH  21  22
ENDBRANCH  19  21
ENDBRANCH   4  19
TORSDOF 7
