REMARK  Name = ZINC07128316
REMARK  1 active torsions:
REMARK  status: ('A' for Active; 'I' for Inactive)
REMARK    1  A    between atoms: C_9  and  C_11
REMARK                            x       y       z     vdW  Elec       q    Type
REMARK                         _______ _______ _______ _____ _____    ______ ____
ROOT
ATOM      1  C   UNL     1      -1.188   7.332   0.050  0.00  0.00    +0.229 C 
ATOM      2  N   UNL     1      -0.561   7.849  -1.179  0.00  0.00    -0.292 N 
ATOM      3  C   UNL     1       0.801   7.952  -1.262  0.00  0.00    +0.183 C 
ATOM      4  N   UNL     1       1.542   8.168  -0.189  0.00  0.00    -0.183 NA
ATOM      5  C   UNL     1       0.931   8.216   1.018  0.00  0.00    +0.236 A 
ATOM      6  N   UNL     1      -0.392   7.837   1.176  0.00  0.00    -0.283 N 
ATOM      7  C   UNL     1      -0.718   8.026   2.485  0.00  0.00    +0.072 A 
ATOM      8  C   UNL     1      -1.889   7.830   3.207  0.00  0.00    +0.028 A 
ATOM      9  C   UNL     1      -1.858   8.134   4.558  0.00  0.00    +0.002 A 
ATOM     10  C   UNL     1      -0.716   8.613   5.177  0.00  0.00    +0.002 A 
ATOM     11  C   UNL     1       0.462   8.818   4.482  0.00  0.00    +0.030 A 
ATOM     12  C   UNL     1       0.454   8.518   3.114  0.00  0.00    +0.091 A 
ATOM     13  N   UNL     1       1.414   8.607   2.173  0.00  0.00    -0.210 NA
ATOM     14  N   UNL     1       1.410   7.828  -2.481  0.00  0.00    -0.331 N 
ATOM     15  H   UNL     1      -1.115   8.116  -1.930  0.00  0.00    +0.151 HD
ATOM     16  H   UNL     1       2.375   7.899  -2.551  0.00  0.00    +0.145 HD
ATOM     17  H   UNL     1       0.876   7.669  -3.276  0.00  0.00    +0.145 HD
ENDROOT
BRANCH   1  26
ATOM     18  C   UNL     1      -0.013   1.076   0.008  0.00  0.00    +0.002 A 
ATOM     19  C   UNL     1       1.191   1.779   0.000  0.00  0.00    +0.002 A 
ATOM     20  C   UNL     1       1.207   3.139   0.007  0.00  0.00    +0.030 A 
ATOM     21  C   UNL     1      -0.005   3.851   0.022  0.00  0.00    +0.090 A 
ATOM     22  C   UNL     1      -1.230   3.136   0.030  0.00  0.00    +0.089 A 
ATOM     23  C   UNL     1      -1.206   1.730   0.017  0.00  0.00    +0.030 A 
ATOM     24  N   UNL     1      -2.386   3.807   0.044  0.00  0.00    -0.252 NA
ATOM     25  C   UNL     1      -2.376   5.120   0.050  0.00  0.00    +0.138 A 
ATOM     26  C   UNL     1      -1.171   5.825   0.043  0.00  0.00    +0.101 A 
ATOM     27  N   UNL     1      -0.022   5.188   0.029  0.00  0.00    -0.245 NA
ENDBRANCH   1  26
TORSDOF 1
