REMARK  Name = ZINC40704504
REMARK  10 active torsions:
REMARK  status: ('A' for Active; 'I' for Inactive)
REMARK    1  A    between atoms: C_1  and  C_2
REMARK    2  A    between atoms: C_5  and  C_27
REMARK    3  A    between atoms: C_6  and  N_8
REMARK    4  A    between atoms: C_10  and  N_26
REMARK    5  A    between atoms: C_11  and  N_15
REMARK    6  A    between atoms: N_15  and  C_16
REMARK    7  A    between atoms: C_18  and  C_24
REMARK    8  A    between atoms: C_18  and  C_25
REMARK    9  A    between atoms: C_20  and  C_22
REMARK   10  A    between atoms: C_20  and  C_23
REMARK                            x       y       z     vdW  Elec       q    Type
REMARK                         _______ _______ _______ _____ _____    ______ ____
ROOT
ATOM      1  N   UNL     1      -0.106  -2.408   2.674  0.00  0.00    -0.298 N 
ATOM      2  C   UNL     1       0.179  -1.721   3.849  0.00  0.00    +0.149 A 
ATOM      3  C   UNL     1       0.298  -2.406   5.060  0.00  0.00    +0.105 A 
ATOM      4  C   UNL     1       0.586  -1.669   6.209  0.00  0.00    +0.145 A 
ATOM      5  N   UNL     1       0.736  -0.350   6.108  0.00  0.00    -0.219 NA
ATOM      6  C   UNL     1       0.616   0.258   4.946  0.00  0.00    +0.225 A 
ATOM      7  N   UNL     1       0.349  -0.401   3.836  0.00  0.00    -0.219 NA
ATOM      8  H   UNL     1      -0.311  -3.355   2.704  0.00  0.00    +0.154 HD
ENDROOT
BRANCH   1  14
ATOM      9  C   UNL     1       1.312   1.452  -0.019  0.00  0.00    +0.044 C 
ATOM     10  C   UNL     1       0.581   0.141   0.117  0.00  0.00    -0.049 A 
ATOM     11  C   UNL     1      -0.083  -0.395  -0.972  0.00  0.00    +0.004 A 
ATOM     12  C   UNL     1      -0.755  -1.598  -0.852  0.00  0.00    +0.005 A 
ATOM     13  C   UNL     1      -0.764  -2.268   0.356  0.00  0.00    -0.029 A 
ATOM     14  C   UNL     1      -0.099  -1.732   1.451  0.00  0.00    +0.036 A 
ATOM     15  C   UNL     1       0.580  -0.526   1.325  0.00  0.00    +0.027 A 
ATOM     16  C   UNL     1      -1.497  -3.578   0.485  0.00  0.00    +0.045 C 
ENDBRANCH   1  14
BRANCH   3  17
ATOM     17  N   UNL     1       0.132  -3.800   5.119  0.00  0.00    -0.353 N 
ATOM     18  H   UNL     1      -0.069  -4.299   4.312  0.00  0.00    +0.143 HD
ATOM     19  H   UNL     1       0.217  -4.262   5.967  0.00  0.00    +0.143 HD
ENDBRANCH   3  17
BRANCH   4  20
ATOM     20  N   UNL     1       0.715  -2.301   7.440  0.00  0.00    -0.325 N 
ATOM     21  H   UNL     1       0.604  -3.263   7.505  0.00  0.00    +0.148 HD
BRANCH  20  22
ATOM     22  C   UNL     1       1.018  -1.514   8.642  0.00  0.00    +0.069 C 
ATOM     23  C   UNL     1       2.534  -1.356   8.769  0.00  0.00    +0.009 C 
ATOM     24  C   UNL     1       2.867  -0.548  10.023  0.00  0.00    -0.072 C 
ATOM     25  N   UNL     1       2.264  -1.119  11.219  0.00  0.00    +0.386 N 
ATOM     26  C   UNL     1       0.863  -1.504  11.150  0.00  0.00    -0.072 C 
ATOM     27  C   UNL     1       0.509  -2.261   9.875  0.00  0.00    +0.009 C 
ATOM     28  C   UNL     1       0.584  -2.453  12.339  0.00  0.00    -0.010 C 
ATOM     29  C   UNL     1      -0.065  -0.297  11.316  0.00  0.00    -0.010 C 
ATOM     30  C   UNL     1       4.402  -0.598  10.206  0.00  0.00    -0.010 C 
ATOM     31  C   UNL     1       2.481   0.917   9.827  0.00  0.00    -0.010 C 
ATOM     32  H   UNL     1       2.810  -1.939  11.493  0.00  0.00    -0.084 HD
ATOM     33  H   UNL     1       2.378  -0.452  11.986  0.00  0.00    -0.084 HD
ENDBRANCH  20  22
ENDBRANCH   4  20
TORSDOF 4
