REMARK  Name = ZINC48860733
REMARK  4 active torsions:
REMARK  status: ('A' for Active; 'I' for Inactive)
REMARK    1  A    between atoms: C_6  and  N_7
REMARK    2  A    between atoms: C_9  and  C_11
REMARK    3  A    between atoms: C_17  and  C_19
REMARK    4  A    between atoms: C_19  and  O_20
REMARK                            x       y       z     vdW  Elec       q    Type
REMARK                         _______ _______ _______ _____ _____    ______ ____
ROOT
ATOM      1  C   UNL     1      -0.017   1.390   0.010  0.00  0.00    +0.026 A 
ATOM      2  C   UNL     1       1.158   2.109   0.002  0.00  0.00    +0.048 A 
ATOM      3  C   UNL     1       2.380   1.447  -0.013  0.00  0.00    +0.136 A 
ATOM      4  C   UNL     1       2.403   0.040  -0.021  0.00  0.00    +0.023 A 
ATOM      5  C   UNL     1       1.207  -0.682  -0.013  0.00  0.00    +0.034 A 
ATOM      6  C   UNL     1       0.002  -0.004   0.002  0.00  0.00    +0.025 A 
ATOM      7  C   UNL     1       3.817  -0.334  -0.038  0.00  0.00    +0.063 A 
ATOM      8  C   UNL     1       4.514   0.831  -0.039  0.00  0.00    +0.191 A 
ATOM      9  O   UNL     1       3.659   1.874  -0.024  0.00  0.00    -0.450 OA
ENDROOT
BRANCH   8  10
ATOM     10  C   UNL     1       5.980   0.939  -0.053  0.00  0.00    +0.282 C 
ATOM     11  O   UNL     1       6.664  -0.067  -0.065  0.00  0.00    -0.267 OA
ATOM     12  N   UNL     1       6.566   2.153  -0.052  0.00  0.00    -0.290 N 
ATOM     13  C   UNL     1       5.861   3.447  -0.032  0.00  0.00    +0.108 C 
ATOM     14  C   UNL     1       6.863   4.454  -0.651  0.00  0.00    +0.021 C 
ATOM     15  C   UNL     1       8.213   3.935  -0.089  0.00  0.00    +0.026 C 
ATOM     16  C   UNL     1       8.014   2.405  -0.065  0.00  0.00    +0.102 C 
BRANCH  16  17
ATOM     17  C   UNL     1       8.657   1.814   1.191  0.00  0.00    +0.178 C 
BRANCH  17  18
ATOM     18  O   UNL     1       8.555   0.389   1.152  0.00  0.00    -0.393 OA
ATOM     19  H   UNL     1       8.943  -0.054   1.919  0.00  0.00    +0.209 HD
ENDBRANCH  17  18
ENDBRANCH  16  17
ENDBRANCH   8  10
BRANCH   6  20
ATOM     20  N   UNL     1      -1.201  -0.719   0.010  0.00  0.00    -0.358 N 
ATOM     21  H   UNL     1      -2.047  -0.244   0.020  0.00  0.00    +0.142 HD
ATOM     22  H   UNL     1      -1.189  -1.688   0.004  0.00  0.00    +0.142 HD
ENDBRANCH   6  20
TORSDOF 4
