REMARK  Name = ZINC63633091
REMARK  7 active torsions:
REMARK  status: ('A' for Active; 'I' for Inactive)
REMARK    1  A    between atoms: C_1  and  N_2
REMARK    2  A    between atoms: N_9  and  C_12
REMARK    3  A    between atoms: N_13  and  C_28
REMARK    4  A    between atoms: N_16  and  C_17
REMARK    5  A    between atoms: C_17  and  C_18
REMARK    6  A    between atoms: C_18  and  C_19
REMARK    7  A    between atoms: C_28  and  C_29
REMARK                            x       y       z     vdW  Elec       q    Type
REMARK                         _______ _______ _______ _____ _____    ______ ____
ROOT
ATOM      1  C   UNL     1       0.155   1.191  -0.553  0.00  0.00    +0.136 C 
ATOM      2  N   UNL     1       0.059  -0.268  -0.475  0.00  0.00    -0.264 N 
ATOM      3  C   UNL     1      -1.249  -0.906  -0.258  0.00  0.00    +0.227 C 
ATOM      4  C   UNL     1      -1.250  -2.458  -0.217  0.00  0.00    +0.205 C 
ATOM      5  C   UNL     1       0.097  -3.122  -0.413  0.00  0.00    +0.247 C 
ATOM      6  O   UNL     1       0.196  -4.330  -0.391  0.00  0.00    -0.273 OA
ATOM      7  N   UNL     1       1.181  -2.353  -0.612  0.00  0.00    -0.227 N 
ATOM      8  C   UNL     1       1.162  -1.018  -0.607  0.00  0.00    +0.312 C 
ATOM      9  O   UNL     1       2.216  -0.441  -0.790  0.00  0.00    -0.252 OA
ATOM     10  C   UNL     1       2.472  -3.021  -0.797  0.00  0.00    +0.143 C 
ATOM     11  N   UNL     1      -1.686  -2.754   1.157  0.00  0.00    -0.284 N 
ATOM     12  C   UNL     1      -1.907  -1.572   1.808  0.00  0.00    +0.181 C 
ATOM     13  N   UNL     1      -1.696  -0.506   1.083  0.00  0.00    -0.231 NA
ATOM     14  N   UNL     1      -2.329  -1.508   3.115  0.00  0.00    -0.317 N 
ATOM     15  H   UNL     1      -2.482  -2.325   3.615  0.00  0.00    +0.149 HD
ENDROOT
BRANCH  14  16
ATOM     16  C   UNL     1      -2.547  -0.207   3.751  0.00  0.00    +0.108 C 
BRANCH  16  17
ATOM     17  C   UNL     1      -3.010  -0.416   5.194  0.00  0.00    +0.052 C 
BRANCH  17  18
ATOM     18  C   UNL     1      -3.234   0.923   5.849  0.00  0.00    -0.040 C 
ATOM     19  C   UNL     1      -4.406   1.589   5.956  0.00  0.00    -0.001 A 
ATOM     20  C   UNL     1      -5.771   1.280   5.512  0.00  0.00    +0.010 A 
ATOM     21  C   UNL     1      -6.761   2.163   5.771  0.00  0.00    +0.001 A 
ATOM     22  C   UNL     1      -6.518   3.365   6.450  0.00  0.00    +0.002 A 
ATOM     23  C   UNL     1      -5.291   3.719   6.889  0.00  0.00    +0.026 A 
ATOM     24  C   UNL     1      -4.176   2.864   6.672  0.00  0.00    +0.043 A 
ATOM     25  N   UNL     1      -2.910   2.982   6.994  0.00  0.00    -0.380 N 
ATOM     26  C   UNL     1      -2.196   1.790   6.524  0.00  0.00    +0.144 C 
ATOM     27  H   UNL     1      -2.514   3.730   7.468  0.00  0.00    +0.160 HD
ENDBRANCH  17  18
ENDBRANCH  16  17
ENDBRANCH  14  16
BRANCH  11  28
ATOM     28  C   UNL     1      -1.854  -4.091   1.731  0.00  0.00    +0.143 C 
BRANCH  28  29
ATOM     29  C   UNL     1      -3.223  -4.618   1.386  0.00  0.00    -0.030 A 
ATOM     30  C   UNL     1      -4.293  -4.363   2.223  0.00  0.00    +0.006 A 
ATOM     31  C   UNL     1      -5.548  -4.846   1.906  0.00  0.00    +0.020 A 
ATOM     32  C   UNL     1      -5.734  -5.585   0.752  0.00  0.00    +0.041 A 
ATOM     33  C   UNL     1      -4.663  -5.840  -0.085  0.00  0.00    +0.020 A 
ATOM     34  C   UNL     1      -3.409  -5.352   0.229  0.00  0.00    +0.006 A 
ATOM     35 CL   UNL     1      -7.311  -6.192   0.354  0.00  0.00    -0.084 Cl
ENDBRANCH  28  29
ENDBRANCH  11  28
TORSDOF 5
