REMARK  Name = ZINC50833979
REMARK  5 active torsions:
REMARK  status: ('A' for Active; 'I' for Inactive)
REMARK    1  A    between atoms: C_4  and  S_8
REMARK    2  A    between atoms: S_8  and  C_9
REMARK    3  A    between atoms: C_9  and  C_10
REMARK    4  A    between atoms: C_12  and  N_17
REMARK    5  A    between atoms: C_15  and  N_16
REMARK                            x       y       z     vdW  Elec       q    Type
REMARK                         _______ _______ _______ _____ _____    ______ ____
ROOT
ATOM      1  C   UNL     1       6.562  -0.101  -0.065  0.00  0.00    -0.014 A 
ATOM      2  C   UNL     1       7.206  -0.390   1.123  0.00  0.00    +0.039 A 
ATOM      3  C   UNL     1       8.473  -0.943   1.108  0.00  0.00    +0.127 A 
ATOM      4  C   UNL     1       9.100  -1.210  -0.096  0.00  0.00    +0.034 A 
ATOM      5  C   UNL     1       8.462  -0.924  -1.286  0.00  0.00    +0.025 A 
ATOM      6  C   UNL     1       7.187  -0.373  -1.275  0.00  0.00    +0.029 A 
ENDROOT
BRANCH   6   7
ATOM      7  N   UNL     1       6.537  -0.088  -2.478  0.00  0.00    -0.358 N 
ATOM      8  H   UNL     1       5.648   0.300  -2.469  0.00  0.00    +0.142 HD
ATOM      9  H   UNL     1       6.974  -0.278  -3.322  0.00  0.00    +0.142 HD
ENDBRANCH   6   7
BRANCH   3  10
ATOM     10  N   UNL     1       9.159  -1.251   2.382  0.00  0.00    +0.056 N 
ATOM     11  O   UNL     1       8.612  -1.018   3.435  0.00  0.00    -0.126 OA
ATOM     12  O   UNL     1      10.267  -1.735   2.371  0.00  0.00    -0.126 OA
ENDBRANCH   3  10
BRANCH   1  13
ATOM     13  C   UNL     1       5.181   0.502  -0.047  0.00  0.00    +0.111 C 
BRANCH  13  14
ATOM     14  S   UNL     1       3.942  -0.823  -0.042  0.00  0.00    -0.118 S 
BRANCH  14  18
ATOM     15  C   UNL     1      -0.017   1.379   0.010  0.00  0.00    +0.003 A 
ATOM     16  C   UNL     1       1.169   2.090   0.002  0.00  0.00    +0.001 A 
ATOM     17  C   UNL     1       2.378   1.422  -0.013  0.00  0.00    +0.017 A 
ATOM     18  C   UNL     1       2.403   0.033  -0.021  0.00  0.00    +0.043 A 
ATOM     19  C   UNL     1       1.208  -0.680  -0.013  0.00  0.00    +0.137 A 
ATOM     20  C   UNL     1       0.002  -0.004   0.002  0.00  0.00    +0.039 A 
ATOM     21  F   UNL     1       1.226  -2.031  -0.021  0.00  0.00    -0.204 F 
ENDBRANCH  14  18
ENDBRANCH  13  14
ENDBRANCH   1  13
TORSDOF 5
