REMARK  Name = ZINC02250774
REMARK  4 active torsions:
REMARK  status: ('A' for Active; 'I' for Inactive)
REMARK    1  A    between atoms: C_1  and  C_2
REMARK    2  A    between atoms: N_13  and  C_19
REMARK    3  A    between atoms: C_19  and  N_21
REMARK    4  A    between atoms: N_21  and  C_22
REMARK                            x       y       z     vdW  Elec       q    Type
REMARK                         _______ _______ _______ _____ _____    ______ ____
ROOT
ATOM      1  C   UNL     1      -1.811   0.611  -0.456  0.00  0.00    +0.044 C 
ATOM      2  C   UNL     1      -0.422   1.187  -0.358  0.00  0.00    -0.050 A 
ATOM      3  C   UNL     1      -0.259   2.461   0.163  0.00  0.00    +0.005 A 
ATOM      4  C   UNL     1       0.985   3.051   0.292  0.00  0.00    +0.026 A 
ATOM      5  C   UNL     1       2.088   2.310  -0.126  0.00  0.00    +0.050 A 
ATOM      6  C   UNL     1       1.913   1.006  -0.676  0.00  0.00    +0.004 A 
ATOM      7  C   UNL     1       0.642   0.434  -0.786  0.00  0.00    +0.013 A 
ATOM      8  C   UNL     1       3.231   0.538  -1.046  0.00  0.00    -0.017 A 
ATOM      9  C   UNL     1       4.077   1.533  -0.720  0.00  0.00    +0.044 A 
ATOM     10  N   UNL     1       3.422   2.569  -0.113  0.00  0.00    -0.340 N 
ATOM     11  C   UNL     1       4.182   3.684   0.475  0.00  0.00    +0.141 C 
ATOM     12  C   UNL     1       5.510   3.092   0.981  0.00  0.00    +0.129 C 
ATOM     13  N   UNL     1       6.226   2.425  -0.111  0.00  0.00    -0.302 N 
ATOM     14  C   UNL     1       5.568   1.434  -0.956  0.00  0.00    +0.122 C 
ATOM     15  C   UNL     1       5.938  -0.006  -0.594  0.00  0.00    +0.029 C 
ATOM     16  C   UNL     1       5.204  -0.985  -1.500  0.00  0.00    +0.007 C 
ATOM     17  C   UNL     1       3.711  -0.759  -1.647  0.00  0.00    +0.037 C 
ENDROOT
BRANCH  13  18
ATOM     18  C   UNL     1       7.518   2.734  -0.339  0.00  0.00    +0.138 C 
ATOM     19  S   UNL     1       8.401   1.891  -1.538  0.00  0.00    -0.018 S 
BRANCH  18  20
ATOM     20  N   UNL     1       8.115   3.707   0.379  0.00  0.00    -0.297 N 
ATOM     21  H   UNL     1       7.647   4.117   1.123  0.00  0.00    +0.154 HD
BRANCH  20  22
ATOM     22  C   UNL     1       9.409   4.125   0.050  0.00  0.00    +0.033 A 
ATOM     23  C   UNL     1      10.320   4.424   1.054  0.00  0.00    +0.023 A 
ATOM     24  C   UNL     1      11.598   4.832   0.726  0.00  0.00    +0.002 A 
ATOM     25  C   UNL     1      11.968   4.952  -0.601  0.00  0.00    +0.000 A 
ATOM     26  C   UNL     1      11.061   4.660  -1.604  0.00  0.00    +0.002 A 
ATOM     27  C   UNL     1       9.783   4.247  -1.282  0.00  0.00    +0.023 A 
ENDBRANCH  20  22
ENDBRANCH  18  20
ENDBRANCH  13  18
TORSDOF 3
