REMARK  Name = ZINC39672689
REMARK  3 active torsions:
REMARK  status: ('A' for Active; 'I' for Inactive)
REMARK    1  A    between atoms: C_4  and  N_7
REMARK    2  A    between atoms: C_12  and  N_16
REMARK    3  A    between atoms: N_16  and  C_17
REMARK                            x       y       z     vdW  Elec       q    Type
REMARK                         _______ _______ _______ _____ _____    ______ ____
ROOT
ATOM      1  N   UNL     1       3.622  -0.651  -0.037  0.00  0.00    -0.160 N 
ATOM      2  C   UNL     1       3.641  -1.996   0.052  0.00  0.00    +0.259 C 
ATOM      3  O   UNL     1       2.603  -2.615   0.154  0.00  0.00    -0.272 OA
ATOM      4  C   UNL     1       4.961  -2.725   0.024  0.00  0.00    +0.194 C 
ATOM      5  C   UNL     1       5.936  -1.958  -0.872  0.00  0.00    +0.140 C 
ATOM      6  C   UNL     1       5.899  -0.494  -0.522  0.00  0.00    +0.128 C 
ATOM      7  N   UNL     1       4.817   0.067  -0.150  0.00  0.00    -0.183 NA
ATOM      8 CL   UNL     1       4.718  -4.387  -0.631  0.00  0.00    -0.109 Cl
ENDROOT
BRANCH   1  12
ATOM      9  C   UNL     1      -0.017   1.378   0.011  0.00  0.00    +0.000 A 
ATOM     10  C   UNL     1       0.154   0.288  -0.822  0.00  0.00    +0.002 A 
ATOM     11  C   UNL     1       1.359  -0.387  -0.841  0.00  0.00    +0.025 A 
ATOM     12  C   UNL     1       2.400   0.031  -0.021  0.00  0.00    +0.060 A 
ATOM     13  C   UNL     1       2.224   1.126   0.815  0.00  0.00    +0.025 A 
ATOM     14  C   UNL     1       1.017   1.796   0.829  0.00  0.00    +0.002 A 
ENDBRANCH   1  12
BRANCH   5  15
ATOM     15  N   UNL     1       5.552  -2.134  -2.275  0.00  0.00    -0.334 N 
ATOM     16  H   UNL     1       4.632  -2.341  -2.503  0.00  0.00    +0.147 HD
BRANCH  15  17
ATOM     17  C   UNL     1       6.511  -2.002  -3.285  0.00  0.00    +0.028 A 
ATOM     18  C   UNL     1       7.834  -1.709  -2.952  0.00  0.00    +0.025 A 
ATOM     19  C   UNL     1       8.785  -1.576  -3.922  0.00  0.00    +0.029 A 
ATOM     20  C   UNL     1       8.441  -1.733  -5.263  0.00  0.00    +0.066 A 
ATOM     21  C   UNL     1       7.110  -2.029  -5.610  0.00  0.00    +0.021 A 
ATOM     22  C   UNL     1       6.145  -2.169  -4.606  0.00  0.00    +0.034 A 
ATOM     23  C   UNL     1       7.077  -2.130  -7.066  0.00  0.00    +0.142 A 
ATOM     24  N   UNL     1       8.283  -1.910  -7.507  0.00  0.00    -0.181 NA
ATOM     25  N   UNL     1       9.149  -1.663  -6.437  0.00  0.00    -0.277 N 
ATOM     26  H   UNL     1      10.097  -1.472  -6.513  0.00  0.00    +0.189 HD
ENDBRANCH  15  17
ENDBRANCH   5  15
TORSDOF 3
