REMARK  Name = ZINC18270801
REMARK  10 active torsions:
REMARK  status: ('A' for Active; 'I' for Inactive)
REMARK    1  A    between atoms: C_1  and  C_2
REMARK    2  A    between atoms: C_3  and  C_31
REMARK    3  A    between atoms: C_4  and  N_30
REMARK    4  A    between atoms: C_9  and  C_10
REMARK    5  A    between atoms: C_13  and  C_15
REMARK    6  A    between atoms: C_20  and  C_21
REMARK    7  A    between atoms: C_21  and  O_23
REMARK    8  A    between atoms: O_23  and  C_24
REMARK    9  A    between atoms: C_25  and  C_29
REMARK   10  A    between atoms: C_26  and  C_27
REMARK                            x       y       z     vdW  Elec       q    Type
REMARK                         _______ _______ _______ _____ _____    ______ ____
ROOT
ATOM      1  C   UNL     1       1.202   4.135   1.572  0.00  0.00    +0.046 C 
ATOM      2  C   UNL     1       2.514   4.805   1.256  0.00  0.00    -0.020 A 
ATOM      3  C   UNL     1       2.707   6.166   1.516  0.00  0.00    +0.095 A 
ATOM      4  C   UNL     1       3.949   6.754   1.205  0.00  0.00    +0.135 A 
ATOM      5  N   UNL     1       4.926   6.041   0.676  0.00  0.00    -0.230 NA
ATOM      6  C   UNL     1       4.783   4.744   0.413  0.00  0.00    +0.092 A 
ATOM      7  C   UNL     1       3.564   4.089   0.692  0.00  0.00    +0.013 A 
ATOM      8  C   UNL     1       3.729   2.678   0.296  0.00  0.00    -0.008 C 
ATOM      9  C   UNL     1       2.768   1.678   0.404  0.00  0.00    +0.055 C 
ATOM     10  C   UNL     1       5.031   2.523  -0.216  0.00  0.00    -0.023 C 
ATOM     11  C   UNL     1       5.691   3.739  -0.162  0.00  0.00    +0.081 C 
ATOM     12  C   UNL     1       5.615   1.237  -0.742  0.00  0.00    +0.046 C 
ENDROOT
BRANCH   9  13
ATOM     13  C   UNL     1       1.414   1.981   0.196  0.00  0.00    +0.129 A 
ATOM     14  C   UNL     1       0.916   2.904  -0.716  0.00  0.00    +0.050 A 
ATOM     15  C   UNL     1      -0.471   2.890  -0.587  0.00  0.00    +0.050 A 
ATOM     16  C   UNL     1      -0.777   1.959   0.385  0.00  0.00    +0.136 A 
ATOM     17  O   UNL     1       0.368   1.426   0.846  0.00  0.00    -0.455 OA
BRANCH  16  18
ATOM     18  C   UNL     1      -2.132   1.611   0.846  0.00  0.00    +0.031 A 
ATOM     19  C   UNL     1      -2.981   2.601   1.346  0.00  0.00    +0.012 A 
ATOM     20  C   UNL     1      -4.249   2.269   1.776  0.00  0.00    +0.001 A 
ATOM     21  C   UNL     1      -4.691   0.958   1.715  0.00  0.00    +0.001 A 
ATOM     22  C   UNL     1      -3.869  -0.036   1.224  0.00  0.00    +0.016 A 
ATOM     23  C   UNL     1      -2.585   0.277   0.779  0.00  0.00    +0.070 A 
BRANCH  23  24
ATOM     24  C   UNL     1      -1.704  -0.780   0.248  0.00  0.00    +0.340 C 
ATOM     25  O   UNL     1      -0.563  -0.515  -0.073  0.00  0.00    -0.245 OA
BRANCH  24  26
ATOM     26  O   UNL     1      -2.166  -2.039   0.117  0.00  0.00    -0.464 OA
ATOM     27  C   UNL     1      -1.244  -3.028  -0.412  0.00  0.00    +0.280 C 
ENDBRANCH  24  26
ENDBRANCH  23  24
ENDBRANCH  16  18
ENDBRANCH   9  13
BRANCH   4  28
ATOM     28  N   UNL     1       4.148   8.101   1.459  0.00  0.00    -0.342 N 
ATOM     29  H   UNL     1       5.000   8.513   1.248  0.00  0.00    +0.144 HD
ATOM     30  H   UNL     1       3.435   8.632   1.848  0.00  0.00    +0.144 HD
ENDBRANCH   4  28
BRANCH  11  31
ATOM     31  C   UNL     1       7.035   3.978  -0.594  0.00  0.00    +0.102 C 
ATOM     32  N   UNL     1       8.101   4.168  -0.936  0.00  0.00    -0.191 NA
ENDBRANCH  11  31
BRANCH   3  33
ATOM     33  C   UNL     1       1.656   6.950   2.091  0.00  0.00    +0.103 C 
ATOM     34  N   UNL     1       0.822   7.573   2.546  0.00  0.00    -0.191 NA
ENDBRANCH   3  33
TORSDOF 7
