REMARK  Name = ZINC20931343
REMARK  12 active torsions:
REMARK  status: ('A' for Active; 'I' for Inactive)
REMARK    1  A    between atoms: C_1  and  C_2
REMARK    2  A    between atoms: C_2  and  O_3
REMARK    3  A    between atoms: O_3  and  C_4
REMARK    4  A    between atoms: C_7  and  C_11
REMARK    5  A    between atoms: C_8  and  O_10
REMARK    6  A    between atoms: N_12  and  N_13
REMARK    7  A    between atoms: N_13  and  C_14
REMARK    8  A    between atoms: C_14  and  N_16
REMARK    9  A    between atoms: N_16  and  C_17
REMARK   10  A    between atoms: C_18  and  C_30
REMARK   11  A    between atoms: N_19  and  C_29
REMARK   12  A    between atoms: N_20  and  C_23
REMARK                            x       y       z     vdW  Elec       q    Type
REMARK                         _______ _______ _______ _____ _____    ______ ____
ROOT
ATOM      1  C   UNL     1      -1.266  -1.474   2.697  0.00  0.00    +0.154 C 
ATOM      2  S   UNL     1      -1.834  -0.956   4.227  0.00  0.00    -0.017 S 
ENDROOT
BRANCH   1   3
ATOM      3  N   UNL     1      -1.050  -2.784   2.467  0.00  0.00    -0.218 N 
ATOM      4  H   UNL     1      -1.240  -3.521   3.262  0.00  0.00    +0.176 HD
BRANCH   3   6
ATOM      5  C   UNL     1      -0.378  -4.471   0.994  0.00  0.00    +0.141 C 
ATOM      6  N   UNL     1      -0.586  -3.208   1.216  0.00  0.00    -0.188 NA
BRANCH   5  10
ATOM      7  C   UNL     1       1.030  -5.758  -2.802  0.00  0.00    +0.124 A 
ATOM      8  C   UNL     1       0.792  -6.688  -1.797  0.00  0.00    +0.046 A 
ATOM      9  C   UNL     1       0.335  -6.274  -0.564  0.00  0.00    +0.016 A 
ATOM     10  C   UNL     1       0.111  -4.917  -0.323  0.00  0.00    +0.036 A 
ATOM     11  C   UNL     1       0.347  -3.981  -1.340  0.00  0.00    +0.129 A 
ATOM     12  C   UNL     1       0.810  -4.408  -2.572  0.00  0.00    +0.091 A 
BRANCH  11  13
ATOM     13  O   UNL     1       0.126  -2.660  -1.115  0.00  0.00    -0.506 OA
ATOM     14  H   UNL     1       0.312  -1.927  -1.914  0.00  0.00    +0.292 HD
ENDBRANCH  11  13
BRANCH   7  15
ATOM     15  O   UNL     1       1.481  -6.173  -4.014  0.00  0.00    -0.492 OA
BRANCH  15  17
ATOM     16  C   UNL     1       2.190  -7.851  -5.603  0.00  0.00    +0.048 C 
ATOM     17  C   UNL     1       1.686  -7.577  -4.184  0.00  0.00    +0.225 C 
ENDBRANCH  15  17
ENDBRANCH   7  15
ENDBRANCH   5  10
ENDBRANCH   3   6
ENDBRANCH   1   3
BRANCH   1  18
ATOM     18  N   UNL     1      -1.034  -0.572   1.723  0.00  0.00    -0.290 N 
ATOM     19  H   UNL     1      -0.757  -0.910   0.714  0.00  0.00    +0.154 HD
BRANCH  18  20
ATOM     20  C   UNL     1      -1.147   0.806   1.998  0.00  0.00    +0.121 A 
ATOM     21  C   UNL     1      -1.974   1.681   1.384  0.00  0.00    +0.059 A 
ATOM     22  N   UNL     1      -1.781   2.923   1.931  0.00  0.00    -0.282 N 
ATOM     23  N   UNL     1      -0.805   2.838   2.930  0.00  0.00    -0.216 N 
ATOM     24  C   UNL     1      -0.389   1.556   3.000  0.00  0.00    +0.293 A 
ATOM     25  O   UNL     1       0.457   1.109   3.754  0.00  0.00    -0.264 OA
ATOM     26  C   UNL     1      -2.485   4.145   1.534  0.00  0.00    +0.171 C 
ATOM     27  C   UNL     1      -2.943   1.348   0.279  0.00  0.00    +0.067 C 
BRANCH  23  28
ATOM     28  C   UNL     1      -0.338   3.897   3.715  0.00  0.00    +0.067 A 
ATOM     29  C   UNL     1       1.027   4.088   3.886  0.00  0.00    +0.028 A 
ATOM     30  C   UNL     1       1.484   5.138   4.658  0.00  0.00    +0.002 A 
ATOM     31  C   UNL     1       0.584   5.992   5.269  0.00  0.00    +0.000 A 
ATOM     32  C   UNL     1      -0.775   5.801   5.105  0.00  0.00    +0.002 A 
ATOM     33  C   UNL     1      -1.239   4.756   4.330  0.00  0.00    +0.028 A 
ENDBRANCH  23  28
ENDBRANCH  18  20
ENDBRANCH   1  18
TORSDOF 9
