REMARK  Name = ZINC15015348
REMARK  7 active torsions:
REMARK  status: ('A' for Active; 'I' for Inactive)
REMARK    1  A    between atoms: C_4  and  C_7
REMARK    2  A    between atoms: N_9  and  C_10
REMARK    3  A    between atoms: C_10  and  C_21
REMARK    4  A    between atoms: C_11  and  C_12
REMARK    5  A    between atoms: C_15  and  N_18
REMARK    6  A    between atoms: N_23  and  N_24
REMARK    7  A    between atoms: N_24  and  C_25
REMARK                            x       y       z     vdW  Elec       q    Type
REMARK                         _______ _______ _______ _____ _____    ______ ____
ROOT
ATOM      1  C   UNL     1       4.949  -2.744  -0.261  0.00  0.00    +0.098 C 
ATOM      2  C   UNL     1       4.971  -4.080  -0.049  0.00  0.00    +0.036 C 
ENDROOT
BRANCH   2   3
ATOM      3  C   UNL     1       3.715  -4.845  -0.044  0.00  0.00    -0.023 A 
ATOM      4  C   UNL     1       2.525  -4.246  -0.471  0.00  0.00    +0.010 A 
ATOM      5  C   UNL     1       1.352  -4.970  -0.464  0.00  0.00    +0.033 A 
ATOM      6  C   UNL     1       1.349  -6.285  -0.034  0.00  0.00    +0.126 A 
ATOM      7  C   UNL     1       2.521  -6.885   0.391  0.00  0.00    +0.033 A 
ATOM      8  C   UNL     1       3.704  -6.176   0.384  0.00  0.00    +0.010 A 
BRANCH   6   9
ATOM      9  N   UNL     1       0.084  -7.055  -0.028  0.00  0.00    +0.056 N 
ATOM     10  O   UNL     1      -0.942  -6.534  -0.398  0.00  0.00    -0.126 OA
ATOM     11  O   UNL     1       0.078  -8.204   0.346  0.00  0.00    -0.126 OA
ENDBRANCH   6   9
ENDBRANCH   2   3
BRANCH   1  14
ATOM     12  C   UNL     1       3.481  -1.109  -1.170  0.00  0.00    +0.248 C 
ATOM     13  O   UNL     1       4.293  -0.887  -2.048  0.00  0.00    -0.270 OA
ATOM     14  N   UNL     1       3.733  -2.053  -0.243  0.00  0.00    -0.277 N 
ATOM     15  H   UNL     1       3.072  -2.254   0.438  0.00  0.00    +0.155 HD
BRANCH  12  19
ATOM     16  C   UNL     1      -0.149   1.091  -1.028  0.00  0.00    +0.000 A 
ATOM     17  C   UNL     1       0.819   1.420  -1.960  0.00  0.00    +0.001 A 
ATOM     18  C   UNL     1       2.001   0.710  -2.011  0.00  0.00    +0.013 A 
ATOM     19  C   UNL     1       2.218  -0.343  -1.121  0.00  0.00    +0.037 A 
ATOM     20  C   UNL     1       1.236  -0.670  -0.183  0.00  0.00    +0.013 A 
ATOM     21  C   UNL     1       0.059   0.049  -0.142  0.00  0.00    +0.001 A 
ENDBRANCH  12  19
ENDBRANCH   1  14
BRANCH   1  22
ATOM     22  C   UNL     1       6.203  -2.018  -0.510  0.00  0.00    +0.274 C 
ATOM     23  O   UNL     1       6.174  -0.839  -0.808  0.00  0.00    -0.267 OA
ATOM     24  N   UNL     1       7.384  -2.658  -0.407  0.00  0.00    -0.231 N 
ATOM     25  H   UNL     1       7.405  -3.613  -0.236  0.00  0.00    +0.173 HD
BRANCH  24  26
ATOM     26  N   UNL     1       8.582  -1.946  -0.548  0.00  0.00    -0.259 N 
ATOM     27  H   UNL     1       9.043  -1.935  -1.401  0.00  0.00    +0.170 HD
BRANCH  26  28
ATOM     28  C   UNL     1       9.089  -1.280   0.493  0.00  0.00    +0.116 C 
ATOM     29  C   UNL     1       8.603  -1.259   1.822  0.00  0.00    +0.024 A 
ATOM     30  C   UNL     1       7.516  -1.874   2.455  0.00  0.00    +0.012 A 
ATOM     31  C   UNL     1       7.294  -1.655   3.800  0.00  0.00    +0.001 A 
ATOM     32  C   UNL     1       8.141  -0.831   4.524  0.00  0.00    +0.002 A 
ATOM     33  C   UNL     1       9.222  -0.212   3.916  0.00  0.00    +0.024 A 
ATOM     34  C   UNL     1       9.471  -0.415   2.562  0.00  0.00    +0.043 A 
ATOM     35  N   UNL     1      10.447   0.066   1.739  0.00  0.00    -0.280 N 
ATOM     36  C   UNL     1      10.306  -0.394   0.509  0.00  0.00    +0.264 C 
ATOM     37  O   UNL     1      11.026  -0.144  -0.440  0.00  0.00    -0.268 OA
ATOM     38  H   UNL     1      11.156   0.665   2.021  0.00  0.00    +0.155 HD
ENDBRANCH  26  28
ENDBRANCH  24  26
ENDBRANCH   1  22
TORSDOF 7
