REMARK  Name = ZINC33141470
REMARK  8 active torsions:
REMARK  status: ('A' for Active; 'I' for Inactive)
REMARK    1  A    between atoms: C_1  and  C_2
REMARK    2  A    between atoms: C_5  and  N_9
REMARK    3  A    between atoms: C_10  and  C_12
REMARK    4  A    between atoms: C_12  and  N_13
REMARK    5  A    between atoms: C_27  and  C_30
REMARK    6  A    between atoms: N_32  and  C_33
REMARK    7  A    between atoms: C_33  and  C_34
REMARK    8  A    between atoms: C_33  and  C_35
REMARK                            x       y       z     vdW  Elec       q    Type
REMARK                         _______ _______ _______ _____ _____    ______ ____
ROOT
ATOM      1  N   UNL     1       3.901   2.864  -0.023  0.00  0.00    -0.289 N 
ATOM      2  C   UNL     1       4.346   1.581  -0.026  0.00  0.00    +0.204 A 
ATOM      3  N   UNL     1       3.554   0.555  -0.023  0.00  0.00    -0.217 NA
ATOM      4  C   UNL     1       2.197   0.691  -0.017  0.00  0.00    +0.176 A 
ATOM      5  C   UNL     1       1.710   2.011  -0.014  0.00  0.00    +0.124 A 
ATOM      6  C   UNL     1       2.567   3.103  -0.017  0.00  0.00    +0.270 A 
ATOM      7  O   UNL     1       2.132   4.243  -0.014  0.00  0.00    -0.266 OA
ATOM      8  S   UNL     1      -0.047   1.766  -0.008  0.00  0.00    -0.045 S 
ATOM      9  C   UNL     1      -0.030   0.029  -0.010  0.00  0.00    +0.164 A 
ATOM     10  N   UNL     1       1.256  -0.255  -0.015  0.00  0.00    -0.205 NA
ATOM     11  N   UNL     1      -1.101  -0.839  -0.006  0.00  0.00    -0.309 N 
ATOM     12  C   UNL     1      -1.990  -0.573   1.131  0.00  0.00    +0.107 C 
ATOM     13  C   UNL     1      -3.237  -1.454   1.022  0.00  0.00    +0.020 C 
ATOM     14  C   UNL     1      -2.816  -2.926   1.012  0.00  0.00    +0.016 C 
ATOM     15  C   UNL     1      -1.852  -3.166  -0.153  0.00  0.00    +0.092 C 
ATOM     16  C   UNL     1      -0.645  -2.235  -0.010  0.00  0.00    +0.119 C 
ENDROOT
BRANCH  15  17
ATOM     17  C   UNL     1      -1.386  -4.599  -0.134  0.00  0.00    +0.218 C 
ATOM     18  O   UNL     1      -1.789  -5.356   0.724  0.00  0.00    -0.275 OA
ATOM     19  N   UNL     1      -0.523  -5.040  -1.071  0.00  0.00    -0.313 N 
ATOM     20  H   UNL     1      -0.158  -4.353  -1.849  0.00  0.00    +0.149 HD
BRANCH  19  21
ATOM     21  C   UNL     1      -0.071  -6.433  -1.053  0.00  0.00    +0.067 C 
ATOM     22  C   UNL     1      -1.087  -7.309  -1.788  0.00  0.00    +0.027 C 
ATOM     23  C   UNL     1       1.289  -6.537  -1.747  0.00  0.00    +0.027 C 
ENDBRANCH  19  21
ENDBRANCH  15  17
BRANCH   1  24
ATOM     24  C   UNL     1       4.853   3.978  -0.026  0.00  0.00    +0.222 C 
BRANCH  24  26
ATOM     25  N   UNL     1       6.032   5.369  -1.698  0.00  0.00    -0.282 N 
ATOM     26  C   UNL     1       5.173   4.361  -1.448  0.00  0.00    +0.237 C 
ATOM     27  O   UNL     1       4.656   3.763  -2.368  0.00  0.00    -0.274 OA
ATOM     28  H   UNL     1       6.444   5.959  -0.866  0.00  0.00    +0.155 HD
BRANCH  25  33
ATOM     29  C   UNL     1       7.525   6.569  -7.040  0.00  0.00    +0.044 C 
ATOM     30  C   UNL     1       7.130   6.250  -5.622  0.00  0.00    -0.048 A 
ATOM     31  C   UNL     1       5.850   5.806  -5.345  0.00  0.00    +0.005 A 
ATOM     32  C   UNL     1       5.483   5.513  -4.046  0.00  0.00    +0.026 A 
ATOM     33  C   UNL     1       6.401   5.664  -3.016  0.00  0.00    +0.069 A 
ATOM     34  C   UNL     1       7.687   6.115  -3.295  0.00  0.00    +0.145 A 
ATOM     35  C   UNL     1       8.048   6.402  -4.599  0.00  0.00    +0.043 A 
ATOM     36  F   UNL     1       8.582   6.269  -2.295  0.00  0.00    -0.204 F 
ENDBRANCH  25  33
ENDBRANCH  24  26
ENDBRANCH   1  24
TORSDOF 5
