REMARK  Name = ZINC67236610
REMARK  5 active torsions:
REMARK  status: ('A' for Active; 'I' for Inactive)
REMARK    1  A    between atoms: C_3  and  C_8
REMARK    2  A    between atoms: C_11  and  C_13
REMARK    3  A    between atoms: N_15  and  N_16
REMARK    4  A    between atoms: N_19  and  C_20
REMARK    5  A    between atoms: C_20  and  C_21
REMARK                            x       y       z     vdW  Elec       q    Type
REMARK                         _______ _______ _______ _____ _____    ______ ____
ROOT
ATOM      1  C   UNL     1       4.181   1.002  -2.275  0.00  0.00    +0.233 C 
ATOM      2  O   UNL     1       3.118   0.427  -2.176  0.00  0.00    -0.274 OA
ATOM      3  N   UNL     1       4.974   0.774  -3.341  0.00  0.00    -0.233 N 
ATOM      4  H   UNL     1       5.824   1.234  -3.420  0.00  0.00    +0.173 HD
ENDROOT
BRANCH   3   5
ATOM      5  N   UNL     1       4.570  -0.127  -4.335  0.00  0.00    -0.218 N 
ATOM      6  C   UNL     1       5.363  -0.355  -5.400  0.00  0.00    +0.316 C 
ATOM      7  O   UNL     1       5.012  -1.137  -6.263  0.00  0.00    -0.251 OA
ATOM      8  N   UNL     1       6.545   0.284  -5.510  0.00  0.00    -0.296 N 
ATOM      9  H   UNL     1       3.720  -0.587  -4.256  0.00  0.00    +0.174 HD
ATOM     10  H   UNL     1       6.824   0.908  -4.822  0.00  0.00    +0.150 HD
BRANCH   8  11
ATOM     11  C   UNL     1       7.407   0.036  -6.668  0.00  0.00    +0.137 C 
BRANCH  11  12
ATOM     12  C   UNL     1       8.677   0.881  -6.549  0.00  0.00    +0.135 C 
ATOM     13  C   UNL     1       9.535   0.719  -7.822  0.00  0.00    +0.035 C 
ATOM     14  C   UNL     1      10.976   0.678  -7.244  0.00  0.00    +0.031 C 
ATOM     15  C   UNL     1      10.734  -0.051  -5.899  0.00  0.00    +0.160 C 
ATOM     16  O   UNL     1       9.458   0.427  -5.437  0.00  0.00    -0.375 OA
ENDBRANCH  11  12
ENDBRANCH   8  11
ENDBRANCH   3   5
BRANCH   1  19
ATOM     17  C   UNL     1       3.672   2.186  -0.021  0.00  0.00    +0.032 C 
ATOM     18  C   UNL     1       4.968   1.396   0.169  0.00  0.00    +0.022 C 
ATOM     19  C   UNL     1       4.616   1.970  -1.206  0.00  0.00    +0.084 C 
BRANCH  17  22
ATOM     20  C   UNL     1      -0.017   1.377   0.010  0.00  0.00    +0.003 A 
ATOM     21  C   UNL     1       1.171   2.086   0.002  0.00  0.00    +0.004 A 
ATOM     22  C   UNL     1       2.378   1.413  -0.013  0.00  0.00    -0.041 A 
ATOM     23  C   UNL     1       2.399   0.030  -0.021  0.00  0.00    +0.042 A 
ATOM     24  C   UNL     1       1.211  -0.679  -0.013  0.00  0.00    +0.124 A 
ATOM     25  C   UNL     1       0.002  -0.004   0.002  0.00  0.00    +0.038 A 
ATOM     26  F   UNL     1       1.230  -2.030  -0.022  0.00  0.00    -0.205 F 
ENDBRANCH  17  22
ENDBRANCH   1  19
TORSDOF 5
