REMARK  Name = ZINC31948462
REMARK  8 active torsions:
REMARK  status: ('A' for Active; 'I' for Inactive)
REMARK    1  A    between atoms: C_1  and  C_2
REMARK    2  A    between atoms: C_3  and  C_23
REMARK    3  A    between atoms: C_5  and  N_15
REMARK    4  A    between atoms: C_6  and  C_7
REMARK    5  A    between atoms: N_9  and  C_10
REMARK    6  A    between atoms: C_10  and  C_11
REMARK    7  A    between atoms: C_11  and  C_12
REMARK    8  A    between atoms: C_16  and  C_18
REMARK                            x       y       z     vdW  Elec       q    Type
REMARK                         _______ _______ _______ _____ _____    ______ ____
ROOT
ATOM      1  C   UNL     1      -3.831   7.805   0.064  0.00  0.00    +0.045 C 
ATOM      2  C   UNL     1      -3.624   6.312   0.054  0.00  0.00    -0.027 A 
ATOM      3  C   UNL     1      -4.665   5.460   0.055  0.00  0.00    -0.008 A 
ATOM      4  S   UNL     1      -3.885   3.859   0.035  0.00  0.00    -0.078 S 
ATOM      5  C   UNL     1      -2.223   4.348   0.037  0.00  0.00    +0.085 A 
ATOM      6  C   UNL     1      -2.301   5.736   0.045  0.00  0.00    +0.068 A 
ATOM      7  C   UNL     1      -6.137   5.782   0.064  0.00  0.00    +0.052 C 
ENDROOT
BRANCH   6   8
ATOM      8  C   UNL     1      -1.097   6.573   0.044  0.00  0.00    +0.247 C 
ATOM      9  O   UNL     1      -0.603   6.927  -1.011  0.00  0.00    -0.270 OA
ATOM     10  N   UNL     1      -0.539   6.951   1.210  0.00  0.00    -0.311 N 
ATOM     11  H   UNL     1      -0.986   6.632   2.163  0.00  0.00    +0.149 HD
BRANCH  10  12
ATOM     12  C   UNL     1       0.664   7.788   1.209  0.00  0.00    +0.116 C 
BRANCH  12  13
ATOM     13  C   UNL     1       1.089   8.071   2.652  0.00  0.00    +0.144 C 
BRANCH  13  14
ATOM     14  C   UNL     1       2.326   8.932   2.651  0.00  0.00    +0.357 C 
ATOM     15  O   UNL     1       2.817   9.283   1.604  0.00  0.00    -0.246 OA
ATOM     16  O   UNL     1       2.883   9.309   3.813  0.00  0.00    -0.246 OA
ENDBRANCH  13  14
ENDBRANCH  12  13
ENDBRANCH  10  12
ENDBRANCH   6   8
BRANCH   5  17
ATOM     17  N   UNL     1      -1.092   3.549   0.027  0.00  0.00    -0.273 N 
ATOM     18  C   UNL     1      -1.214   2.207   0.020  0.00  0.00    +0.284 C 
ATOM     19  O   UNL     1      -2.319   1.697   0.023  0.00  0.00    -0.266 OA
ATOM     20  H   UNL     1      -0.093   4.010   0.024  0.00  0.00    +0.156 HD
BRANCH  18  21
ATOM     21  C   UNL     1      -0.016   1.362   0.009  0.00  0.00    +0.189 A 
ATOM     22  C   UNL     1       0.002  -0.004   0.002  0.00  0.00    +0.054 A 
ATOM     23  C   UNL     1       1.352  -0.389  -0.013  0.00  0.00    +0.042 A 
ATOM     24  C   UNL     1       2.089   0.744  -0.014  0.00  0.00    +0.196 A 
ATOM     25  O   UNL     1       1.261   1.796  -0.000  0.00  0.00    -0.458 OA
ENDBRANCH  18  21
ENDBRANCH   5  17
TORSDOF 6
