REMARK  Name = ZINC47007441
REMARK  7 active torsions:
REMARK  status: ('A' for Active; 'I' for Inactive)
REMARK    1  A    between atoms: C_1  and  C_2
REMARK    2  A    between atoms: C_3  and  C_8
REMARK    3  A    between atoms: N_6  and  C_7
REMARK    4  A    between atoms: C_8  and  C_10
REMARK    5  A    between atoms: C_8  and  N_11
REMARK    6  A    between atoms: N_14  and  N_15
REMARK    7  A    between atoms: N_15  and  C_16
REMARK                            x       y       z     vdW  Elec       q    Type
REMARK                         _______ _______ _______ _____ _____    ______ ____
ROOT
ATOM      1  N   UNL     1      -0.220  -1.440  -3.594  0.00  0.00    -0.292 N 
ATOM      2  C   UNL     1      -0.894  -1.094  -4.709  0.00  0.00    +0.316 C 
ATOM      3  O   UNL     1      -0.866   0.055  -5.104  0.00  0.00    -0.251 OA
ATOM      4  N   UNL     1      -1.599  -2.023  -5.385  0.00  0.00    -0.220 N 
ATOM      5  H   UNL     1      -0.242  -2.357  -3.278  0.00  0.00    +0.151 HD
ATOM      6  H   UNL     1      -2.084  -1.774  -6.187  0.00  0.00    +0.174 HD
ENDROOT
BRANCH   1   7
ATOM      7  C   UNL     1       0.547  -0.431  -2.859  0.00  0.00    +0.105 C 
ATOM      8  C   UNL     1       1.938  -0.294  -3.482  0.00  0.00    +0.033 C 
BRANCH   7  11
ATOM      9  C   UNL     1       1.005   1.472  -0.419  0.00  0.00    +0.065 C 
ATOM     10  C   UNL     1       0.878  -0.028  -0.363  0.00  0.00    +0.041 A 
ATOM     11  C   UNL     1       0.680  -0.852  -1.419  0.00  0.00    +0.013 A 
ATOM     12  C   UNL     1       0.621  -2.163  -0.936  0.00  0.00    +0.140 A 
ATOM     13  N   UNL     1       0.778  -2.128   0.363  0.00  0.00    -0.179 NA
ATOM     14  N   UNL     1       0.947  -0.792   0.747  0.00  0.00    -0.271 N 
ATOM     15  C   UNL     1       1.159  -0.308   2.114  0.00  0.00    +0.172 C 
ENDBRANCH   7  11
ENDBRANCH   1   7
BRANCH   4  16
ATOM     16  N   UNL     1      -1.631  -3.347  -4.929  0.00  0.00    -0.258 N 
ATOM     17  H   UNL     1      -1.211  -3.580  -4.086  0.00  0.00    +0.170 HD
BRANCH  16  18
ATOM     18  C   UNL     1      -2.271  -4.335  -5.690  0.00  0.00    +0.121 A 
ATOM     19  C   UNL     1      -2.219  -4.286  -7.078  0.00  0.00    +0.186 A 
ATOM     20  C   UNL     1      -2.851  -5.263  -7.829  0.00  0.00    +0.198 A 
ATOM     21  C   UNL     1      -3.535  -6.290  -7.197  0.00  0.00    +0.199 A 
ATOM     22  C   UNL     1      -3.587  -6.341  -5.813  0.00  0.00    +0.198 A 
ATOM     23  C   UNL     1      -2.952  -5.368  -5.059  0.00  0.00    +0.186 A 
ATOM     24  F   UNL     1      -2.999  -5.421  -3.709  0.00  0.00    -0.200 F 
ATOM     25  F   UNL     1      -4.254  -7.342  -5.199  0.00  0.00    -0.199 F 
ATOM     26  F   UNL     1      -4.151  -7.242  -7.931  0.00  0.00    -0.199 F 
ATOM     27  F   UNL     1      -2.801  -5.216  -9.178  0.00  0.00    -0.199 F 
ATOM     28  F   UNL     1      -1.553  -3.285  -7.694  0.00  0.00    -0.200 F 
ENDBRANCH  16  18
ENDBRANCH   4  16
TORSDOF 4
