REMARK  Name = ZINC66135910
REMARK  10 active torsions:
REMARK  status: ('A' for Active; 'I' for Inactive)
REMARK    1  A    between atoms: C_1  and  C_2
REMARK    2  A    between atoms: C_5  and  C_22
REMARK    3  A    between atoms: C_6  and  O_8
REMARK    4  A    between atoms: O_8  and  C_9
REMARK    5  A    between atoms: C_9  and  C_10
REMARK    6  A    between atoms: C_11  and  C_18
REMARK    7  A    between atoms: C_12  and  C_17
REMARK    8  A    between atoms: N_20  and  C_21
REMARK    9  A    between atoms: C_22  and  C_23
REMARK   10  A    between atoms: C_22  and  C_24
REMARK                            x       y       z     vdW  Elec       q    Type
REMARK                         _______ _______ _______ _____ _____    ______ ____
ROOT
ATOM      1  C   UNL     1       0.063  -2.932   4.751  0.00  0.00    +0.096 A 
ATOM      2  C   UNL     1      -1.136  -3.389   5.314  0.00  0.00    +0.082 A 
ATOM      3  C   UNL     1      -1.065  -4.249   6.418  0.00  0.00    +0.056 A 
ATOM      4  N   UNL     1       0.120  -4.595   6.885  0.00  0.00    -0.219 NA
ATOM      5  C   UNL     1       1.232  -4.140   6.323  0.00  0.00    +0.213 A 
ATOM      6  N   UNL     1       1.208  -3.328   5.274  0.00  0.00    -0.215 NA
ATOM      7  N   UNL     1       2.451  -4.526   6.843  0.00  0.00    -0.327 N 
ATOM      8  C   UNL     1      -2.323  -4.771   7.062  0.00  0.00    +0.066 C 
ATOM      9  H   UNL     1       2.485  -5.122   7.607  0.00  0.00    +0.145 HD
ATOM     10  H   UNL     1       3.273  -4.201   6.443  0.00  0.00    +0.145 HD
ENDROOT
BRANCH   2  11
ATOM     11  C   UNL     1      -2.439  -2.976   4.759  0.00  0.00    +0.247 C 
ATOM     12  O   UNL     1      -2.963  -3.636   3.882  0.00  0.00    -0.270 OA
ATOM     13  N   UNL     1      -3.049  -1.867   5.223  0.00  0.00    -0.314 N 
ATOM     14  C   UNL     1      -4.342  -1.457   4.672  0.00  0.00    +0.128 C 
ATOM     15  H   UNL     1      -2.630  -1.341   5.922  0.00  0.00    +0.149 HD
ENDBRANCH   2  11
BRANCH   1  16
ATOM     16  C   UNL     1       0.045  -2.006   3.562  0.00  0.00    +0.285 C 
BRANCH  16  17
ATOM     17  O   UNL     1       0.050  -2.776   2.358  0.00  0.00    -0.486 OA
BRANCH  17  23
ATOM     18  C   UNL     1      -0.018   1.503   0.010  0.00  0.00    +0.044 C 
ATOM     19  C   UNL     1       0.002  -0.004   0.002  0.00  0.00    -0.047 A 
ATOM     20  C   UNL     1       0.006  -0.688  -1.200  0.00  0.00    +0.004 A 
ATOM     21  C   UNL     1       0.024  -2.071  -1.211  0.00  0.00    +0.008 A 
ATOM     22  C   UNL     1       0.039  -2.772  -0.020  0.00  0.00    -0.003 A 
ATOM     23  C   UNL     1       0.035  -2.088   1.186  0.00  0.00    +0.125 A 
ATOM     24  C   UNL     1       0.023  -0.700   1.195  0.00  0.00    +0.049 A 
BRANCH  22  25
ATOM     25  C   UNL     1       0.059  -4.279  -0.033  0.00  0.00    +0.016 C 
ATOM     26  C   UNL     1      -1.188  -4.799  -0.753  0.00  0.00    +0.012 C 
ATOM     27  C   UNL     1       1.311  -4.766  -0.764  0.00  0.00    +0.012 C 
ENDBRANCH  22  25
ENDBRANCH  17  23
ENDBRANCH  16  17
ENDBRANCH   1  16
TORSDOF 5
