REMARK  Name = ZINC43140159
REMARK  9 active torsions:
REMARK  status: ('A' for Active; 'I' for Inactive)
REMARK    1  A    between atoms: C_1  and  C_2
REMARK    2  A    between atoms: C_2  and  C_4
REMARK    3  A    between atoms: C_2  and  N_12
REMARK    4  A    between atoms: N_15  and  N_16
REMARK    5  A    between atoms: C_17  and  O_19
REMARK    6  A    between atoms: O_19  and  C_20
REMARK    7  A    between atoms: C_20  and  C_21
REMARK    8  A    between atoms: C_20  and  C_22
REMARK    9  A    between atoms: C_20  and  C_23
REMARK                            x       y       z     vdW  Elec       q    Type
REMARK                         _______ _______ _______ _____ _____    ______ ____
ROOT
ATOM      1  N   UNL     1       0.711  -0.489   1.189  0.00  0.00    -0.292 N 
ATOM      2  C   UNL     1       2.054  -0.600   1.174  0.00  0.00    +0.316 C 
ATOM      3  O   UNL     1       2.677  -0.297   0.175  0.00  0.00    -0.251 OA
ATOM      4  N   UNL     1       2.706  -1.046   2.266  0.00  0.00    -0.216 N 
ATOM      5  H   UNL     1       0.213  -0.731   1.986  0.00  0.00    +0.151 HD
ATOM      6  H   UNL     1       3.672  -1.126   2.255  0.00  0.00    +0.174 HD
ENDROOT
BRANCH   4   7
ATOM      7  N   UNL     1       1.987  -1.396   3.416  0.00  0.00    -0.198 N 
ATOM      8  C   UNL     1       2.639  -1.842   4.508  0.00  0.00    +0.417 C 
ATOM      9  O   UNL     1       2.016  -2.145   5.506  0.00  0.00    -0.225 OA
ATOM     10  H   UNL     1       1.020  -1.316   3.427  0.00  0.00    +0.176 HD
BRANCH   8  11
ATOM     11  O   UNL     1       3.981  -1.952   4.493  0.00  0.00    -0.444 OA
BRANCH  11  12
ATOM     12  C   UNL     1       4.606  -2.432   5.685  0.00  0.00    +0.107 C 
ATOM     13  C   UNL     1       4.082  -3.833   6.007  0.00  0.00    +0.055 C 
ATOM     14  C   UNL     1       6.121  -2.489   5.479  0.00  0.00    +0.055 C 
ATOM     15  C   UNL     1       4.284  -1.488   6.845  0.00  0.00    +0.055 C 
ENDBRANCH  11  12
ENDBRANCH   8  11
ENDBRANCH   4   7
BRANCH   1  17
ATOM     16  C   UNL     1      -0.019   1.526   0.010  0.00  0.00    +0.033 C 
ATOM     17  C   UNL     1       0.002  -0.004   0.002  0.00  0.00    +0.103 C 
BRANCH  17  18
ATOM     18  C   UNL     1      -1.412  -0.526   0.013  0.00  0.00    -0.009 A 
ATOM     19  C   UNL     1      -2.014  -0.864   1.210  0.00  0.00    +0.008 A 
ATOM     20  C   UNL     1      -3.311  -1.342   1.221  0.00  0.00    +0.020 A 
ATOM     21  C   UNL     1      -4.007  -1.483   0.033  0.00  0.00    +0.042 A 
ATOM     22  C   UNL     1      -3.404  -1.144  -1.165  0.00  0.00    +0.040 A 
ATOM     23  C   UNL     1      -2.108  -0.661  -1.175  0.00  0.00    +0.047 A 
ATOM     24 CL   UNL     1      -1.353  -0.230  -2.678  0.00  0.00    -0.083 Cl
ATOM     25 CL   UNL     1      -5.635  -2.084   0.046  0.00  0.00    -0.083 Cl
ENDBRANCH  17  18
ENDBRANCH   1  17
TORSDOF 5
