REMARK  Name = ZINC28901379
REMARK  12 active torsions:
REMARK  status: ('A' for Active; 'I' for Inactive)
REMARK    1  A    between atoms: C_1  and  N_2
REMARK    2  A    between atoms: C_4  and  C_26
REMARK    3  A    between atoms: C_10  and  C_12
REMARK    4  A    between atoms: C_12  and  N_13
REMARK    5  A    between atoms: N_13  and  C_14
REMARK    6  A    between atoms: N_13  and  C_15
REMARK    7  A    between atoms: C_15  and  C_16
REMARK    8  A    between atoms: C_16  and  C_18
REMARK    9  A    between atoms: C_16  and  O_25
REMARK   10  A    between atoms: C_21  and  O_24
REMARK   11  A    between atoms: N_28  and  C_29
REMARK   12  A    between atoms: C_29  and  C_30
REMARK                            x       y       z     vdW  Elec       q    Type
REMARK                         _______ _______ _______ _____ _____    ______ ____
ROOT
ATOM      1  C   UNL     1       2.214   4.120  -0.785  0.00  0.00    +0.149 C 
ATOM      2  N   UNL     1       0.895   3.483  -0.757  0.00  0.00    -0.343 N 
ATOM      3  C   UNL     1      -0.197   4.259  -0.849  0.00  0.00    +0.103 A 
ATOM      4  C   UNL     1      -1.460   3.707  -0.827  0.00  0.00    +0.100 A 
ATOM      5  C   UNL     1      -1.611   2.254  -0.696  0.00  0.00    +0.202 A 
ATOM      6  O   UNL     1      -2.716   1.737  -0.669  0.00  0.00    -0.286 OA
ATOM      7  C   UNL     1      -0.383   1.432  -0.603  0.00  0.00    +0.054 A 
ATOM      8  C   UNL     1       0.827   2.133  -0.639  0.00  0.00    +0.091 A 
ATOM      9  S   UNL     1       2.050   0.853  -0.498  0.00  0.00    -0.074 S 
ATOM     10  C   UNL     1       0.964  -0.557  -0.397  0.00  0.00    +0.006 A 
ATOM     11  C   UNL     1      -0.259  -0.010  -0.472  0.00  0.00    +0.026 A 
ENDROOT
BRANCH   4  12
ATOM     12  C   UNL     1      -2.648   4.570  -0.928  0.00  0.00    +0.249 C 
ATOM     13  O   UNL     1      -3.760   4.078  -0.908  0.00  0.00    -0.270 OA
ATOM     14  N   UNL     1      -2.503   5.905  -1.043  0.00  0.00    -0.307 N 
ATOM     15  H   UNL     1      -1.498   6.350  -1.061  0.00  0.00    +0.149 HD
BRANCH  14  16
ATOM     16  C   UNL     1      -3.686   6.763  -1.144  0.00  0.00    +0.139 C 
BRANCH  16  17
ATOM     17  C   UNL     1      -3.254   8.202  -1.261  0.00  0.00    -0.030 A 
ATOM     18  C   UNL     1      -3.086   8.969  -0.123  0.00  0.00    +0.006 A 
ATOM     19  C   UNL     1      -2.684  10.287  -0.230  0.00  0.00    +0.020 A 
ATOM     20  C   UNL     1      -2.460  10.842  -1.478  0.00  0.00    +0.041 A 
ATOM     21  C   UNL     1      -2.634  10.076  -2.616  0.00  0.00    +0.020 A 
ATOM     22  C   UNL     1      -3.030   8.757  -2.508  0.00  0.00    +0.006 A 
ATOM     23 CL   UNL     1      -1.962  12.499  -1.613  0.00  0.00    -0.084 Cl
ENDBRANCH  16  17
ENDBRANCH  14  16
ENDBRANCH   4  12
BRANCH  10  24
ATOM     24  C   UNL     1       1.330  -2.012  -0.260  0.00  0.00    +0.126 C 
BRANCH  24  25
ATOM     25  N   UNL     1       1.480  -2.607  -1.595  0.00  0.00    -0.298 NA
ATOM     26  C   UNL     1       2.625  -2.023  -2.306  0.00  0.00    +0.105 C 
BRANCH  25  27
ATOM     27  C   UNL     1       1.602  -4.068  -1.510  0.00  0.00    +0.120 C 
BRANCH  27  28
ATOM     28  C   UNL     1       0.228  -4.680  -1.229  0.00  0.00    +0.158 C 
BRANCH  28  29
ATOM     29  C   UNL     1       0.362  -6.174  -1.086  0.00  0.00    -0.018 A 
ATOM     30  C   UNL     1       0.444  -6.971  -2.212  0.00  0.00    +0.010 A 
ATOM     31  C   UNL     1       0.573  -8.340  -2.083  0.00  0.00    +0.046 A 
ATOM     32  C   UNL     1       0.610  -8.916  -0.822  0.00  0.00    +0.117 A 
ATOM     33  C   UNL     1       0.522  -8.115   0.307  0.00  0.00    +0.046 A 
ATOM     34  C   UNL     1       0.399  -6.745   0.173  0.00  0.00    +0.010 A 
BRANCH  32  35
ATOM     35  O   UNL     1       0.730 -10.264  -0.692  0.00  0.00    -0.507 OA
ATOM     36  H   UNL     1       0.759 -10.720   0.309  0.00  0.00    +0.292 HD
ENDBRANCH  32  35
ENDBRANCH  28  29
BRANCH  28  37
ATOM     37  O   UNL     1      -0.655  -4.383  -2.313  0.00  0.00    -0.386 OA
ATOM     38  H   UNL     1      -1.695  -4.743  -2.290  0.00  0.00    +0.210 HD
ENDBRANCH  28  37
ENDBRANCH  27  28
ENDBRANCH  25  27
ENDBRANCH  24  25
ENDBRANCH  10  24
TORSDOF 10
