REMARK  Name = ZINC04291912
REMARK  5 active torsions:
REMARK  status: ('A' for Active; 'I' for Inactive)
REMARK    1  A    between atoms: C_4  and  C_7
REMARK    2  A    between atoms: C_8  and  C_9
REMARK    3  A    between atoms: N_10  and  N_11
REMARK    4  A    between atoms: C_16  and  C_19
REMARK    5  A    between atoms: C_19  and  C_20
REMARK                            x       y       z     vdW  Elec       q    Type
REMARK                         _______ _______ _______ _____ _____    ______ ____
ROOT
ATOM      1  N   UNL     1      -0.016   1.315   0.009  0.00  0.00    -0.127 NA
ATOM      2  C   UNL     1       0.002  -0.004   0.002  0.00  0.00    +0.183 C 
ATOM      3  N   UNL     1       1.097  -0.840  -0.013  0.00  0.00    -0.263 N 
ATOM      4  C   UNL     1       0.983  -2.157  -0.018  0.00  0.00    +0.233 C 
ATOM      5  O   UNL     1       1.950  -2.888  -0.031  0.00  0.00    -0.274 OA
ATOM      6  C   UNL     1      -0.438  -2.698  -0.007  0.00  0.00    +0.149 C 
ATOM      7  S   UNL     1      -1.388  -1.126   0.017  0.00  0.00    -0.075 S 
ATOM      8  H   UNL     1       1.984  -0.448  -0.019  0.00  0.00    +0.157 HD
ENDROOT
BRANCH   1  10
ATOM      9  C   UNL     1       1.075   3.285   0.009  0.00  0.00    +0.135 C 
ATOM     10  N   UNL     1       1.092   1.975   0.002  0.00  0.00    -0.155 NA
BRANCH   9  12
ATOM     11  C   UNL     1       2.269   5.360   0.009  0.00  0.00    +0.009 C 
ATOM     12  C   UNL     1       2.288   4.008   0.002  0.00  0.00    +0.022 C 
BRANCH  11  16
ATOM     13  C   UNL     1       5.913   7.530  -0.013  0.00  0.00    +0.000 A 
ATOM     14  C   UNL     1       4.707   8.210   0.002  0.00  0.00    +0.001 A 
ATOM     15  C   UNL     1       3.518   7.511   0.009  0.00  0.00    +0.008 A 
ATOM     16  C   UNL     1       3.533   6.112   0.001  0.00  0.00    -0.025 A 
ATOM     17  C   UNL     1       4.756   5.433  -0.008  0.00  0.00    +0.008 A 
ATOM     18  C   UNL     1       5.936   6.146  -0.021  0.00  0.00    +0.001 A 
ENDBRANCH  11  16
ENDBRANCH   9  12
ENDBRANCH   1  10
BRANCH   6  19
ATOM     19  C   UNL     1      -0.708  -3.522   1.254  0.00  0.00    +0.120 C 
BRANCH  19  20
ATOM     20  C   UNL     1      -2.080  -4.138   1.166  0.00  0.00    +0.222 C 
ATOM     21  O   UNL     1      -2.774  -3.938   0.193  0.00  0.00    -0.275 OA
ATOM     22  N   UNL     1      -2.536  -4.912   2.171  0.00  0.00    -0.240 N 
ATOM     23  C   UNL     1      -3.764  -5.463   2.093  0.00  0.00    +0.303 C 
ATOM     24  O   UNL     1      -4.459  -5.263   1.117  0.00  0.00    -0.253 OA
ATOM     25  N   UNL     1      -4.220  -6.237   3.098  0.00  0.00    -0.313 N 
ATOM     26  H   UNL     1      -1.981  -5.072   2.950  0.00  0.00    +0.159 HD
ATOM     27  H   UNL     1      -3.665  -6.397   3.877  0.00  0.00    +0.146 HD
ATOM     28  H   UNL     1      -5.103  -6.634   3.042  0.00  0.00    +0.146 HD
ENDBRANCH  19  20
ENDBRANCH   6  19
TORSDOF 5
