REMARK  Name = ZINC31156700
REMARK  16 active torsions:
REMARK  status: ('A' for Active; 'I' for Inactive)
REMARK    1  A    between atoms: C_3  and  O_39
REMARK    2  A    between atoms: C_4  and  O_38
REMARK    3  A    between atoms: C_6  and  C_7
REMARK    4  A    between atoms: C_7  and  C_8
REMARK    5  A    between atoms: C_8  and  O_9
REMARK    6  A    between atoms: O_9  and  C_10
REMARK    7  A    between atoms: C_12  and  O_37
REMARK    8  A    between atoms: C_14  and  O_36
REMARK    9  A    between atoms: C_16  and  O_23
REMARK   10  A    between atoms: C_18  and  C_21
REMARK   11  A    between atoms: C_21  and  O_22
REMARK   12  A    between atoms: O_23  and  C_24
REMARK   13  A    between atoms: C_24  and  C_26
REMARK   14  A    between atoms: C_27  and  C_28
REMARK   15  A    between atoms: C_31  and  O_35
REMARK   16  A    between atoms: C_32  and  O_34
REMARK                            x       y       z     vdW  Elec       q    Type
REMARK                         _______ _______ _______ _____ _____    ______ ____
ROOT
ATOM      1  C   UNL     1      -3.487  -2.046  -2.724  0.00  0.00    +0.282 C 
ATOM      2  C   UNL     1      -4.729  -2.931  -2.598  0.00  0.00    +0.202 C 
ATOM      3  C   UNL     1      -5.307  -3.187  -3.994  0.00  0.00    +0.191 C 
ATOM      4  C   UNL     1      -5.615  -1.844  -4.662  0.00  0.00    +0.239 C 
ATOM      5  C   UNL     1      -4.338  -1.000  -4.707  0.00  0.00    +0.190 C 
ATOM      6  O   UNL     1      -3.836  -0.826  -3.381  0.00  0.00    -0.339 OA
ENDROOT
BRANCH   2   7
ATOM      7  O   UNL     1      -4.371  -4.175  -1.993  0.00  0.00    -0.384 OA
ATOM      8  H   UNL     1      -3.993  -4.086  -1.107  0.00  0.00    +0.210 HD
ENDBRANCH   2   7
BRANCH   3   9
ATOM      9  O   UNL     1      -6.508  -3.953  -3.881  0.00  0.00    -0.385 OA
ATOM     10  H   UNL     1      -6.386  -4.816  -3.460  0.00  0.00    +0.210 HD
ENDBRANCH   3   9
BRANCH   4  11
ATOM     11  O   UNL     1      -6.088  -2.068  -5.991  0.00  0.00    -0.453 OA
BRANCH  11  12
ATOM     12  C   UNL     1      -7.420  -2.220  -6.150  0.00  0.00    +0.332 C 
ATOM     13  O   UNL     1      -8.158  -2.162  -5.185  0.00  0.00    -0.246 OA
BRANCH  12  14
ATOM     14  C   UNL     1      -7.958  -2.446  -7.442  0.00  0.00    +0.092 C 
ATOM     15  C   UNL     1      -9.291  -2.597  -7.601  0.00  0.00    +0.015 C 
BRANCH  15  16
ATOM     16  C   UNL     1      -9.849  -2.831  -8.940  0.00  0.00    -0.021 A 
ATOM     17  C   UNL     1      -9.001  -2.904 -10.051  0.00  0.00    +0.012 A 
ATOM     18  C   UNL     1      -9.527  -3.124 -11.305  0.00  0.00    +0.050 A 
ATOM     19  C   UNL     1     -10.898  -3.274 -11.471  0.00  0.00    +0.158 A 
ATOM     20  C   UNL     1     -11.749  -3.203 -10.369  0.00  0.00    +0.159 A 
ATOM     21  C   UNL     1     -11.230  -2.989  -9.108  0.00  0.00    +0.057 A 
BRANCH  19  22
ATOM     22  O   UNL     1     -11.410  -3.490 -12.710  0.00  0.00    -0.503 OA
ATOM     23  H   UNL     1     -11.477  -4.424 -12.950  0.00  0.00    +0.292 HD
ENDBRANCH  19  22
BRANCH  20  24
ATOM     24  O   UNL     1     -13.091  -3.350 -10.536  0.00  0.00    -0.503 OA
ATOM     25  H   UNL     1     -13.398  -4.264 -10.466  0.00  0.00    +0.292 HD
ENDBRANCH  20  24
ENDBRANCH  15  16
ENDBRANCH  12  14
ENDBRANCH  11  12
ENDBRANCH   4  11
BRANCH   5  26
ATOM     26  C   UNL     1      -4.651   0.367  -5.319  0.00  0.00    +0.191 C 
BRANCH  26  27
ATOM     27  O   UNL     1      -3.440   1.110  -5.469  0.00  0.00    -0.392 OA
ATOM     28  H   UNL     1      -3.563   1.989  -5.852  0.00  0.00    +0.210 HD
ENDBRANCH  26  27
ENDBRANCH   5  26
BRANCH   1  29
ATOM     29  O   UNL     1      -2.974  -1.756  -1.422  0.00  0.00    -0.348 OA
BRANCH  29  30
ATOM     30  C   UNL     1      -1.746  -1.026  -1.429  0.00  0.00    +0.168 C 
BRANCH  30  31
ATOM     31  C   UNL     1      -1.294  -0.774   0.010  0.00  0.00    +0.063 C 
BRANCH  31  37
ATOM     32  C   UNL     1      -0.017   1.378   0.010  0.00  0.00    +0.007 A 
ATOM     33  C   UNL     1       1.170   2.089   0.002  0.00  0.00    +0.049 A 
ATOM     34  C   UNL     1       2.380   1.415  -0.013  0.00  0.00    +0.158 A 
ATOM     35  C   UNL     1       2.399   0.024  -0.021  0.00  0.00    +0.158 A 
ATOM     36  C   UNL     1       1.207  -0.682  -0.013  0.00  0.00    +0.053 A 
ATOM     37  C   UNL     1       0.002  -0.004   0.002  0.00  0.00    -0.042 A 
BRANCH  34  38
ATOM     38  O   UNL     1       3.548   2.113  -0.021  0.00  0.00    -0.503 OA
ATOM     39  H   UNL     1       3.894   2.310   0.860  0.00  0.00    +0.292 HD
ENDBRANCH  34  38
BRANCH  35  40
ATOM     40  O   UNL     1       3.585  -0.642  -0.036  0.00  0.00    -0.503 OA
ATOM     41  H   UNL     1       3.937  -0.839   0.843  0.00  0.00    +0.292 HD
ENDBRANCH  35  40
ENDBRANCH  31  37
ENDBRANCH  30  31
ENDBRANCH  29  30
ENDBRANCH   1  29
TORSDOF 16
