REMARK  Name = ZINC19428805
REMARK  3 active torsions:
REMARK  status: ('A' for Active; 'I' for Inactive)
REMARK    1  A    between atoms: C_3  and  C_20
REMARK    2  A    between atoms: C_5  and  N_7
REMARK    3  A    between atoms: C_20  and  N_22
REMARK                            x       y       z     vdW  Elec       q    Type
REMARK                         _______ _______ _______ _____ _____    ______ ____
ROOT
ATOM      1  C   UNL     1      -0.017   1.378   0.010  0.00  0.00    +0.002 A 
ATOM      2  C   UNL     1       1.166   2.089   0.002  0.00  0.00    +0.010 A 
ATOM      3  C   UNL     1       2.387   1.411  -0.013  0.00  0.00    +0.005 A 
ATOM      4  C   UNL     1       2.405   0.016  -0.021  0.00  0.00    +0.034 A 
ATOM      5  C   UNL     1       1.212  -0.688  -0.013  0.00  0.00    +0.045 A 
ATOM      6  C   UNL     1       0.002  -0.004   0.002  0.00  0.00    +0.024 A 
ENDROOT
BRANCH   5   7
ATOM      7  N   UNL     1       1.225  -2.090  -0.021  0.00  0.00    -0.210 N 
ATOM      8  C   UNL     1       2.369  -2.826  -0.030  0.00  0.00    +0.230 C 
ATOM      9  O   UNL     1       3.493  -2.425  -0.245  0.00  0.00    -0.275 OA
ATOM     10  C   UNL     1       1.958  -4.230   0.279  0.00  0.00    +0.088 C 
ATOM     11  C   UNL     1       2.711  -5.384  -0.338  0.00  0.00    +0.013 C 
ATOM     12  C   UNL     1       2.010  -6.672   0.131  0.00  0.00    +0.001 C 
ATOM     13  C   UNL     1       0.528  -6.683  -0.229  0.00  0.00    +0.001 C 
ATOM     14  C   UNL     1      -0.193  -5.414   0.269  0.00  0.00    +0.013 C 
ATOM     15  C   UNL     1       0.531  -4.240  -0.346  0.00  0.00    +0.088 C 
ATOM     16  C   UNL     1       0.094  -2.847  -0.014  0.00  0.00    +0.230 C 
ATOM     17  O   UNL     1      -1.035  -2.469   0.212  0.00  0.00    -0.275 OA
ENDBRANCH   5   7
BRANCH   3  18
ATOM     18  C   UNL     1       3.655   2.169  -0.022  0.00  0.00    +0.077 C 
ATOM     19  S   UNL     1       5.021   1.561   0.812  0.00  0.00    -0.035 S 
BRANCH  18  20
ATOM     20  N   UNL     1       3.736   3.339  -0.686  0.00  0.00    -0.352 N 
ATOM     21  H   UNL     1       2.962   3.683  -1.159  0.00  0.00    +0.143 HD
ATOM     22  H   UNL     1       4.569   3.836  -0.692  0.00  0.00    +0.143 HD
ENDBRANCH  18  20
ENDBRANCH   3  18
TORSDOF 3
