REMARK  Name = ZINC37486409
REMARK  5 active torsions:
REMARK  status: ('A' for Active; 'I' for Inactive)
REMARK    1  A    between atoms: C_1  and  C_2
REMARK    2  A    between atoms: C_2  and  N_3
REMARK    3  A    between atoms: C_4  and  N_20
REMARK    4  A    between atoms: C_5  and  N_12
REMARK    5  A    between atoms: N_12  and  C_13
REMARK                            x       y       z     vdW  Elec       q    Type
REMARK                         _______ _______ _______ _____ _____    ______ ____
ROOT
ATOM      1  N   UNL     1      -1.280  -0.838   0.004  0.00  0.00    -0.281 N 
ATOM      2  C   UNL     1      -1.928  -1.022   1.205  0.00  0.00    +0.127 A 
ATOM      3  C   UNL     1      -3.272  -1.282   1.209  0.00  0.00    +0.131 A 
ATOM      4  C   UNL     1      -3.956  -1.357  -0.018  0.00  0.00    +0.277 A 
ATOM      5  O   UNL     1      -5.153  -1.588  -0.039  0.00  0.00    -0.266 OA
ATOM      6  N   UNL     1      -3.281  -1.170  -1.169  0.00  0.00    -0.273 N 
ATOM      7  H   UNL     1      -3.751  -1.221  -2.015  0.00  0.00    +0.173 HD
ATOM      8  C   UNL     1      -1.961  -0.909  -1.154  0.00  0.00    +0.331 A 
ATOM      9  O   UNL     1      -1.373  -0.740  -2.205  0.00  0.00    -0.246 OA
ENDROOT
BRANCH   2  10
ATOM     10  N   UNL     1      -1.232  -0.944   2.389  0.00  0.00    -0.343 N 
ATOM     11  H   UNL     1      -0.280  -0.758   2.381  0.00  0.00    +0.144 HD
ATOM     12  H   UNL     1      -1.693  -1.074   3.232  0.00  0.00    +0.144 HD
ENDBRANCH   2  10
BRANCH   1  14
ATOM     13  C   UNL     1       0.383   0.954   0.057  0.00  0.00    +0.027 C 
ATOM     14  C   UNL     1       0.157  -0.558  -0.012  0.00  0.00    +0.125 C 
ENDBRANCH   1  14
BRANCH   3  15
ATOM     15  N   UNL     1      -3.962  -1.475   2.428  0.00  0.00    -0.334 N 
ATOM     16  H   UNL     1      -3.502  -1.342   3.272  0.00  0.00    +0.147 HD
BRANCH  15  17
ATOM     17  C   UNL     1      -5.370  -1.877   2.417  0.00  0.00    +0.071 C 
ATOM     18  C   UNL     1      -6.242  -0.631   2.158  0.00  0.00    +0.022 C 
ATOM     19  C   UNL     1      -7.583  -1.085   1.645  0.00  0.00    +0.002 C 
ATOM     20  C   UNL     1      -8.626  -1.228   2.770  0.00  0.00    +0.000 C 
ATOM     21  C   UNL     1      -8.048  -1.878   4.042  0.00  0.00    +0.000 C 
ATOM     22  C   UNL     1      -7.139  -3.037   3.734  0.00  0.00    +0.002 C 
ATOM     23  C   UNL     1      -5.687  -2.521   3.684  0.00  0.00    +0.022 C 
ENDBRANCH  15  17
ENDBRANCH   3  15
TORSDOF 4
