REMARK  Name = ZINC40352168
REMARK  7 active torsions:
REMARK  status: ('A' for Active; 'I' for Inactive)
REMARK    1  A    between atoms: C_1  and  C_2
REMARK    2  A    between atoms: C_2  and  C_3
REMARK    3  A    between atoms: C_3  and  C_4
REMARK    4  A    between atoms: C_4  and  C_6
REMARK    5  A    between atoms: C_4  and  N_8
REMARK    6  A    between atoms: C_9  and  C_11
REMARK    7  A    between atoms: C_20  and  O_21
REMARK                            x       y       z     vdW  Elec       q    Type
REMARK                         _______ _______ _______ _____ _____    ______ ____
ROOT
ATOM      1  C   UNL     1      -2.293  -4.283   1.025  0.00  0.00    +0.079 A 
ATOM      2  C   UNL     1      -3.280  -3.487   1.637  0.00  0.00    +0.017 A 
ATOM      3  C   UNL     1      -4.553  -3.934   1.770  0.00  0.00    +0.009 A 
ATOM      4  C   UNL     1      -4.909  -5.211   1.293  0.00  0.00    -0.014 A 
ATOM      5  C   UNL     1      -6.223  -5.690   1.422  0.00  0.00    +0.008 A 
ATOM      6  C   UNL     1      -6.539  -6.928   0.951  0.00  0.00    +0.001 A 
ATOM      7  C   UNL     1      -5.577  -7.731   0.342  0.00  0.00    +0.001 A 
ATOM      8  C   UNL     1      -4.293  -7.299   0.201  0.00  0.00    +0.012 A 
ATOM      9  C   UNL     1      -3.931  -6.027   0.673  0.00  0.00    +0.024 A 
ATOM     10  C   UNL     1      -2.612  -5.548   0.537  0.00  0.00    +0.137 A 
ENDROOT
BRANCH   1  12
ATOM     11  N   UNL     1      -0.605  -2.548   1.364  0.00  0.00    -0.296 N 
ATOM     12  C   UNL     1      -0.918  -3.772   0.893  0.00  0.00    +0.249 C 
ATOM     13  O   UNL     1      -0.064  -4.455   0.360  0.00  0.00    -0.270 OA
ATOM     14  H   UNL     1      -1.286  -2.004   1.789  0.00  0.00    +0.150 HD
BRANCH  11  15
ATOM     15  C   UNL     1       0.763  -2.041   1.233  0.00  0.00    +0.176 C 
BRANCH  15  16
ATOM     16  C   UNL     1       1.576  -2.527   2.360  0.00  0.00    +0.085 C 
ATOM     17  N   UNL     1       2.204  -2.902   3.229  0.00  0.00    -0.195 NA
ENDBRANCH  15  16
BRANCH  15  18
ATOM     18  C   UNL     1       0.742  -0.511   1.242  0.00  0.00    +0.037 C 
BRANCH  18  20
ATOM     19  C   UNL     1      -0.019   1.526   0.010  0.00  0.00    +0.004 C 
ATOM     20  C   UNL     1       0.002  -0.004   0.002  0.00  0.00    -0.001 C 
ENDBRANCH  18  20
ENDBRANCH  15  18
ENDBRANCH  11  15
ENDBRANCH   1  12
BRANCH  10  21
ATOM     21  O   UNL     1      -1.664  -6.311  -0.056  0.00  0.00    -0.505 OA
ATOM     22  H   UNL     1      -1.183  -6.887   0.554  0.00  0.00    +0.292 HD
ENDBRANCH  10  21
TORSDOF 6
