REMARK  Name = ZINC14753826
REMARK  8 active torsions:
REMARK  status: ('A' for Active; 'I' for Inactive)
REMARK    1  A    between atoms: C_1  and  C_2
REMARK    2  A    between atoms: C_2  and  O_3
REMARK    3  A    between atoms: O_3  and  C_4
REMARK    4  A    between atoms: N_13  and  C_14
REMARK    5  A    between atoms: C_14  and  C_16
REMARK    6  A    between atoms: C_16  and  N_17
REMARK    7  A    between atoms: N_20  and  S_23
REMARK    8  A    between atoms: S_23  and  C_26
REMARK                            x       y       z     vdW  Elec       q    Type
REMARK                         _______ _______ _______ _____ _____    ______ ____
ROOT
ATOM      1  C   UNL     1       2.238  -9.909  -3.324  0.00  0.00    +0.182 C 
ENDROOT
BRANCH   1   2
ATOM      2  N   UNL     1       1.802 -10.916  -2.347  0.00  0.00    -0.291 NA
ATOM      3  C   UNL     1       2.509 -10.751  -1.070  0.00  0.00    +0.102 C 
ATOM      4  C   UNL     1       1.901 -11.695  -0.028  0.00  0.00    +0.125 C 
ATOM      5  N   UNL     1       1.913 -13.062  -0.573  0.00  0.00    -0.174 NA
ATOM      6  C   UNL     1       1.344 -13.282  -1.911  0.00  0.00    +0.125 C 
ATOM      7  C   UNL     1       1.974 -12.274  -2.879  0.00  0.00    +0.102 C 
BRANCH   5   8
ATOM      8  S   UNL     1       2.548 -14.319   0.298  0.00  0.00    +0.064 S 
ATOM      9  O   UNL     1       2.924 -15.315  -0.643  0.00  0.00    -0.153 OA
ATOM     10  O   UNL     1       3.473 -13.750   1.216  0.00  0.00    -0.153 OA
BRANCH   8  11
ATOM     11  C   UNL     1       1.239 -15.001   1.259  0.00  0.00    +0.140 A 
ATOM     12  C   UNL     1       0.810 -16.294   1.024  0.00  0.00    +0.031 A 
ATOM     13  C   UNL     1      -0.217 -16.830   1.778  0.00  0.00    +0.002 A 
ATOM     14  C   UNL     1      -0.817 -16.074   2.768  0.00  0.00    +0.003 A 
ATOM     15  C   UNL     1      -0.389 -14.781   3.006  0.00  0.00    +0.040 A 
ATOM     16  C   UNL     1       0.644 -14.245   2.254  0.00  0.00    +0.150 A 
ATOM     17  F   UNL     1       1.066 -12.983   2.489  0.00  0.00    -0.203 F 
ENDBRANCH   8  11
ENDBRANCH   5   8
ENDBRANCH   1   2
BRANCH   1  18
ATOM     18  C   UNL     1       1.824  -8.539  -2.852  0.00  0.00    +0.252 C 
ATOM     19  O   UNL     1       1.224  -8.413  -1.802  0.00  0.00    -0.272 OA
BRANCH  18  29
ATOM     20  C   UNL     1       0.798  -1.810  -1.327  0.00  0.00    +0.122 A 
ATOM     21  C   UNL     1       0.255  -2.676  -0.385  0.00  0.00    +0.048 A 
ATOM     22  C   UNL     1       0.347  -4.039  -0.537  0.00  0.00    +0.030 A 
ATOM     23  C   UNL     1       0.993  -4.593  -1.652  0.00  0.00    +0.055 A 
ATOM     24  C   UNL     1       1.531  -3.698  -2.588  0.00  0.00    +0.042 A 
ATOM     25  C   UNL     1       1.437  -2.334  -2.441  0.00  0.00    +0.062 A 
ATOM     26  S   UNL     1       2.240  -4.771  -3.809  0.00  0.00    -0.052 S 
ATOM     27  C   UNL     1       1.844  -6.251  -3.117  0.00  0.00    +0.164 A 
ATOM     28  N   UNL     1       1.185  -5.924  -1.978  0.00  0.00    -0.335 N 
ATOM     29  N   UNL     1       2.116  -7.468  -3.583  0.00  0.00    -0.155 NA
ATOM     30  H   UNL     1       0.848  -6.621  -1.393  0.00  0.00    +0.168 HD
BRANCH  20  31
ATOM     31  O   UNL     1       0.699  -0.464  -1.161  0.00  0.00    -0.492 OA
BRANCH  31  33
ATOM     32  C   UNL     1       0.014   1.527   0.026  0.00  0.00    +0.048 C 
ATOM     33  C   UNL     1       0.026  -0.003   0.013  0.00  0.00    +0.225 C 
ENDBRANCH  31  33
ENDBRANCH  20  31
ENDBRANCH  18  29
ENDBRANCH   1  18
TORSDOF 7
