REMARK  Name = ZINC62846737
REMARK  6 active torsions:
REMARK  status: ('A' for Active; 'I' for Inactive)
REMARK    1  A    between atoms: C_1  and  C_2
REMARK    2  A    between atoms: C_2  and  C_3
REMARK    3  A    between atoms: C_3  and  C_21
REMARK    4  A    between atoms: N_11  and  C_12
REMARK    5  A    between atoms: C_12  and  C_14
REMARK    6  A    between atoms: C_12  and  C_15
REMARK                            x       y       z     vdW  Elec       q    Type
REMARK                         _______ _______ _______ _____ _____    ______ ____
ROOT
ATOM      1  C   UNL     1       0.721  -0.498  -1.261  0.00  0.00    +0.075 C 
ATOM      2  C   UNL     1      -0.019   0.010  -2.500  0.00  0.00    +0.037 C 
ATOM      3  C   UNL     1      -1.466  -0.492  -2.467  0.00  0.00    +0.110 C 
ATOM      4  N   UNL     1      -1.456  -1.955  -2.328  0.00  0.00    -0.286 N 
ATOM      5  C   UNL     1      -0.697  -2.554  -1.222  0.00  0.00    +0.110 C 
ATOM      6  C   UNL     1       0.741  -2.028  -1.268  0.00  0.00    +0.037 C 
ATOM      7  C   UNL     1      -2.129  -2.732  -3.199  0.00  0.00    +0.302 C 
ATOM      8  O   UNL     1      -2.827  -2.223  -4.054  0.00  0.00    -0.253 OA
ATOM      9  N   UNL     1      -2.030  -4.074  -3.121  0.00  0.00    -0.294 N 
ATOM     10  H   UNL     1      -1.533  -4.482  -2.395  0.00  0.00    +0.151 HD
ENDROOT
BRANCH   1  11
ATOM     11  C   UNL     1       2.135   0.022  -1.272  0.00  0.00    +0.362 C 
ATOM     12  O   UNL     1       2.535   0.724  -0.358  0.00  0.00    -0.246 OA
ATOM     13  O   UNL     1       2.881  -0.258  -2.196  0.00  0.00    -0.246 OA
ENDBRANCH   1  11
BRANCH   1  15
ATOM     14  C   UNL     1      -0.013   1.526   0.006  0.00  0.00    +0.005 C 
ATOM     15  C   UNL     1       0.007  -0.004  -0.001  0.00  0.00    +0.015 C 
ENDBRANCH   1  15
BRANCH   9  16
ATOM     16  C   UNL     1      -2.671  -4.916  -4.134  0.00  0.00    +0.100 C 
ATOM     17  C   UNL     1      -1.740  -5.063  -5.339  0.00  0.00    +0.030 C 
BRANCH  16  18
ATOM     18  C   UNL     1      -2.960  -6.297  -3.541  0.00  0.00    +0.138 C 
ATOM     19  C   UNL     1      -3.895  -6.157  -2.321  0.00  0.00    +0.035 C 
ATOM     20  C   UNL     1      -3.312  -7.208  -1.337  0.00  0.00    +0.031 C 
ATOM     21  C   UNL     1      -1.801  -7.113  -1.667  0.00  0.00    +0.160 C 
ATOM     22  O   UNL     1      -1.740  -6.895  -3.088  0.00  0.00    -0.375 OA
ENDBRANCH  16  18
ENDBRANCH   9  16
TORSDOF 4
