REMARK  Name = ZINC08586413
REMARK  10 active torsions:
REMARK  status: ('A' for Active; 'I' for Inactive)
REMARK    1  A    between atoms: C_1  and  C_2
REMARK    2  A    between atoms: C_2  and  O_3
REMARK    3  A    between atoms: O_3  and  C_4
REMARK    4  A    between atoms: C_11  and  C_15
REMARK    5  A    between atoms: C_12  and  O_14
REMARK    6  A    between atoms: C_15  and  C_17
REMARK    7  A    between atoms: C_15  and  N_61
REMARK    8  A    between atoms: N_21  and  C_22
REMARK    9  A    between atoms: C_22  and  C_23
REMARK   10  A    between atoms: C_30  and  C_33
REMARK                            x       y       z     vdW  Elec       q    Type
REMARK                         _______ _______ _______ _____ _____    ______ ____
ROOT
ATOM      1  C   UNL     1      -0.144   0.883  -0.010  0.00  0.00    +0.039 C 
ENDROOT
BRANCH   1   9
ATOM      2  C   UNL     1       5.896   0.756  -1.138  0.00  0.00    +0.121 A 
ATOM      3  C   UNL     1       5.992   2.081  -1.571  0.00  0.00    +0.048 A 
ATOM      4  C   UNL     1       4.896   2.886  -1.611  0.00  0.00    +0.032 A 
ATOM      5  C   UNL     1       3.645   2.385  -1.211  0.00  0.00    +0.075 A 
ATOM      6  C   UNL     1       3.548   1.042  -0.772  0.00  0.00    +0.004 A 
ATOM      7  C   UNL     1       4.696   0.236  -0.743  0.00  0.00    +0.055 A 
ATOM      8  C   UNL     1       2.293   0.541  -0.373  0.00  0.00    +0.017 A 
ATOM      9  C   UNL     1       1.217   1.377  -0.427  0.00  0.00    +0.008 A 
ATOM     10  C   UNL     1       1.378   2.693  -0.875  0.00  0.00    +0.215 A 
ATOM     11  N   UNL     1       2.553   3.157  -1.242  0.00  0.00    -0.213 NA
BRANCH  10  12
ATOM     12  O   UNL     1       0.298   3.511  -0.928  0.00  0.00    -0.492 OA
ATOM     13  H   UNL     1       0.114   3.973  -0.099  0.00  0.00    +0.294 HD
ENDBRANCH  10  12
BRANCH   2  14
ATOM     14  O   UNL     1       7.009  -0.024  -1.109  0.00  0.00    -0.492 OA
BRANCH  14  16
ATOM     15  C   UNL     1       9.366  -0.447  -1.433  0.00  0.00    +0.048 C 
ATOM     16  C   UNL     1       8.234   0.577  -1.534  0.00  0.00    +0.225 C 
ENDBRANCH  14  16
ENDBRANCH   2  14
ENDBRANCH   1   9
BRANCH   1  23
ATOM     17  C   UNL     1      -0.758   0.874  -2.352  0.00  0.00    -0.077 C 
ATOM     18  C   UNL     1      -1.740   1.452  -3.373  0.00  0.00    -0.015 C 
ATOM     19  C   UNL     1      -3.154   0.964  -3.045  0.00  0.00    -0.018 C 
ATOM     20  C   UNL     1      -3.513   1.384  -1.617  0.00  0.00    -0.015 C 
ATOM     21  C   UNL     1      -2.479   0.807  -0.647  0.00  0.00    -0.077 C 
ATOM     22  C   UNL     1      -4.150   1.587  -4.026  0.00  0.00    +0.007 C 
ATOM     23  N   UNL     1      -1.143   1.334  -1.001  0.00  0.00    +0.389 N 
ATOM     24  H   UNL     1      -1.178   2.360  -0.996  0.00  0.00    -0.080 HD
ENDBRANCH   1  23
BRANCH   1  25
ATOM     25  C   UNL     1      -0.498   1.462   1.336  0.00  0.00    +0.143 A 
ATOM     26  N   UNL     1      -0.841   2.701   1.589  0.00  0.00    -0.115 NA
ATOM     27  N   UNL     1      -1.067   2.801   2.854  0.00  0.00    -0.023 NA
ATOM     28  N   UNL     1      -0.870   1.659   3.415  0.00  0.00    -0.044 NA
ATOM     29  N   UNL     1      -0.518   0.807   2.512  0.00  0.00    -0.223 N 
BRANCH  29  30
ATOM     30  C   UNL     1      -0.200  -0.607   2.727  0.00  0.00    +0.221 C 
BRANCH  30  31
ATOM     31  C   UNL     1       1.239  -0.738   3.154  0.00  0.00    +0.126 A 
ATOM     32  C   UNL     1       1.683  -0.778   4.423  0.00  0.00    +0.046 A 
ATOM     33  C   UNL     1       3.089  -0.910   4.362  0.00  0.00    +0.041 A 
ATOM     34  C   UNL     1       3.422  -0.935   3.059  0.00  0.00    +0.195 A 
ATOM     35  O   UNL     1       2.297  -0.830   2.332  0.00  0.00    -0.466 OA
ENDBRANCH  30  31
ENDBRANCH  29  30
ENDBRANCH   1  25
TORSDOF 8
