REMARK  Name = ZINC37425195
REMARK  11 active torsions:
REMARK  status: ('A' for Active; 'I' for Inactive)
REMARK    1  A    between atoms: C_3  and  C_8
REMARK    2  A    between atoms: C_8  and  O_9
REMARK    3  A    between atoms: O_9  and  C_10
REMARK    4  A    between atoms: C_10  and  C_30
REMARK    5  A    between atoms: C_12  and  O_29
REMARK    6  A    between atoms: C_14  and  O_28
REMARK    7  A    between atoms: C_16  and  O_19
REMARK    8  A    between atoms: O_19  and  C_20
REMARK    9  A    between atoms: C_20  and  C_21
REMARK   10  A    between atoms: N_32  and  C_33
REMARK   11  A    between atoms: C_33  and  C_34
REMARK                            x       y       z     vdW  Elec       q    Type
REMARK                         _______ _______ _______ _____ _____    ______ ____
ROOT
ATOM      1  C   UNL     1       5.275   3.187   1.531  0.00  0.00    +0.150 C 
ATOM      2  C   UNL     1       5.136   4.634   1.054  0.00  0.00    +0.078 C 
ATOM      3  C   UNL     1       3.957   5.296   1.770  0.00  0.00    +0.149 C 
ATOM      4  C   UNL     1       4.202   5.278   3.280  0.00  0.00    +0.172 C 
ATOM      5  C   UNL     1       4.341   3.831   3.757  0.00  0.00    +0.153 C 
ATOM      6  C   UNL     1       5.520   3.169   3.041  0.00  0.00    +0.079 C 
ENDROOT
BRANCH   1   7
ATOM      7  C   UNL     1       6.436   2.535   0.826  0.00  0.00    +0.245 C 
ATOM      8  O   UNL     1       7.528   2.510   1.352  0.00  0.00    -0.273 OA
ATOM      9  N   UNL     1       6.261   1.979  -0.390  0.00  0.00    -0.310 N 
ATOM     10  H   UNL     1       5.375   1.941  -0.782  0.00  0.00    +0.149 HD
BRANCH   9  11
ATOM     11  C   UNL     1       7.409   1.433  -1.118  0.00  0.00    +0.135 C 
BRANCH  11  12
ATOM     12  C   UNL     1       6.939   0.867  -2.459  0.00  0.00    +0.135 C 
ATOM     13  C   UNL     1       8.133   0.252  -3.232  0.00  0.00    +0.035 C 
ATOM     14  C   UNL     1       7.401  -0.770  -4.143  0.00  0.00    +0.031 C 
ATOM     15  C   UNL     1       6.234  -1.233  -3.244  0.00  0.00    +0.160 C 
ATOM     16  O   UNL     1       6.026  -0.222  -2.249  0.00  0.00    -0.375 OA
ENDBRANCH  11  12
ENDBRANCH   9  11
ENDBRANCH   1   7
BRANCH   4  17
ATOM     17  O   UNL     1       3.101   5.896   3.948  0.00  0.00    -0.387 OA
ATOM     18  H   UNL     1       2.953   6.818   3.694  0.00  0.00    +0.210 HD
ENDBRANCH   4  17
BRANCH   3  19
ATOM     19  O   UNL     1       2.756   4.579   1.473  0.00  0.00    -0.389 OA
ATOM     20  H   UNL     1       1.966   4.944   1.895  0.00  0.00    +0.210 HD
ENDBRANCH   3  19
BRANCH   1  21
ATOM     21  O   UNL     1       4.074   2.470   1.235  0.00  0.00    -0.359 OA
BRANCH  21  22
ATOM     22  C   UNL     1       4.086   1.110   1.673  0.00  0.00    +0.196 C 
BRANCH  22  25
ATOM     23  C   UNL     1       1.351  -0.753  -0.145  0.00  0.00    +0.003 A 
ATOM     24  C   UNL     1       2.568  -0.165   0.145  0.00  0.00    +0.006 A 
ATOM     25  C   UNL     1       2.759   0.470   1.358  0.00  0.00    -0.019 A 
ATOM     26  C   UNL     1       1.733   0.516   2.283  0.00  0.00    +0.044 A 
ATOM     27  C   UNL     1       0.513  -0.072   1.994  0.00  0.00    +0.124 A 
ATOM     28  C   UNL     1       0.324  -0.707   0.778  0.00  0.00    +0.038 A 
ATOM     29  F   UNL     1      -0.490  -0.028   2.898  0.00  0.00    -0.205 F 
ENDBRANCH  22  25
ENDBRANCH  21  22
ENDBRANCH   1  21
BRANCH   5  30
ATOM     30  O   UNL     1       4.569   3.814   5.167  0.00  0.00    -0.369 OA
BRANCH  30  31
ATOM     31  C   UNL     1       3.375   3.753   5.949  0.00  0.00    +0.195 C 
BRANCH  31  32
ATOM     32  C   UNL     1       3.733   3.740   7.413  0.00  0.00    -0.021 A 
ATOM     33  C   UNL     1       3.950   2.538   8.061  0.00  0.00    +0.006 A 
ATOM     34  C   UNL     1       4.279   2.526   9.404  0.00  0.00    +0.002 A 
ATOM     35  C   UNL     1       4.389   3.716  10.099  0.00  0.00    +0.020 A 
ATOM     36  C   UNL     1       4.172   4.918   9.451  0.00  0.00    +0.041 A 
ATOM     37  C   UNL     1       3.850   4.930   8.106  0.00  0.00    +0.026 A 
ATOM     38 CL   UNL     1       4.311   6.412  10.324  0.00  0.00    -0.084 Cl
ENDBRANCH  31  32
ENDBRANCH  30  31
ENDBRANCH   5  30
TORSDOF 11
