REMARK  Name = ZINC67470370
REMARK  9 active torsions:
REMARK  status: ('A' for Active; 'I' for Inactive)
REMARK    1  A    between atoms: C_1  and  C_2
REMARK    2  A    between atoms: C_3  and  N_9
REMARK    3  A    between atoms: N_9  and  N_10
REMARK    4  A    between atoms: N_13  and  C_14
REMARK    5  A    between atoms: C_14  and  C_16
REMARK    6  A    between atoms: C_14  and  C_17
REMARK    7  A    between atoms: C_21  and  S_23
REMARK    8  A    between atoms: S_23  and  N_26
REMARK    9  A    between atoms: N_26  and  C_27
REMARK                            x       y       z     vdW  Elec       q    Type
REMARK                         _______ _______ _______ _____ _____    ______ ____
ROOT
ATOM      1  N   UNL     1      -0.006  -0.687  -3.627  0.00  0.00    -0.220 N 
ATOM      2  C   UNL     1      -0.021  -0.009  -4.792  0.00  0.00    +0.316 C 
ATOM      3  O   UNL     1      -0.018  -0.613  -5.847  0.00  0.00    -0.251 OA
ATOM      4  N   UNL     1      -0.040   1.339  -4.787  0.00  0.00    -0.292 N 
ATOM      5  H   UNL     1       0.007  -1.657  -3.631  0.00  0.00    +0.174 HD
ATOM      6  H   UNL     1      -0.043   1.821  -3.945  0.00  0.00    +0.151 HD
ENDROOT
BRANCH   1   7
ATOM      7  N   UNL     1      -0.010   0.010  -2.411  0.00  0.00    -0.263 N 
ATOM      8  H   UNL     1      -0.023   0.980  -2.408  0.00  0.00    +0.170 HD
BRANCH   7  11
ATOM      9  C   UNL     1      -0.018   1.503   0.010  0.00  0.00    +0.047 C 
ATOM     10  C   UNL     1       0.002  -0.004   0.002  0.00  0.00    -0.010 A 
ATOM     11  C   UNL     1       0.006  -0.693  -1.204  0.00  0.00    +0.049 A 
ATOM     12  C   UNL     1       0.025  -2.082  -1.208  0.00  0.00    +0.025 A 
ATOM     13  C   UNL     1       0.040  -2.774  -0.012  0.00  0.00    +0.003 A 
ATOM     14  C   UNL     1       0.035  -2.087   1.187  0.00  0.00    +0.020 A 
ATOM     15  C   UNL     1       0.023  -0.702   1.194  0.00  0.00    +0.046 A 
ATOM     16 CL   UNL     1       0.026   0.157   2.703  0.00  0.00    -0.083 Cl
ENDBRANCH   7  11
ENDBRANCH   1   7
BRANCH   4  17
ATOM     17  C   UNL     1      -0.056   2.076  -6.053  0.00  0.00    +0.102 C 
ATOM     18  C   UNL     1       1.376   2.244  -6.564  0.00  0.00    +0.033 C 
BRANCH  17  19
ATOM     19  C   UNL     1      -0.675   3.433  -5.837  0.00  0.00    -0.026 A 
ATOM     20  C   UNL     1      -0.382   4.151  -4.692  0.00  0.00    +0.005 A 
ATOM     21  C   UNL     1      -0.949   5.396  -4.494  0.00  0.00    +0.002 A 
ATOM     22  C   UNL     1      -1.809   5.923  -5.439  0.00  0.00    +0.028 A 
ATOM     23  C   UNL     1      -2.101   5.205  -6.584  0.00  0.00    +0.106 A 
ATOM     24  C   UNL     1      -1.530   3.962  -6.785  0.00  0.00    +0.034 A 
BRANCH  23  25
ATOM     25  S   UNL     1      -3.197   5.876  -7.789  0.00  0.00    +0.058 S 
ATOM     26  O   UNL     1      -3.733   4.774  -8.509  0.00  0.00    -0.153 OA
ATOM     27  O   UNL     1      -4.020   6.816  -7.111  0.00  0.00    -0.153 OA
BRANCH  25  28
ATOM     28  N   UNL     1      -2.277   6.740  -8.861  0.00  0.00    -0.193 NA
ATOM     29  C   UNL     1      -1.296   6.052  -9.704  0.00  0.00    +0.127 C 
ATOM     30  H   UNL     1      -2.387   7.701  -8.931  0.00  0.00    +0.148 HD
ENDBRANCH  25  28
ENDBRANCH  23  25
ENDBRANCH  17  19
ENDBRANCH   4  17
TORSDOF 6
