REMARK  Name = ZINC57927832
REMARK  6 active torsions:
REMARK  status: ('A' for Active; 'I' for Inactive)
REMARK    1  A    between atoms: C_1  and  C_2
REMARK    2  A    between atoms: N_6  and  C_14
REMARK    3  A    between atoms: C_14  and  C_15
REMARK    4  A    between atoms: N_17  and  C_18
REMARK    5  A    between atoms: N_17  and  C_19
REMARK    6  A    between atoms: C_19  and  C_20
REMARK                            x       y       z     vdW  Elec       q    Type
REMARK                         _______ _______ _______ _____ _____    ______ ____
ROOT
ATOM      1  C   UNL     1      -0.019   1.526   0.010  0.00  0.00    +0.038 C 
ATOM      2  C   UNL     1       0.002  -0.004   0.002  0.00  0.00    +0.154 C 
ATOM      3  C   UNL     1      -1.411  -0.528   0.017  0.00  0.00    +0.240 C 
ATOM      4  O   UNL     1      -1.992  -0.717  -1.031  0.00  0.00    -0.273 OA
ATOM      5  N   UNL     1      -2.037  -0.788   1.181  0.00  0.00    -0.259 N 
ATOM      6  C   UNL     1      -1.372  -0.625   2.402  0.00  0.00    +0.058 A 
ATOM      7  C   UNL     1      -2.076  -0.605   3.595  0.00  0.00    +0.025 A 
ATOM      8  C   UNL     1      -1.399  -0.449   4.791  0.00  0.00    +0.002 A 
ATOM      9  C   UNL     1      -0.023  -0.312   4.803  0.00  0.00    +0.002 A 
ATOM     10  C   UNL     1       0.688  -0.330   3.616  0.00  0.00    +0.025 A 
ATOM     11  C   UNL     1       0.017  -0.483   2.416  0.00  0.00    +0.049 A 
ATOM     12  N   UNL     1       0.709  -0.493   1.195  0.00  0.00    -0.332 N 
ATOM     13  H   UNL     1       1.623  -0.813   1.139  0.00  0.00    +0.147 HD
ENDROOT
BRANCH   5  14
ATOM     14  C   UNL     1      -3.429  -1.245   1.169  0.00  0.00    +0.209 C 
BRANCH  14  15
ATOM     15  C   UNL     1      -3.463  -2.750   1.102  0.00  0.00    +0.233 C 
ATOM     16  O   UNL     1      -2.426  -3.379   1.068  0.00  0.00    -0.274 OA
ATOM     17  N   UNL     1      -4.645  -3.397   1.080  0.00  0.00    -0.299 N 
ATOM     18  C   UNL     1      -5.897  -2.638   1.122  0.00  0.00    +0.132 C 
BRANCH  17  19
ATOM     19  C   UNL     1      -4.678  -4.860   1.015  0.00  0.00    +0.142 C 
BRANCH  19  20
ATOM     20  C   UNL     1      -4.680  -5.425   2.412  0.00  0.00    -0.030 A 
ATOM     21  C   UNL     1      -3.485  -5.706   3.047  0.00  0.00    +0.005 A 
ATOM     22  C   UNL     1      -3.487  -6.224   4.328  0.00  0.00    +0.000 A 
ATOM     23  C   UNL     1      -4.685  -6.461   4.976  0.00  0.00    +0.000 A 
ATOM     24  C   UNL     1      -5.881  -6.180   4.341  0.00  0.00    +0.000 A 
ATOM     25  C   UNL     1      -5.878  -5.658   3.061  0.00  0.00    +0.005 A 
ENDBRANCH  19  20
ENDBRANCH  17  19
ENDBRANCH  14  15
ENDBRANCH   5  14
TORSDOF 4
