REMARK  Name = ZINC47140673
REMARK  10 active torsions:
REMARK  status: ('A' for Active; 'I' for Inactive)
REMARK    1  A    between atoms: C_1  and  C_2
REMARK    2  A    between atoms: C_2  and  C_3
REMARK    3  A    between atoms: C_2  and  C_4
REMARK    4  A    between atoms: C_2  and  N_5
REMARK    5  A    between atoms: N_5  and  S_6
REMARK    6  A    between atoms: S_6  and  C_9
REMARK    7  A    between atoms: C_12  and  C_14
REMARK    8  A    between atoms: N_16  and  C_17
REMARK    9  A    between atoms: C_17  and  C_18
REMARK   10  A    between atoms: C_18  and  N_19
REMARK                            x       y       z     vdW  Elec       q    Type
REMARK                         _______ _______ _______ _____ _____    ______ ____
ROOT
ATOM      1  C   UNL     1       2.473  -1.828   0.239  0.00  0.00    +0.258 A 
ATOM      2  C   UNL     1       2.551  -3.177   0.255  0.00  0.00    +0.072 A 
ATOM      3  C   UNL     1       3.121  -3.543   1.484  0.00  0.00    +0.057 A 
ATOM      4  C   UNL     1       3.365  -2.385   2.164  0.00  0.00    +0.192 A 
ATOM      5  O   UNL     1       2.969  -1.354   1.389  0.00  0.00    -0.432 OA
ENDROOT
BRANCH   4   6
ATOM      6  C   UNL     1       3.958  -2.280   3.501  0.00  0.00    +0.279 C 
ATOM      7  O   UNL     1       4.280  -3.286   4.105  0.00  0.00    -0.267 OA
ATOM      8  N   UNL     1       4.146  -1.068   4.062  0.00  0.00    -0.311 N 
ATOM      9  H   UNL     1       3.889  -0.266   3.581  0.00  0.00    +0.149 HD
BRANCH   8  10
ATOM     10  C   UNL     1       4.738  -0.963   5.397  0.00  0.00    +0.086 C 
BRANCH  10  11
ATOM     11  C   UNL     1       4.840   0.510   5.796  0.00  0.00    -0.060 C 
BRANCH  11  12
ATOM     12  N   UNL     1       5.434   0.616   7.135  0.00  0.00    +0.381 N 
ATOM     13  C   UNL     1       4.534   0.001   8.118  0.00  0.00    -0.079 C 
ATOM     14  C   UNL     1       5.184   0.036   9.503  0.00  0.00    -0.019 C 
ATOM     15  C   UNL     1       5.455   1.490   9.897  0.00  0.00    -0.004 C 
ATOM     16  C   UNL     1       6.334   2.144   8.827  0.00  0.00    -0.019 C 
ATOM     17  C   UNL     1       5.641   2.031   7.467  0.00  0.00    -0.079 C 
ATOM     18  H   UNL     1       6.321   0.135   7.147  0.00  0.00    -0.082 HD
ENDBRANCH  11  12
ENDBRANCH  10  11
ENDBRANCH   8  10
ENDBRANCH   4   6
BRANCH   1  19
ATOM     19  S   UNL     1       1.832  -0.852  -1.081  0.00  0.00    +0.092 S 
ATOM     20  O   UNL     1       2.104  -1.563  -2.281  0.00  0.00    -0.150 OA
ATOM     21  O   UNL     1       2.286   0.476  -0.862  0.00  0.00    -0.150 OA
BRANCH  19  22
ATOM     22  N   UNL     1       0.185  -0.823  -0.912  0.00  0.00    -0.182 NA
ATOM     23  H   UNL     1      -0.379  -1.250  -1.576  0.00  0.00    +0.149 HD
BRANCH  22  25
ATOM     24  C   UNL     1      -0.191   1.358   0.129  0.00  0.00    +0.029 C 
ATOM     25  C   UNL     1      -0.422  -0.150   0.239  0.00  0.00    +0.032 C 
ATOM     26  C   UNL     1       0.217  -0.671   1.528  0.00  0.00    +0.029 C 
ATOM     27  C   UNL     1      -1.925  -0.436   0.264  0.00  0.00    +0.029 C 
ENDBRANCH  22  25
ENDBRANCH  19  22
ENDBRANCH   1  19
TORSDOF 7
