REMARK  Name = ZINC61843580
REMARK  3 active torsions:
REMARK  status: ('A' for Active; 'I' for Inactive)
REMARK    1  A    between atoms: C_1  and  N_2
REMARK    2  A    between atoms: C_12  and  C_14
REMARK    3  A    between atoms: C_14  and  N_16
REMARK                            x       y       z     vdW  Elec       q    Type
REMARK                         _______ _______ _______ _____ _____    ______ ____
ROOT
ATOM      1  C   UNL     1      -0.018   1.461   0.010  0.00  0.00    +0.152 C 
ATOM      2  N   UNL     1       0.002  -0.004   0.002  0.00  0.00    -0.314 N 
ATOM      3  C   UNL     1       0.006  -0.687  -1.175  0.00  0.00    +0.108 A 
ATOM      4  C   UNL     1       0.024  -2.039  -1.192  0.00  0.00    +0.131 A 
ATOM      5  N   UNL     1       0.038  -2.752  -0.069  0.00  0.00    -0.230 NA
ATOM      6  C   UNL     1       0.036  -2.159   1.105  0.00  0.00    +0.221 A 
ATOM      7  C   UNL     1       0.022  -0.695   1.164  0.00  0.00    +0.296 A 
ATOM      8  O   UNL     1       0.025  -0.114   2.236  0.00  0.00    -0.264 OA
ATOM      9  N   UNL     1       0.051  -2.914   2.279  0.00  0.00    -0.197 N 
ATOM     10  C   UNL     1       0.074  -4.261   2.374  0.00  0.00    +0.227 A 
ATOM     11  N   UNL     1       0.082  -4.583   3.638  0.00  0.00    -0.213 NA
ATOM     12  C   UNL     1       0.065  -3.472   4.391  0.00  0.00    +0.203 A 
ATOM     13  N   UNL     1       0.051  -2.422   3.595  0.00  0.00    -0.141 NA
ENDROOT
BRANCH  12  14
ATOM     14  C   UNL     1       0.066  -3.433   5.867  0.00  0.00    +0.116 C 
ATOM     15  S   UNL     1       0.042  -1.928   6.683  0.00  0.00    -0.032 S 
BRANCH  14  16
ATOM     16  N   UNL     1       0.087  -4.581   6.571  0.00  0.00    -0.349 N 
ATOM     17  H   UNL     1       0.101  -5.434   6.109  0.00  0.00    +0.143 HD
ATOM     18  H   UNL     1       0.088  -4.555   7.541  0.00  0.00    +0.143 HD
ENDBRANCH  14  16
ENDBRANCH  12  14
TORSDOF 2
