REMARK  Name = ZINC09365557
REMARK  6 active torsions:
REMARK  status: ('A' for Active; 'I' for Inactive)
REMARK    1  A    between atoms: C_1  and  C_2
REMARK    2  A    between atoms: C_10  and  C_11
REMARK    3  A    between atoms: N_13  and  N_14
REMARK    4  A    between atoms: C_15  and  C_17
REMARK    5  A    between atoms: C_18  and  C_23
REMARK    6  A    between atoms: C_21  and  C_22
REMARK                            x       y       z     vdW  Elec       q    Type
REMARK                         _______ _______ _______ _____ _____    ______ ____
ROOT
ATOM      1  C   UNL     1       1.243  -2.036  -0.021  0.00  0.00    +0.296 C 
ATOM      2  O   UNL     1       0.198  -2.658  -0.014  0.00  0.00    -0.265 OA
ATOM      3  N   UNL     1       1.225  -0.688  -0.013  0.00  0.00    -0.228 N 
ATOM      4  H   UNL     1       2.058  -0.192  -0.019  0.00  0.00    +0.173 HD
ENDROOT
BRANCH   1  14
ATOM      5  C   UNL     1       1.561  -5.129  -0.028  0.00  0.00    +0.048 C 
ATOM      6  C   UNL     1       2.666  -4.104  -0.040  0.00  0.00    +0.008 A 
ATOM      7  C   UNL     1       4.105  -4.362  -0.059  0.00  0.00    +0.024 A 
ATOM      8  C   UNL     1       4.886  -5.520  -0.072  0.00  0.00    +0.012 A 
ATOM      9  C   UNL     1       6.249  -5.417  -0.084  0.00  0.00    +0.001 A 
ATOM     10  C   UNL     1       6.860  -4.171  -0.084  0.00  0.00    +0.004 A 
ATOM     11  C   UNL     1       6.107  -3.017  -0.071  0.00  0.00    +0.047 A 
ATOM     12  C   UNL     1       4.719  -3.096  -0.059  0.00  0.00    +0.136 A 
ATOM     13  O   UNL     1       3.742  -2.169  -0.045  0.00  0.00    -0.450 OA
ATOM     14  C   UNL     1       2.526  -2.753  -0.037  0.00  0.00    +0.195 A 
ENDBRANCH   1  14
BRANCH   3  15
ATOM     15  N   UNL     1       0.002  -0.004   0.002  0.00  0.00    -0.230 N 
ATOM     16  C   UNL     1      -0.016   1.344   0.009  0.00  0.00    +0.265 C 
ATOM     17  O   UNL     1       1.029   1.966   0.003  0.00  0.00    -0.268 OA
ATOM     18  H   UNL     1      -0.831  -0.500   0.007  0.00  0.00    +0.173 HD
BRANCH  16  19
ATOM     19  C   UNL     1      -1.303   2.063   0.019  0.00  0.00    +0.102 A 
ATOM     20  C   UNL     1      -2.108   2.517  -1.125  0.00  0.00    +0.093 A 
ATOM     21  N   UNL     1      -3.149   3.097  -0.604  0.00  0.00    -0.083 NA
ATOM     22  O   UNL     1      -3.126   3.080   0.603  0.00  0.00    -0.359 OA
ATOM     23  C   UNL     1      -2.048   2.470   1.099  0.00  0.00    +0.147 A 
ATOM     24  C   UNL     1      -1.713   2.270   2.555  0.00  0.00    +0.090 C 
ATOM     25  C   UNL     1      -1.795   2.346  -2.589  0.00  0.00    +0.070 C 
ENDBRANCH  16  19
ENDBRANCH   3  15
TORSDOF 3
