REMARK  Name = ZINC39415620
REMARK  10 active torsions:
REMARK  status: ('A' for Active; 'I' for Inactive)
REMARK    1  A    between atoms: C_1  and  C_2
REMARK    2  A    between atoms: C_2  and  O_3
REMARK    3  A    between atoms: O_3  and  C_4
REMARK    4  A    between atoms: C_4  and  C_6
REMARK    5  A    between atoms: C_8  and  C_32
REMARK    6  A    between atoms: C_10  and  C_29
REMARK    7  A    between atoms: C_13  and  N_15
REMARK    8  A    between atoms: C_16  and  C_18
REMARK    9  A    between atoms: C_18  and  S_19
REMARK   10  A    between atoms: S_19  and  C_20
REMARK                            x       y       z     vdW  Elec       q    Type
REMARK                         _______ _______ _______ _____ _____    ______ ____
ROOT
ATOM      1  C   UNL     1       1.476  -2.384  -2.510  0.00  0.00    +0.132 C 
ATOM      2  C   UNL     1       1.421  -3.907  -2.396  0.00  0.00    +0.024 C 
ATOM      3  C   UNL     1       1.438  -4.625  -3.760  0.00  0.00    +0.137 C 
ATOM      4  S   UNL     1       1.372  -3.238  -4.968  0.00  0.00    -0.125 S 
ATOM      5  C   UNL     1       0.783  -1.918  -3.821  0.00  0.00    +0.146 C 
ATOM      6  C   UNL     1       2.626  -4.381  -1.581  0.00  0.00    +0.010 C 
ENDROOT
BRANCH   3   7
ATOM      7  C   UNL     1       2.707  -5.421  -3.926  0.00  0.00    +0.224 C 
ATOM      8  O   UNL     1       2.741  -6.587  -3.593  0.00  0.00    -0.275 OA
ATOM      9  N   UNL     1       3.805  -4.837  -4.445  0.00  0.00    -0.328 N 
ATOM     10  H   UNL     1       3.779  -3.904  -4.712  0.00  0.00    +0.145 HD
ATOM     11  H   UNL     1       4.622  -5.349  -4.553  0.00  0.00    +0.145 HD
ENDBRANCH   3   7
BRANCH   5  12
ATOM     12  N   UNL     1       1.261  -0.597  -4.237  0.00  0.00    -0.302 N 
ATOM     13  C   UNL     1       1.578  -0.371  -5.527  0.00  0.00    +0.224 C 
ATOM     14  O   UNL     1       1.468  -1.261  -6.344  0.00  0.00    -0.275 OA
ATOM     15  H   UNL     1       1.350   0.115  -3.584  0.00  0.00    +0.150 HD
BRANCH  13  16
ATOM     16  C   UNL     1       2.070   0.987  -5.956  0.00  0.00    +0.173 C 
BRANCH  16  17
ATOM     17  S   UNL     1       2.410   0.973  -7.738  0.00  0.00    -0.079 S 
BRANCH  17  18
ATOM     18  C   UNL     1       2.969   2.609  -8.078  0.00  0.00    +0.168 A 
ATOM     19  N   UNL     1       3.086   3.565  -7.190  0.00  0.00    -0.222 NA
ATOM     20  C   UNL     1       3.543   4.694  -7.792  0.00  0.00    +0.090 A 
ATOM     21  C   UNL     1       3.840   5.977  -7.325  0.00  0.00    +0.030 A 
ATOM     22  C   UNL     1       4.298   6.934  -8.203  0.00  0.00    +0.002 A 
ATOM     23  C   UNL     1       4.466   6.635  -9.546  0.00  0.00    +0.002 A 
ATOM     24  C   UNL     1       4.177   5.372 -10.023  0.00  0.00    +0.028 A 
ATOM     25  C   UNL     1       3.716   4.396  -9.154  0.00  0.00    +0.067 A 
ATOM     26  N   UNL     1       3.350   3.068  -9.307  0.00  0.00    -0.333 N 
ATOM     27  H   UNL     1       3.361   2.561 -10.133  0.00  0.00    +0.168 HD
ENDBRANCH  17  18
ENDBRANCH  16  17
ENDBRANCH  13  16
ENDBRANCH   5  12
BRANCH   1  28
ATOM     28  C   UNL     1       0.772  -1.770  -1.327  0.00  0.00    +0.313 C 
ATOM     29  O   UNL     1       0.262  -2.480  -0.493  0.00  0.00    -0.250 OA
BRANCH  28  30
ATOM     30  O   UNL     1       0.712  -0.435  -1.201  0.00  0.00    -0.465 OA
BRANCH  30  32
ATOM     31  C   UNL     1       0.064   1.607  -0.084  0.00  0.00    +0.048 C 
ATOM     32  C   UNL     1       0.029   0.078  -0.056  0.00  0.00    +0.229 C 
ENDBRANCH  30  32
ENDBRANCH  28  30
ENDBRANCH   1  28
TORSDOF 8
