REMARK  Name = ZINC48983308
REMARK  6 active torsions:
REMARK  status: ('A' for Active; 'I' for Inactive)
REMARK    1  A    between atoms: C_1  and  C_2
REMARK    2  A    between atoms: C_2  and  C_3
REMARK    3  A    between atoms: N_11  and  C_15
REMARK    4  A    between atoms: C_15  and  C_16
REMARK    5  A    between atoms: C_18  and  C_19
REMARK    6  A    between atoms: C_18  and  C_21
REMARK                            x       y       z     vdW  Elec       q    Type
REMARK                         _______ _______ _______ _____ _____    ______ ____
ROOT
ATOM      1  C   UNL     1      -2.976  -2.978   0.365  0.00  0.00    -0.011 C 
ATOM      2  C   UNL     1      -3.538  -2.312  -0.892  0.00  0.00    +0.006 C 
ATOM      3  C   UNL     1      -2.383  -1.869  -1.794  0.00  0.00    +0.035 C 
ATOM      4  C   UNL     1      -1.539  -3.081  -2.174  0.00  0.00    +0.113 C 
ATOM      5  C   UNL     1      -0.992  -3.771  -0.930  0.00  0.00    +0.035 C 
ATOM      6  C   UNL     1      -2.153  -4.205  -0.032  0.00  0.00    +0.006 C 
ATOM      7  C   UNL     1      -2.350  -4.051  -3.002  0.00  0.00    +0.247 C 
ATOM      8  O   UNL     1      -3.358  -4.636  -2.668  0.00  0.00    -0.273 OA
ATOM      9  N   UNL     1      -1.717  -4.128  -4.191  0.00  0.00    -0.217 N 
ATOM     10  C   UNL     1      -0.630  -3.347  -4.222  0.00  0.00    +0.310 C 
ATOM     11  O   UNL     1       0.104  -3.248  -5.186  0.00  0.00    -0.252 OA
ATOM     12  N   UNL     1      -0.441  -2.683  -3.065  0.00  0.00    -0.285 N 
ATOM     13  H   UNL     1       0.278  -2.064  -2.861  0.00  0.00    +0.151 HD
ENDROOT
BRANCH   1  15
ATOM     14  C   UNL     1      -4.878  -2.170   1.770  0.00  0.00    +0.004 C 
ATOM     15  C   UNL     1      -4.130  -3.409   1.273  0.00  0.00    -0.000 C 
ENDBRANCH   1  15
BRANCH   9  16
ATOM     16  C   UNL     1      -2.163  -4.963  -5.309  0.00  0.00    +0.198 C 
BRANCH  16  17
ATOM     17  C   UNL     1      -3.104  -4.173  -6.182  0.00  0.00    +0.196 C 
ATOM     18  O   UNL     1      -4.290  -3.768  -5.697  0.00  0.00    -0.289 OA
ATOM     19  C   UNL     1      -2.752  -3.870  -7.463  0.00  0.00    +0.157 C 
BRANCH  19  20
ATOM     20  C   UNL     1      -3.670  -3.099  -8.315  0.00  0.00    +0.260 C 
ATOM     21  O   UNL     1      -4.354  -2.217  -7.830  0.00  0.00    -0.269 OA
ATOM     22  N   UNL     1      -3.754  -3.370  -9.632  0.00  0.00    -0.297 N 
ATOM     23  C   UNL     1      -3.044  -4.521 -10.207  0.00  0.00    +0.108 C 
ATOM     24  C   UNL     1      -4.047  -5.383 -10.980  0.00  0.00    +0.019 C 
ATOM     25  C   UNL     1      -4.772  -4.514 -12.010  0.00  0.00    +0.003 C 
ATOM     26  C   UNL     1      -5.543  -3.404 -11.291  0.00  0.00    +0.019 C 
ATOM     27  C   UNL     1      -4.562  -2.523 -10.521  0.00  0.00    +0.108 C 
ENDBRANCH  19  20
BRANCH  19  28
ATOM     28  C   UNL     1      -1.488  -4.301  -7.980  0.00  0.00    +0.108 C 
ATOM     29  N   UNL     1      -0.485  -4.643  -8.390  0.00  0.00    -0.191 NA
ENDBRANCH  19  28
ENDBRANCH  16  17
ENDBRANCH   9  16
TORSDOF 5
