REMARK  Name = ZINC48501906
REMARK  4 active torsions:
REMARK  status: ('A' for Active; 'I' for Inactive)
REMARK    1  A    between atoms: C_4  and  O_19
REMARK    2  A    between atoms: C_5  and  C_7
REMARK    3  A    between atoms: N_8  and  C_9
REMARK    4  A    between atoms: C_9  and  C_10
REMARK                            x       y       z     vdW  Elec       q    Type
REMARK                         _______ _______ _______ _____ _____    ______ ____
ROOT
ATOM      1  C   UNL     1       1.250  -2.158  -0.022  0.00  0.00    +0.090 C 
ATOM      2  N   UNL     1       2.377  -2.783  -0.135  0.00  0.00    -0.383 N 
ATOM      3  H   UNL     1       3.210  -2.285  -0.140  0.00  0.00    +0.160 HD
ENDROOT
BRANCH   1   8
ATOM      4  C   UNL     1      -0.017   1.374  -0.002  0.00  0.00    +0.001 A 
ATOM      5  C   UNL     1       1.170   2.089   0.002  0.00  0.00    +0.004 A 
ATOM      6  C   UNL     1       2.383   1.429  -0.003  0.00  0.00    +0.046 A 
ATOM      7  C   UNL     1       2.421   0.043  -0.010  0.00  0.00    +0.125 A 
ATOM      8  C   UNL     1       1.222  -0.684  -0.013  0.00  0.00    +0.032 A 
ATOM      9  C   UNL     1       0.002  -0.004  -0.009  0.00  0.00    +0.013 A 
BRANCH   7  10
ATOM     10  O   UNL     1       3.612  -0.606  -0.015  0.00  0.00    -0.506 OA
ATOM     11  H   UNL     1       3.958  -0.799   0.867  0.00  0.00    +0.292 HD
ENDBRANCH   7  10
ENDBRANCH   1   8
BRANCH   2  12
ATOM     12  C   UNL     1       2.396  -4.243  -0.254  0.00  0.00    +0.188 C 
BRANCH  12  13
ATOM     13  C   UNL     1       2.932  -4.630  -1.608  0.00  0.00    +0.153 A 
ATOM     14  N   UNL     1       2.232  -4.805  -2.700  0.00  0.00    -0.133 NA
ATOM     15  N   UNL     1       3.014  -5.130  -3.671  0.00  0.00    -0.134 NA
ATOM     16  C   UNL     1       4.239  -5.175  -3.244  0.00  0.00    +0.134 A 
ATOM     17  N   UNL     1       4.221  -4.855  -1.925  0.00  0.00    -0.313 N 
ATOM     18  C   UNL     1       5.402  -4.789  -1.065  0.00  0.00    +0.125 C 
ATOM     19  C   UNL     1       6.555  -5.528  -1.753  0.00  0.00    +0.022 C 
ATOM     20  C   UNL     1       6.699  -5.027  -3.193  0.00  0.00    +0.009 C 
ATOM     21  C   UNL     1       5.492  -5.507  -4.015  0.00  0.00    +0.076 C 
ENDBRANCH  12  13
ENDBRANCH   2  12
TORSDOF 4
