REMARK  Name = ZINC53500787
REMARK  9 active torsions:
REMARK  status: ('A' for Active; 'I' for Inactive)
REMARK    1  A    between atoms: C_1  and  C_2
REMARK    2  A    between atoms: C_2  and  C_3
REMARK    3  A    between atoms: C_2  and  C_4
REMARK    4  A    between atoms: C_2  and  N_23
REMARK    5  A    between atoms: N_6  and  C_7
REMARK    6  A    between atoms: C_7  and  C_8
REMARK    7  A    between atoms: C_8  and  C_10
REMARK    8  A    between atoms: C_8  and  N_18
REMARK    9  A    between atoms: N_26  and  C_27
REMARK                            x       y       z     vdW  Elec       q    Type
REMARK                         _______ _______ _______ _____ _____    ______ ____
ROOT
ATOM      1  C   UNL     1      -3.471  -1.162  -1.132  0.00  0.00    +0.093 C 
ENDROOT
BRANCH   1   4
ATOM      2  C   UNL     1      -3.189  -2.692   0.743  0.00  0.00    +0.236 C 
ATOM      3  O   UNL     1      -2.724  -1.773   1.385  0.00  0.00    -0.273 OA
ATOM      4  N   UNL     1      -3.593  -2.490  -0.526  0.00  0.00    -0.315 N 
ATOM      5  H   UNL     1      -3.965  -3.225  -1.039  0.00  0.00    +0.149 HD
BRANCH   2   7
ATOM      6  C   UNL     1      -2.092  -4.901   0.999  0.00  0.00    +0.041 C 
ATOM      7  C   UNL     1      -3.315  -4.058   1.366  0.00  0.00    +0.106 C 
ATOM      8  C   UNL     1      -3.400  -3.919   2.888  0.00  0.00    +0.041 C 
BRANCH   7   9
ATOM      9  N   UNL     1      -4.527  -4.713   0.868  0.00  0.00    -0.286 N 
ATOM     10  C   UNL     1      -4.846  -5.952   1.290  0.00  0.00    +0.300 C 
ATOM     11  O   UNL     1      -4.128  -6.527   2.086  0.00  0.00    -0.253 OA
ATOM     12  N   UNL     1      -5.961  -6.554   0.832  0.00  0.00    -0.302 N 
ATOM     13  C   UNL     1      -6.308  -7.901   1.291  0.00  0.00    +0.129 C 
ATOM     14  H   UNL     1      -5.099  -4.254   0.233  0.00  0.00    +0.151 HD
ATOM     15  H   UNL     1      -6.534  -6.096   0.197  0.00  0.00    +0.150 HD
ENDBRANCH   7   9
ENDBRANCH   2   7
ENDBRANCH   1   4
BRANCH   1  16
ATOM     16  C   UNL     1      -3.882  -1.233  -2.604  0.00  0.00    -0.016 C 
BRANCH  16  17
ATOM     17  C   UNL     1      -5.347  -1.571  -2.701  0.00  0.00    -0.006 A 
ATOM     18  C   UNL     1      -6.300  -0.605  -2.424  0.00  0.00    +0.126 A 
ATOM     19  C   UNL     1      -7.646  -0.917  -2.513  0.00  0.00    +0.038 A 
ATOM     20  C   UNL     1      -8.038  -2.191  -2.880  0.00  0.00    +0.004 A 
ATOM     21  C   UNL     1      -7.087  -3.154  -3.157  0.00  0.00    +0.020 A 
ATOM     22  C   UNL     1      -5.741  -2.843  -3.074  0.00  0.00    +0.045 A 
ATOM     23 CL   UNL     1      -4.547  -4.052  -3.429  0.00  0.00    -0.083 Cl
ATOM     24  F   UNL     1      -5.917   0.639  -2.065  0.00  0.00    -0.205 F 
ENDBRANCH  16  17
BRANCH  16  25
ATOM     25  N   UNL     1      -3.635   0.066  -3.245  0.00  0.00    +0.385 N 
ATOM     26  C   UNL     1      -2.175   0.315  -3.350  0.00  0.00    -0.078 C 
ATOM     27  C   UNL     1      -2.075   1.360  -4.489  0.00  0.00    -0.020 C 
ATOM     28  C   UNL     1      -3.171   0.901  -5.477  0.00  0.00    -0.020 C 
ATOM     29  C   UNL     1      -4.143   0.054  -4.634  0.00  0.00    -0.078 C 
ATOM     30  H   UNL     1      -4.078   0.803  -2.718  0.00  0.00    -0.081 HD
ENDBRANCH  16  25
ENDBRANCH   1  16
TORSDOF 6
