REMARK  Name = ZINC20465710
REMARK  8 active torsions:
REMARK  status: ('A' for Active; 'I' for Inactive)
REMARK    1  A    between atoms: C_6  and  S_7
REMARK    2  A    between atoms: S_7  and  N_10
REMARK    3  A    between atoms: N_10  and  C_11
REMARK    4  A    between atoms: C_11  and  C_12
REMARK    5  A    between atoms: C_14  and  N_24
REMARK    6  A    between atoms: C_16  and  O_23
REMARK    7  A    between atoms: C_18  and  C_21
REMARK    8  A    between atoms: C_21  and  O_22
REMARK                            x       y       z     vdW  Elec       q    Type
REMARK                         _______ _______ _______ _____ _____    ______ ____
ROOT
ATOM      1  C   UNL     1       0.601   1.332   2.415  0.00  0.00    +0.123 C 
ATOM      2  C   UNL     1       1.752   1.623   1.433  0.00  0.00    -0.006 C 
ATOM      3  C   UNL     1       1.050   1.792   0.064  0.00  0.00    +0.134 C 
ATOM      4  C   UNL     1      -0.297   1.062   0.297  0.00  0.00    +0.171 C 
ATOM      5  O   UNL     1      -0.624   1.389   1.665  0.00  0.00    -0.369 OA
ENDROOT
BRANCH   2   6
ATOM      6  N   UNL     1       2.450   2.860   1.811  0.00  0.00    +0.385 N 
ATOM      7  C   UNL     1       1.934   4.006   1.052  0.00  0.00    -0.078 C 
ATOM      8  C   UNL     1       2.577   5.294   1.571  0.00  0.00    -0.019 C 
ATOM      9  C   UNL     1       4.097   5.198   1.417  0.00  0.00    -0.004 C 
ATOM     10  C   UNL     1       4.603   3.969   2.176  0.00  0.00    -0.019 C 
ATOM     11  C   UNL     1       3.901   2.719   1.639  0.00  0.00    -0.078 C 
ATOM     12  H   UNL     1       2.255   3.048   2.877  0.00  0.00    -0.081 HD
ENDBRANCH   2   6
BRANCH   3  13
ATOM     13  O   UNL     1       0.837   3.174  -0.233  0.00  0.00    -0.391 OA
ATOM     14  H   UNL     1       0.347   3.465  -1.173  0.00  0.00    +0.210 HD
ENDBRANCH   3  13
BRANCH   1  15
ATOM     15  C   UNL     1       0.582   2.388   3.523  0.00  0.00    +0.136 C 
BRANCH  15  16
ATOM     16  N   UNL     1      -0.432   2.033   4.518  0.00  0.00    -0.188 NA
ATOM     17  H   UNL     1      -1.288   1.404   4.231  0.00  0.00    +0.148 HD
BRANCH  16  18
ATOM     18  S   UNL     1      -0.431   2.770   6.001  0.00  0.00    +0.058 S 
ATOM     19  O   UNL     1      -1.536   2.240   6.720  0.00  0.00    -0.153 OA
ATOM     20  O   UNL     1       0.901   2.698   6.489  0.00  0.00    -0.153 OA
BRANCH  18  26
ATOM     21  C   UNL     1       0.260   5.368   5.524  0.00  0.00    +0.030 A 
ATOM     22  C   UNL     1      -0.011   6.706   5.309  0.00  0.00    +0.022 A 
ATOM     23  C   UNL     1      -1.319   7.156   5.314  0.00  0.00    +0.041 A 
ATOM     24  C   UNL     1      -2.356   6.266   5.530  0.00  0.00    +0.022 A 
ATOM     25  C   UNL     1      -2.084   4.927   5.740  0.00  0.00    +0.030 A 
ATOM     26  C   UNL     1      -0.777   4.477   5.734  0.00  0.00    +0.105 A 
ATOM     27 CL   UNL     1      -1.660   8.838   5.051  0.00  0.00    -0.084 Cl
ENDBRANCH  18  26
ENDBRANCH  16  18
ENDBRANCH  15  16
ENDBRANCH   1  15
BRANCH   4  28
ATOM     28  C   UNL     1      -1.369   1.591  -0.658  0.00  0.00    +0.190 C 
BRANCH  28  29
ATOM     29  O   UNL     1      -2.580   0.857  -0.467  0.00  0.00    -0.392 OA
ATOM     30  H   UNL     1      -3.469   1.097  -1.070  0.00  0.00    +0.210 HD
ENDBRANCH  28  29
ENDBRANCH   4  28
TORSDOF 8
