REMARK  Name = ZINC38752343
REMARK  5 active torsions:
REMARK  status: ('A' for Active; 'I' for Inactive)
REMARK    1  A    between atoms: C_7  and  C_9
REMARK    2  A    between atoms: C_9  and  S_10
REMARK    3  A    between atoms: S_10  and  C_11
REMARK    4  A    between atoms: C_14  and  C_18
REMARK    5  A    between atoms: N_16  and  N_17
REMARK                            x       y       z     vdW  Elec       q    Type
REMARK                         _______ _______ _______ _____ _____    ______ ____
ROOT
ATOM      1  C   UNL     1      -0.712  -6.920  -0.028  0.00  0.00    +0.189 C 
ATOM      2  N   UNL     1       0.496  -7.372  -0.037  0.00  0.00    -0.161 NA
ATOM      3  N   UNL     1       0.520  -8.772  -0.045  0.00  0.00    -0.243 N 
ATOM      4  C   UNL     1      -0.888  -9.206  -0.042  0.00  0.00    +0.222 C 
ATOM      5  N   UNL     1      -1.647  -7.944  -0.025  0.00  0.00    -0.223 N 
ATOM      6  H   UNL     1       1.305  -9.341  -0.053  0.00  0.00    +0.170 HD
ENDROOT
BRANCH   4   7
ATOM      7  C   UNL     1      -1.204 -10.015  -1.302  0.00  0.00    +0.197 C 
ATOM      8  C   UNL     1      -0.396 -11.296  -1.333  0.00  0.00    -0.017 C 
ATOM      9  C   UNL     1       0.356 -11.196  -2.427  0.00  0.00    +0.065 C 
ATOM     10  C   UNL     1       1.221 -12.435  -2.573  0.00  0.00    +0.057 C 
ATOM     11  C   UNL     1       1.198 -13.107  -1.182  0.00  0.00    +0.011 C 
ATOM     12  C   UNL     1      -0.141 -12.592  -0.608  0.00  0.00    +0.035 C 
ATOM     13  N   UNL     1       0.104 -10.016  -3.056  0.00  0.00    -0.158 NA
ATOM     14  N   UNL     1      -0.744  -9.304  -2.507  0.00  0.00    -0.176 NA
ENDBRANCH   4   7
BRANCH   5  15
ATOM     15  N   UNL     1      -3.007  -7.809  -0.011  0.00  0.00    -0.250 NA
ATOM     16  H   UNL     1      -3.273  -6.836  -0.004  0.00  0.00    +0.141 HD
ATOM     17  H   UNL     1      -3.426  -8.293  -0.791  0.00  0.00    +0.141 HD
ENDBRANCH   5  15
BRANCH   1  18
ATOM     18  S   UNL     1      -1.125  -5.207  -0.015  0.00  0.00    -0.078 S 
BRANCH  18  19
ATOM     19  C   UNL     1       0.483  -4.368  -0.026  0.00  0.00    +0.173 C 
BRANCH  19  26
ATOM     20  C   UNL     1      -0.016   1.316   0.009  0.00  0.00    +0.120 A 
ATOM     21  C   UNL     1       1.183   1.948   0.001  0.00  0.00    +0.068 A 
ATOM     22  S   UNL     1       2.296   0.552  -0.017  0.00  0.00    -0.061 S 
ATOM     23  C   UNL     1       1.137  -0.669  -0.012  0.00  0.00    +0.164 A 
ATOM     24  N   UNL     1       0.002  -0.004   0.002  0.00  0.00    -0.233 NA
ATOM     25  N   UNL     1       1.333  -2.045  -0.022  0.00  0.00    -0.264 N 
ATOM     26  C   UNL     1       0.272  -2.876  -0.016  0.00  0.00    +0.229 C 
ATOM     27  O   UNL     1      -0.854  -2.423  -0.003  0.00  0.00    -0.275 OA
ATOM     28  H   UNL     1       2.232  -2.407  -0.032  0.00  0.00    +0.157 HD
ENDBRANCH  19  26
ENDBRANCH  18  19
ENDBRANCH   1  18
TORSDOF 5
