REMARK  Name = ZINC51105134
REMARK  6 active torsions:
REMARK  status: ('A' for Active; 'I' for Inactive)
REMARK    1  A    between atoms: C_1  and  C_2
REMARK    2  A    between atoms: C_2  and  C_4
REMARK    3  A    between atoms: C_2  and  N_19
REMARK    4  A    between atoms: N_6  and  C_7
REMARK    5  A    between atoms: C_7  and  C_8
REMARK    6  A    between atoms: C_23  and  C_26
REMARK                            x       y       z     vdW  Elec       q    Type
REMARK                         _______ _______ _______ _____ _____    ______ ____
ROOT
ATOM      1  C   UNL     1       0.731  -0.503   1.223  0.00  0.00    +0.230 C 
ATOM      2  O   UNL     1       1.725  -1.187   1.099  0.00  0.00    -0.274 OA
ATOM      3  N   UNL     1       0.278  -0.191   2.453  0.00  0.00    -0.310 N 
ATOM      4  H   UNL     1      -0.517   0.356   2.553  0.00  0.00    +0.149 HD
ENDROOT
BRANCH   1   6
ATOM      5  C   UNL     1      -0.019   1.526   0.010  0.00  0.00    +0.034 C 
ATOM      6  C   UNL     1       0.002  -0.004   0.002  0.00  0.00    +0.140 C 
BRANCH   6   7
ATOM      7  N   UNL     1       0.690  -0.478  -1.207  0.00  0.00    -0.287 NA
ATOM      8  C   UNL     1       2.065   0.039  -1.267  0.00  0.00    +0.113 C 
ATOM      9  C   UNL     1       2.762  -0.526  -2.508  0.00  0.00    +0.176 C 
ATOM     10  O   UNL     1       2.003  -0.185  -3.671  0.00  0.00    -0.365 OA
ATOM     11  C   UNL     1       0.659  -0.673  -3.646  0.00  0.00    +0.217 C 
ATOM     12  C   UNL     1      -0.059  -0.110  -2.417  0.00  0.00    +0.126 C 
BRANCH  11  13
ATOM     13  C   UNL     1      -0.059  -0.234  -4.896  0.00  0.00    +0.241 C 
ATOM     14  O   UNL     1       0.491   0.506  -5.683  0.00  0.00    -0.273 OA
ATOM     15  N   UNL     1      -1.313  -0.664  -5.138  0.00  0.00    -0.327 N 
ATOM     16  H   UNL     1      -1.753  -1.256  -4.508  0.00  0.00    +0.145 HD
ATOM     17  H   UNL     1      -1.776  -0.381  -5.942  0.00  0.00    +0.145 HD
ENDBRANCH  11  13
ENDBRANCH   6   7
ENDBRANCH   1   6
BRANCH   3  18
ATOM     18  C   UNL     1       0.986  -0.676   3.640  0.00  0.00    +0.152 C 
BRANCH  18  19
ATOM     19  C   UNL     1       0.270  -0.182   4.899  0.00  0.00    +0.228 C 
ATOM     20  C   UNL     1       1.068  -0.594   6.143  0.00  0.00    +0.275 C 
ATOM     21  O   UNL     1       0.365  -0.130   7.301  0.00  0.00    -0.485 OA
ATOM     22  C   UNL     1      -0.976  -0.362   7.335  0.00  0.00    +0.162 A 
ATOM     23  C   UNL     1      -1.650  -0.277   8.544  0.00  0.00    +0.049 A 
ATOM     24  C   UNL     1      -3.012  -0.507   8.595  0.00  0.00    +0.004 A 
ATOM     25  C   UNL     1      -3.706  -0.821   7.441  0.00  0.00    +0.004 A 
ATOM     26  C   UNL     1      -3.039  -0.909   6.233  0.00  0.00    +0.049 A 
ATOM     27  C   UNL     1      -1.672  -0.682   6.176  0.00  0.00    +0.163 A 
ATOM     28  O   UNL     1      -1.029  -0.779   4.980  0.00  0.00    -0.480 OA
ENDBRANCH  18  19
ENDBRANCH   3  18
TORSDOF 5
