REMARK  Name = ZINC39886306
REMARK  3 active torsions:
REMARK  status: ('A' for Active; 'I' for Inactive)
REMARK    1  A    between atoms: N_8  and  N_9
REMARK    2  A    between atoms: C_14  and  C_17
REMARK    3  A    between atoms: C_17  and  C_18
REMARK                            x       y       z     vdW  Elec       q    Type
REMARK                         _______ _______ _______ _____ _____    ______ ____
ROOT
ATOM      1  N   UNL     1      -0.696  -2.036  -0.925  0.00  0.00    -0.125 NA
ATOM      2  C   UNL     1      -1.401  -2.673  -1.829  0.00  0.00    +0.183 C 
ATOM      3  N   UNL     1      -2.193  -2.137  -2.827  0.00  0.00    -0.263 N 
ATOM      4  C   UNL     1      -2.859  -2.891  -3.684  0.00  0.00    +0.233 C 
ATOM      5  O   UNL     1      -3.552  -2.416  -4.558  0.00  0.00    -0.274 OA
ATOM      6  C   UNL     1      -2.701  -4.393  -3.506  0.00  0.00    +0.149 C 
ATOM      7  S   UNL     1      -1.556  -4.436  -2.066  0.00  0.00    -0.075 S 
ATOM      8  H   UNL     1      -2.263  -1.172  -2.901  0.00  0.00    +0.157 HD
ENDROOT
BRANCH   1  16
ATOM      9  C   UNL     1      -0.018   1.501   0.010  0.00  0.00    +0.084 C 
ATOM     10  C   UNL     1       1.432   2.010  -0.001  0.00  0.00    +0.084 C 
ATOM     11  S   UNL     1       2.232   1.438   1.529  0.00  0.00    -0.102 S 
ATOM     12  C   UNL     1       1.752  -0.255   1.627  0.00  0.00    +0.112 C 
ATOM     13  S   UNL     1       2.610  -1.310   2.667  0.00  0.00    -0.028 S 
ATOM     14  N   UNL     1       0.732  -0.735   0.907  0.00  0.00    -0.290 N 
ATOM     15  C   UNL     1       0.002  -0.004   0.002  0.00  0.00    +0.123 C 
ATOM     16  N   UNL     1      -0.697  -0.635  -0.894  0.00  0.00    -0.136 NA
ATOM     17  H   UNL     1       0.490  -1.665   1.034  0.00  0.00    +0.154 HD
ENDBRANCH   1  16
BRANCH   6  18
ATOM     18  C   UNL     1      -4.041  -5.056  -3.178  0.00  0.00    +0.119 C 
BRANCH  18  19
ATOM     19  C   UNL     1      -3.863  -6.551  -3.132  0.00  0.00    +0.212 C 
ATOM     20  O   UNL     1      -2.773  -7.039  -3.341  0.00  0.00    -0.276 OA
ATOM     21  N   UNL     1      -4.916  -7.347  -2.858  0.00  0.00    -0.329 N 
ATOM     22  H   UNL     1      -5.788  -6.957  -2.691  0.00  0.00    +0.145 HD
ATOM     23  H   UNL     1      -4.802  -8.310  -2.828  0.00  0.00    +0.145 HD
ENDBRANCH  18  19
ENDBRANCH   6  18
TORSDOF 3
