REMARK  Name = ZINC09336983
REMARK  7 active torsions:
REMARK  status: ('A' for Active; 'I' for Inactive)
REMARK    1  A    between atoms: C_1  and  C_2
REMARK    2  A    between atoms: C_5  and  C_7
REMARK    3  A    between atoms: N_9  and  C_10
REMARK    4  A    between atoms: C_10  and  C_11
REMARK    5  A    between atoms: N_13  and  C_14
REMARK    6  A    between atoms: C_14  and  C_15
REMARK    7  A    between atoms: C_15  and  N_57
REMARK                            x       y       z     vdW  Elec       q    Type
REMARK                         _______ _______ _______ _____ _____    ______ ____
ROOT
ATOM      1  C   UNL     1       0.251   0.906  -2.284  0.00  0.00    +0.230 C 
ATOM      2  O   UNL     1       1.271   0.253  -2.204  0.00  0.00    -0.274 OA
ATOM      3  N   UNL     1      -0.397   1.283  -1.164  0.00  0.00    -0.315 N 
ATOM      4  H   UNL     1      -1.212   1.804  -1.228  0.00  0.00    +0.149 HD
ENDROOT
BRANCH   1   5
ATOM      5  C   UNL     1      -0.290   1.294  -3.635  0.00  0.00    +0.200 C 
BRANCH   5   8
ATOM      6  C   UNL     1       0.300   0.994  -5.980  0.00  0.00    +0.251 C 
ATOM      7  O   UNL     1      -0.690   1.635  -6.281  0.00  0.00    -0.270 OA
ATOM      8  N   UNL     1       0.588   0.768  -4.683  0.00  0.00    -0.302 N 
ATOM      9  H   UNL     1       1.377   0.258  -4.444  0.00  0.00    +0.150 HD
BRANCH   6  14
ATOM     10  C   UNL     1       4.216  -1.398  -9.173  0.00  0.00    +0.051 C 
ATOM     11  C   UNL     1       3.050  -0.675  -8.548  0.00  0.00    -0.013 A 
ATOM     12  C   UNL     1       2.039  -0.011  -9.166  0.00  0.00    +0.011 A 
ATOM     13  C   UNL     1       1.065   0.585  -8.405  0.00  0.00    +0.021 A 
ATOM     14  C   UNL     1       1.179   0.468  -7.029  0.00  0.00    +0.074 A 
ATOM     15  S   UNL     1       2.679  -0.484  -6.866  0.00  0.00    -0.089 S 
ENDBRANCH   6  14
ENDBRANCH   5   8
ENDBRANCH   1   5
BRANCH   3  16
ATOM     16  C   UNL     1       0.129   0.905   0.150  0.00  0.00    +0.092 C 
BRANCH  16  17
ATOM     17  C   UNL     1      -0.867   1.315   1.236  0.00  0.00    -0.050 C 
ATOM     18  C   UNL     1      -1.215   2.796   1.076  0.00  0.00    -0.010 C 
ATOM     19  C   UNL     1       0.057   3.636   1.208  0.00  0.00    -0.001 C 
ATOM     20  C   UNL     1       0.680   3.404   2.586  0.00  0.00    -0.000 C 
ATOM     21  C   UNL     1       1.028   1.922   2.746  0.00  0.00    -0.001 C 
ATOM     22  C   UNL     1      -0.244   1.083   2.614  0.00  0.00    -0.010 C 
BRANCH  17  28
ATOM     23  C   UNL     1      -1.788  -0.924   1.222  0.00  0.00    -0.078 C 
ATOM     24  C   UNL     1      -3.094  -1.722   1.232  0.00  0.00    -0.019 C 
ATOM     25  C   UNL     1      -3.865  -1.444  -0.061  0.00  0.00    -0.004 C 
ATOM     26  C   UNL     1      -4.124   0.061  -0.180  0.00  0.00    -0.019 C 
ATOM     27  C   UNL     1      -2.788   0.806  -0.148  0.00  0.00    -0.078 C 
ATOM     28  N   UNL     1      -2.107   0.517   1.132  0.00  0.00    +0.384 N 
ATOM     29  H   UNL     1      -2.732   0.769   1.906  0.00  0.00    -0.081 HD
ENDBRANCH  17  28
ENDBRANCH  16  17
ENDBRANCH   3  16
TORSDOF 6
