REMARK  Name = ZINC15807611
REMARK  6 active torsions:
REMARK  status: ('A' for Active; 'I' for Inactive)
REMARK    1  A    between atoms: C_1  and  C_2
REMARK    2  A    between atoms: C_2  and  C_4
REMARK    3  A    between atoms: C_2  and  S_19
REMARK    4  A    between atoms: C_16  and  C_17
REMARK    5  A    between atoms: C_16  and  C_18
REMARK    6  A    between atoms: S_19  and  C_20
REMARK                            x       y       z     vdW  Elec       q    Type
REMARK                         _______ _______ _______ _____ _____    ______ ____
ROOT
ATOM      1  C   UNL     1      -2.845   3.503  -0.823  0.00  0.00    +0.234 C 
ATOM      2  O   UNL     1      -3.943   3.927  -0.531  0.00  0.00    -0.274 OA
ATOM      3  N   UNL     1      -1.739   4.107  -0.344  0.00  0.00    -0.255 N 
ATOM      4  C   UNL     1      -0.457   3.637  -0.671  0.00  0.00    +0.059 A 
ATOM      5  C   UNL     1      -0.237   2.300  -0.950  0.00  0.00    +0.025 A 
ATOM      6  C   UNL     1       1.040   1.865  -1.257  0.00  0.00    +0.002 A 
ATOM      7  C   UNL     1       2.091   2.764  -1.296  0.00  0.00    +0.002 A 
ATOM      8  C   UNL     1       1.875   4.103  -1.026  0.00  0.00    +0.025 A 
ATOM      9  C   UNL     1       0.600   4.547  -0.713  0.00  0.00    +0.055 A 
ATOM     10  N   UNL     1       0.359   5.898  -0.441  0.00  0.00    -0.282 N 
ATOM     11  C   UNL     1      -0.796   6.291   0.128  0.00  0.00    +0.241 C 
ATOM     12  O   UNL     1      -1.002   7.472   0.313  0.00  0.00    -0.273 OA
ATOM     13  C   UNL     1      -1.837   5.280   0.537  0.00  0.00    +0.113 C 
ATOM     14  C   UNL     1      -1.595   4.854   1.986  0.00  0.00    +0.042 C 
ATOM     15  C   UNL     1      -3.230   5.901   0.410  0.00  0.00    +0.042 C 
ATOM     16  H   UNL     1       1.032   6.560  -0.665  0.00  0.00    +0.155 HD
ENDROOT
BRANCH   1  18
ATOM     17  C   UNL     1      -2.938   1.026  -0.901  0.00  0.00    +0.029 C 
ATOM     18  C   UNL     1      -2.716   2.299  -1.720  0.00  0.00    +0.136 C 
BRANCH  18  19
ATOM     19  S   UNL     1      -3.959   2.393  -3.039  0.00  0.00    -0.093 S 
BRANCH  19  20
ATOM     20  C   UNL     1      -3.588   1.015  -4.073  0.00  0.00    +0.098 A 
ATOM     21  C   UNL     1      -4.359   0.776  -5.206  0.00  0.00    +0.035 A 
ATOM     22  C   UNL     1      -4.057  -0.309  -6.009  0.00  0.00    +0.004 A 
ATOM     23  C   UNL     1      -2.990  -1.122  -5.650  0.00  0.00    +0.020 A 
ATOM     24  C   UNL     1      -2.267  -0.826  -4.512  0.00  0.00    +0.112 A 
ATOM     25  N   UNL     1      -2.574   0.219  -3.767  0.00  0.00    -0.249 NA
ENDBRANCH  19  20
ENDBRANCH  18  19
ENDBRANCH   1  18
TORSDOF 3
