REMARK  Name = ZINC19707139
REMARK  4 active torsions:
REMARK  status: ('A' for Active; 'I' for Inactive)
REMARK    1  A    between atoms: C_1  and  C_2
REMARK    2  A    between atoms: C_2  and  C_3
REMARK    3  A    between atoms: C_7  and  N_15
REMARK    4  A    between atoms: C_8  and  C_12
REMARK                            x       y       z     vdW  Elec       q    Type
REMARK                         _______ _______ _______ _____ _____    ______ ____
ROOT
ATOM      1  C   UNL     1      -1.472  -0.370   0.031  0.00  0.00    +0.020 A 
ATOM      2  C   UNL     1      -2.168  -0.496  -1.171  0.00  0.00    -0.024 A 
ATOM      3  C   UNL     1      -3.432  -1.020  -1.174  0.00  0.00    -0.031 A 
ATOM      4  C   UNL     1      -4.018  -1.423   0.057  0.00  0.00    +0.031 A 
ATOM      5  C   UNL     1      -5.335  -1.995   0.284  0.00  0.00    +0.056 A 
ATOM      6  C   UNL     1      -5.694  -2.314   1.579  0.00  0.00    +0.123 A 
ATOM      7  S   UNL     1      -4.260  -1.850   2.530  0.00  0.00    -0.062 S 
ATOM      8  C   UNL     1      -3.229  -1.251   1.215  0.00  0.00    +0.088 A 
ATOM      9  N   UNL     1      -2.013  -0.751   1.168  0.00  0.00    -0.352 N 
ATOM     10  C   UNL     1      -4.244  -1.204  -2.426  0.00  0.00    +0.036 C 
ATOM     11  C   UNL     1      -3.671  -0.357  -3.563  0.00  0.00    +0.005 C 
ATOM     12  C   UNL     1      -2.167  -0.633  -3.661  0.00  0.00    +0.005 C 
ATOM     13  C   UNL     1      -1.483  -0.036  -2.433  0.00  0.00    +0.037 C 
ATOM     14  H   UNL     1      -1.506  -0.657   1.990  0.00  0.00    +0.166 HD
ENDROOT
BRANCH   6  15
ATOM     15  C   UNL     1      -6.905  -2.872   2.039  0.00  0.00    +0.395 C 
ATOM     16  O   UNL     1      -7.878  -3.158   1.175  0.00  0.00    -0.240 OA
ATOM     17  O   UNL     1      -7.076  -3.114   3.338  0.00  0.00    -0.240 OA
ENDBRANCH   6  15
BRANCH   5  18
ATOM     18  N   UNL     1      -6.207  -2.214  -0.769  0.00  0.00    -0.356 N 
ATOM     19  H   UNL     1      -5.859  -2.381  -1.659  0.00  0.00    +0.142 HD
ATOM     20  H   UNL     1      -7.165  -2.201  -0.617  0.00  0.00    +0.142 HD
ENDBRANCH   5  18
BRANCH   1  22
ATOM     21  C   UNL     1      -0.158   1.732   0.083  0.00  0.00    +0.010 C 
ATOM     22  C   UNL     1      -0.080   0.205   0.026  0.00  0.00    +0.050 C 
ENDBRANCH   1  22
TORSDOF 3
