REMARK  Name = ZINC67534847
REMARK  9 active torsions:
REMARK  status: ('A' for Active; 'I' for Inactive)
REMARK    1  A    between atoms: C_1  and  C_2
REMARK    2  A    between atoms: C_3  and  C_9
REMARK    3  A    between atoms: C_4  and  C_8
REMARK    4  A    between atoms: N_5  and  C_7
REMARK    5  A    between atoms: C_9  and  C_11
REMARK    6  A    between atoms: C_9  and  N_12
REMARK    7  A    between atoms: C_19  and  C_22
REMARK    8  A    between atoms: N_24  and  C_25
REMARK    9  A    between atoms: C_25  and  C_26
REMARK                            x       y       z     vdW  Elec       q    Type
REMARK                         _______ _______ _______ _____ _____    ______ ____
ROOT
ATOM      1  N   UNL     1       0.951   0.754  -2.727  0.00  0.00    -0.293 N 
ATOM      2  C   UNL     1       1.494   1.003  -3.936  0.00  0.00    +0.303 C 
ATOM      3  O   UNL     1       1.257   0.264  -4.872  0.00  0.00    -0.253 OA
ATOM      4  N   UNL     1       2.299   2.070  -4.106  0.00  0.00    -0.285 N 
ATOM      5  C   UNL     1       2.691   2.902  -2.960  0.00  0.00    +0.109 C 
ATOM      6  C   UNL     1       4.219   3.007  -2.927  0.00  0.00    +0.020 C 
ATOM      7  C   UNL     1       4.720   3.522  -4.279  0.00  0.00    +0.016 C 
ATOM      8  C   UNL     1       4.327   2.534  -5.380  0.00  0.00    +0.092 C 
ATOM      9  C   UNL     1       2.805   2.421  -5.440  0.00  0.00    +0.122 C 
ATOM     10  H   UNL     1       1.196   1.300  -1.964  0.00  0.00    +0.151 HD
ENDROOT
BRANCH   8  11
ATOM     11  C   UNL     1       4.850   3.025  -6.705  0.00  0.00    +0.218 C 
ATOM     12  O   UNL     1       5.475   4.063  -6.764  0.00  0.00    -0.275 OA
ATOM     13  N   UNL     1       4.622   2.311  -7.826  0.00  0.00    -0.315 N 
ATOM     14  H   UNL     1       4.122   1.481  -7.779  0.00  0.00    +0.149 HD
BRANCH  13  15
ATOM     15  C   UNL     1       5.130   2.788  -9.114  0.00  0.00    +0.107 C 
BRANCH  15  16
ATOM     16  C   UNL     1       4.738   1.801 -10.215  0.00  0.00    +0.006 C 
ATOM     17  C   UNL     1       5.867   1.078 -10.951  0.00  0.00    +0.005 C 
ATOM     18  C   UNL     1       5.075   2.180 -11.658  0.00  0.00    +0.005 C 
ENDBRANCH  15  16
ENDBRANCH  13  15
ENDBRANCH   8  11
BRANCH   1  19
ATOM     19  C   UNL     1      -0.010  -0.341  -2.567  0.00  0.00    +0.105 C 
ATOM     20  C   UNL     1      -1.411   0.153  -2.932  0.00  0.00    +0.033 C 
BRANCH  19  23
ATOM     21  C   UNL     1      -0.032   1.512   0.004  0.00  0.00    +0.068 C 
ATOM     22  C   UNL     1      -0.010   0.005  -0.000  0.00  0.00    +0.065 A 
ATOM     23  C   UNL     1       0.000  -0.812  -1.136  0.00  0.00    +0.016 A 
ATOM     24  C   UNL     1       0.020  -2.100  -0.722  0.00  0.00    +0.041 A 
ATOM     25  N   UNL     1       0.021  -2.098   0.628  0.00  0.00    -0.271 N 
ATOM     26  N   UNL     1       0.008  -0.765   1.057  0.00  0.00    -0.176 NA
ATOM     27  C   UNL     1       0.040  -3.282   1.491  0.00  0.00    +0.172 C 
ATOM     28  C   UNL     1       0.036  -3.318  -1.609  0.00  0.00    +0.065 C 
ENDBRANCH  19  23
ENDBRANCH   1  19
TORSDOF 5
