REMARK  Name = ZINC43435567
REMARK  5 active torsions:
REMARK  status: ('A' for Active; 'I' for Inactive)
REMARK    1  A    between atoms: C_1  and  C_2
REMARK    2  A    between atoms: C_4  and  N_8
REMARK    3  A    between atoms: N_5  and  C_7
REMARK    4  A    between atoms: C_13  and  C_20
REMARK    5  A    between atoms: C_16  and  C_19
REMARK                            x       y       z     vdW  Elec       q    Type
REMARK                         _______ _______ _______ _____ _____    ______ ____
ROOT
ATOM      1  N   UNL     1       0.043  -3.240  -1.543  0.00  0.00    -0.254 N 
ATOM      2  C   UNL     1       0.031  -3.097  -2.884  0.00  0.00    +0.308 C 
ATOM      3  O   UNL     1      -0.082  -1.991  -3.376  0.00  0.00    -0.252 OA
ATOM      4  N   UNL     1       0.143  -4.181  -3.677  0.00  0.00    -0.285 N 
ATOM      5  C   UNL     1       0.159  -5.532  -3.102  0.00  0.00    +0.112 C 
ATOM      6  C   UNL     1      -0.920  -6.374  -3.789  0.00  0.00    +0.004 C 
ATOM      7  C   UNL     1      -0.705  -6.333  -5.304  0.00  0.00    +0.009 C 
ATOM      8  C   UNL     1      -0.828  -4.891  -5.800  0.00  0.00    +0.004 C 
ATOM      9  C   UNL     1       0.246  -4.033  -5.136  0.00  0.00    +0.112 C 
ATOM     10  C   UNL     1      -2.211  -4.343  -5.439  0.00  0.00    +0.009 C 
ATOM     11  C   UNL     1      -0.830  -7.820  -3.298  0.00  0.00    +0.009 C 
ATOM     12  H   UNL     1       0.058  -4.126  -1.150  0.00  0.00    +0.158 HD
ENDROOT
BRANCH   1  16
ATOM     13  C   UNL     1      -0.008   1.504   0.009  0.00  0.00    +0.067 C 
ATOM     14  C   UNL     1       0.012  -0.003   0.001  0.00  0.00    +0.062 A 
ATOM     15  C   UNL     1       0.014  -0.816  -1.136  0.00  0.00    +0.068 A 
ATOM     16  C   UNL     1       0.035  -2.112  -0.722  0.00  0.00    +0.124 A 
ATOM     17  N   UNL     1       0.046  -2.108   0.630  0.00  0.00    -0.253 N 
ATOM     18  N   UNL     1       0.037  -0.774   1.058  0.00  0.00    -0.175 NA
ATOM     19  C   UNL     1       0.068  -3.290   1.495  0.00  0.00    +0.174 C 
ENDBRANCH   1  16
TORSDOF 1
