REMARK  Name = ZINC13961042
REMARK  6 active torsions:
REMARK  status: ('A' for Active; 'I' for Inactive)
REMARK    1  A    between atoms: C_1  and  C_2
REMARK    2  A    between atoms: C_4  and  C_19
REMARK    3  A    between atoms: C_11  and  C_15
REMARK    4  A    between atoms: C_15  and  C_16
REMARK    5  A    between atoms: C_16  and  C_17
REMARK    6  A    between atoms: C_17  and  O_18
REMARK                            x       y       z     vdW  Elec       q    Type
REMARK                         _______ _______ _______ _____ _____    ______ ____
ROOT
ATOM      1  C   UNL     1      -2.414   6.054   0.057  0.00  0.00    +0.044 C 
ATOM      2  C   UNL     1      -3.199   4.767   0.057  0.00  0.00    -0.034 A 
ATOM      3  C   UNL     1      -4.567   4.777   0.069  0.00  0.00    +0.036 A 
ATOM      4  C   UNL     1      -5.282   3.586   0.069  0.00  0.00    +0.146 A 
ATOM      5  N   UNL     1      -4.695   2.413   0.058  0.00  0.00    -0.222 NA
ATOM      6  C   UNL     1      -3.359   2.306   0.046  0.00  0.00    +0.185 A 
ATOM      7  C   UNL     1      -2.548   3.528   0.045  0.00  0.00    +0.068 A 
ATOM      8  C   UNL     1      -1.200   3.113   0.030  0.00  0.00    +0.165 A 
ATOM      9  N   UNL     1      -0.055   3.795   0.023  0.00  0.00    -0.235 NA
ATOM     10  C   UNL     1       1.105   3.175   0.009  0.00  0.00    +0.118 A 
ATOM     11  C   UNL     1       1.150   1.777   0.001  0.00  0.00    -0.011 A 
ATOM     12  C   UNL     1      -0.013   1.076   0.008  0.00  0.00    +0.119 A 
ATOM     13  N   UNL     1      -1.199   1.748   0.017  0.00  0.00    -0.219 N 
ATOM     14  N   UNL     1      -2.519   1.281   0.033  0.00  0.00    -0.145 NA
ENDROOT
BRANCH   4  15
ATOM     15  C   UNL     1      -6.788   3.644   0.083  0.00  0.00    +0.434 C 
ATOM     16  F   UNL     1      -7.303   2.348   0.196  0.00  0.00    -0.164 F 
ATOM     17  F   UNL     1      -7.216   4.412   1.171  0.00  0.00    -0.164 F 
ATOM     18  F   UNL     1      -7.243   4.224  -1.106  0.00  0.00    -0.164 F 
ENDBRANCH   4  15
BRANCH  11  19
ATOM     19  C   UNL     1       2.474   1.058  -0.015  0.00  0.00    +0.040 C 
BRANCH  19  20
ATOM     20  C   UNL     1       2.909   0.822  -1.463  0.00  0.00    +0.032 C 
BRANCH  20  21
ATOM     21  C   UNL     1       4.253   0.091  -1.480  0.00  0.00    +0.156 C 
BRANCH  21  22
ATOM     22  O   UNL     1       4.659  -0.129  -2.832  0.00  0.00    -0.395 OA
ATOM     23  H   UNL     1       5.505  -0.589  -2.918  0.00  0.00    +0.209 HD
ENDBRANCH  21  22
ENDBRANCH  20  21
ENDBRANCH  19  20
ENDBRANCH  11  19
TORSDOF 5
