REMARK  Name = ZINC45138297
REMARK  7 active torsions:
REMARK  status: ('A' for Active; 'I' for Inactive)
REMARK    1  A    between atoms: C_1  and  C_2
REMARK    2  A    between atoms: C_2  and  C_19
REMARK    3  A    between atoms: C_4  and  N_6
REMARK    4  A    between atoms: N_6  and  S_7
REMARK    5  A    between atoms: S_7  and  C_10
REMARK    6  A    between atoms: C_15  and  N_16
REMARK    7  A    between atoms: N_16  and  N_17
REMARK                            x       y       z     vdW  Elec       q    Type
REMARK                         _______ _______ _______ _____ _____    ______ ____
ROOT
ATOM      1  C   UNL     1       4.001  -0.382   1.926  0.00  0.00    +0.147 A 
ATOM      2  C   UNL     1       4.550  -1.570   1.478  0.00  0.00    +0.048 A 
ATOM      3  C   UNL     1       5.603  -1.514   0.573  0.00  0.00    +0.038 A 
ATOM      4  C   UNL     1       6.066  -0.283   0.150  0.00  0.00    +0.128 A 
ATOM      5  N   UNL     1       5.522   0.834   0.595  0.00  0.00    -0.236 NA
ATOM      6  C   UNL     1       4.514   0.822   1.454  0.00  0.00    +0.159 A 
ATOM      7 BR   UNL     1       6.393  -3.106  -0.072  0.00  0.00    -0.049 Br
ENDROOT
BRANCH   1   8
ATOM      8  S   UNL     1       2.664  -0.393   3.075  0.00  0.00    +0.062 S 
ATOM      9  O   UNL     1       3.017   0.507   4.117  0.00  0.00    -0.153 OA
ATOM     10  O   UNL     1       2.350  -1.757   3.319  0.00  0.00    -0.153 OA
BRANCH   8  11
ATOM     11  N   UNL     1       1.353   0.264   2.306  0.00  0.00    -0.186 NA
ATOM     12  H   UNL     1       0.975   1.100   2.620  0.00  0.00    +0.148 HD
BRANCH  11  16
ATOM     13  C   UNL     1       0.291   1.973   0.198  0.00  0.00    +0.012 C 
ATOM     14  C   UNL     1       0.198   0.455   0.028  0.00  0.00    -0.016 C 
ATOM     15  C   UNL     1      -0.750  -0.303   0.959  0.00  0.00    +0.029 C 
ATOM     16  C   UNL     1       0.764  -0.417   1.151  0.00  0.00    +0.083 C 
ATOM     17  C   UNL     1       0.341  -0.058  -1.406  0.00  0.00    +0.012 C 
ENDBRANCH  11  16
ENDBRANCH   8  11
ENDBRANCH   1   8
BRANCH   6  18
ATOM     18  N   UNL     1       3.967   2.023   1.891  0.00  0.00    -0.266 N 
ATOM     19  H   UNL     1       3.176   2.020   2.453  0.00  0.00    +0.167 HD
BRANCH  18  20
ATOM     20  N   UNL     1       4.543   3.207   1.529  0.00  0.00    -0.255 NA
ATOM     21  H   UNL     1       4.610   3.285   0.525  0.00  0.00    +0.140 HD
ATOM     22  H   UNL     1       4.038   3.989   1.920  0.00  0.00    +0.140 HD
ENDBRANCH  18  20
ENDBRANCH   6  18
TORSDOF 5
