REMARK  Name = ZINC40176619
REMARK  4 active torsions:
REMARK  status: ('A' for Active; 'I' for Inactive)
REMARK    1  A    between atoms: C_3  and  O_23
REMARK    2  A    between atoms: C_6  and  C_7
REMARK    3  A    between atoms: C_9  and  C_12
REMARK    4  A    between atoms: C_12  and  C_13
REMARK                            x       y       z     vdW  Elec       q    Type
REMARK                         _______ _______ _______ _____ _____    ______ ____
ROOT
ATOM      1  C   UNL     1      -1.272  -0.765   0.011  0.00  0.00    +0.202 A 
ATOM      2  N   UNL     1      -1.385  -2.105   0.010  0.00  0.00    -0.191 NA
ATOM      3  C   UNL     1      -2.642  -2.446   0.019  0.00  0.00    +0.228 A 
ATOM      4  O   UNL     1      -3.385  -1.332   0.026  0.00  0.00    -0.338 OA
ATOM      5  N   UNL     1      -2.474  -0.243   0.026  0.00  0.00    -0.056 NA
ENDROOT
BRANCH   1  11
ATOM      6  C   UNL     1      -0.017   1.390   0.010  0.00  0.00    +0.015 A 
ATOM      7  C   UNL     1       1.169   2.094   0.002  0.00  0.00    +0.046 A 
ATOM      8  C   UNL     1       2.380   1.416  -0.013  0.00  0.00    +0.117 A 
ATOM      9  C   UNL     1       2.402   0.028  -0.021  0.00  0.00    +0.046 A 
ATOM     10  C   UNL     1       1.220  -0.682  -0.013  0.00  0.00    +0.015 A 
ATOM     11  C   UNL     1       0.002  -0.004   0.002  0.00  0.00    +0.023 A 
BRANCH   8  12
ATOM     12  O   UNL     1       3.546   2.112  -0.021  0.00  0.00    -0.507 OA
ATOM     13  H   UNL     1       3.893   2.310   0.860  0.00  0.00    +0.292 HD
ENDBRANCH   8  12
ENDBRANCH   1  11
BRANCH   3  14
ATOM     14  C   UNL     1      -3.172  -3.857   0.021  0.00  0.00    +0.102 C 
BRANCH  14  15
ATOM     15  C   UNL     1      -3.340  -4.337   1.464  0.00  0.00    +0.001 C 
ATOM     16  C   UNL     1      -4.476  -3.555   2.163  0.00  0.00    +0.008 C 
ATOM     17  C   UNL     1      -5.524  -4.643   2.547  0.00  0.00    -0.010 C 
ATOM     18  C   UNL     1      -4.851  -5.442   3.705  0.00  0.00    +0.004 C 
ATOM     19  C   UNL     1      -3.706  -6.226   3.025  0.00  0.00    +0.004 C 
ATOM     20  C   UNL     1      -3.806  -5.824   1.492  0.00  0.00    -0.007 C 
ATOM     21  C   UNL     1      -5.361  -5.640   1.346  0.00  0.00    +0.007 C 
ENDBRANCH  14  15
ENDBRANCH   3  14
TORSDOF 4
