REMARK  Name = ZINC08876369
REMARK  16 active torsions:
REMARK  status: ('A' for Active; 'I' for Inactive)
REMARK    1  A    between atoms: C_1  and  C_2
REMARK    2  A    between atoms: C_15  and  O_42
REMARK    3  A    between atoms: C_18  and  C_41
REMARK    4  A    between atoms: C_23  and  C_24
REMARK    5  A    between atoms: C_23  and  O_40
REMARK    6  A    between atoms: C_24  and  C_26
REMARK    7  A    between atoms: C_26  and  O_27
REMARK    8  A    between atoms: O_27  and  C_28
REMARK    9  A    between atoms: C_28  and  C_30
REMARK   10  A    between atoms: C_30  and  C_31
REMARK   11  A    between atoms: C_31  and  C_32
REMARK   12  A    between atoms: N_34  and  C_35
REMARK   13  A    between atoms: C_35  and  C_36
REMARK   14  A    between atoms: C_35  and  C_37
REMARK   15  A    between atoms: C_35  and  C_38
REMARK   16  A    between atoms: C_38  and  O_39
REMARK                            x       y       z     vdW  Elec       q    Type
REMARK                         _______ _______ _______ _____ _____    ______ ____
ROOT
ATOM      1  C   UNL     1     -13.354  -2.592   1.198  0.00  0.00    +0.016 C 
ATOM      2  C   UNL     1     -13.766  -1.446   0.268  0.00  0.00    -0.005 C 
ATOM      3  C   UNL     1     -15.006  -0.854   0.895  0.00  0.00    +0.019 C 
ATOM      4  C   UNL     1     -15.891  -0.137  -0.124  0.00  0.00    +0.080 C 
ATOM      5  C   UNL     1     -16.301  -1.159  -1.167  0.00  0.00    +0.156 C 
ATOM      6  O   UNL     1     -17.446  -1.247  -1.561  0.00  0.00    -0.293 OA
ATOM      7  C   UNL     1     -15.240  -2.040  -1.669  0.00  0.00    +0.046 C 
ATOM      8  C   UNL     1     -14.058  -2.083  -1.064  0.00  0.00    -0.060 C 
ATOM      9  C   UNL     1     -12.915  -2.788  -1.773  0.00  0.00    +0.032 C 
ATOM     10  C   UNL     1     -11.799  -1.747  -1.921  0.00  0.00    +0.008 C 
ATOM     11  C   UNL     1     -11.410  -1.218  -0.536  0.00  0.00    -0.001 C 
ATOM     12  C   UNL     1     -12.583  -0.495   0.130  0.00  0.00    +0.031 C 
ATOM     13  C   UNL     1     -12.114   0.054   1.476  0.00  0.00    +0.119 C 
ATOM     14  C   UNL     1     -10.946   1.023   1.267  0.00  0.00    +0.041 C 
ATOM     15  C   UNL     1      -9.746   0.329   0.628  0.00  0.00    +0.009 C 
ATOM     16  C   UNL     1     -10.175  -0.359  -0.676  0.00  0.00    +0.002 C 
ATOM     17  C   UNL     1     -10.361   0.807  -1.662  0.00  0.00    +0.008 C 
ATOM     18  C   UNL     1      -9.195   1.762  -1.314  0.00  0.00    +0.043 C 
ATOM     19  C   UNL     1      -8.785   1.446   0.136  0.00  0.00    +0.133 C 
ATOM     20  C   UNL     1      -9.047  -0.634   1.590  0.00  0.00    +0.015 C 
ENDROOT
BRANCH  19  21
ATOM     21  C   UNL     1      -7.360   0.956   0.176  0.00  0.00    +0.202 C 
ATOM     22  O   UNL     1      -6.907   0.340  -0.758  0.00  0.00    -0.291 OA
BRANCH  21  23
ATOM     23  C   UNL     1      -6.501   1.236   1.382  0.00  0.00    +0.309 C 
BRANCH  23  24
ATOM     24  O   UNL     1      -5.181   0.666   1.179  0.00  0.00    -0.457 OA
BRANCH  24  25
ATOM     25  C   UNL     1      -4.289   0.828   2.169  0.00  0.00    +0.308 C 
ATOM     26  O   UNL     1      -4.600   1.427   3.171  0.00  0.00    -0.251 OA
BRANCH  25  27
ATOM     27  C   UNL     1      -2.898   0.263   2.029  0.00  0.00    +0.130 C 
BRANCH  27  28
ATOM     28  C   UNL     1      -2.088   0.586   3.286  0.00  0.00    +0.107 C 
BRANCH  28  29
ATOM     29  C   UNL     1      -0.698   0.021   3.147  0.00  0.00    +0.214 C 
ATOM     30  O   UNL     1      -0.386  -0.580   2.141  0.00  0.00    -0.276 OA
ATOM     31  N   UNL     1       0.200   0.189   4.138  0.00  0.00    -0.308 N 
ATOM     32  H   UNL     1      -0.050   0.669   4.942  0.00  0.00    +0.149 HD
BRANCH  31  33
ATOM     33  C   UNL     1       1.553  -0.355   3.999  0.00  0.00    +0.052 C 
ATOM     34  C   UNL     1       1.478  -1.873   3.822  0.00  0.00    +0.033 C 
ATOM     35  C   UNL     1       2.231   0.268   2.777  0.00  0.00    +0.033 C 
BRANCH  33  36
ATOM     36  C   UNL     1       2.365  -0.028   5.255  0.00  0.00    +0.181 C 
BRANCH  36  37
ATOM     37  O   UNL     1       3.685  -0.558   5.120  0.00  0.00    -0.393 OA
ATOM     38  H   UNL     1       4.257  -0.388   5.881  0.00  0.00    +0.209 HD
ENDBRANCH  36  37
ENDBRANCH  33  36
ENDBRANCH  31  33
ENDBRANCH  28  29
ENDBRANCH  27  28
ENDBRANCH  25  27
ENDBRANCH  24  25
ENDBRANCH  23  24
ENDBRANCH  21  23
ENDBRANCH  19  21
BRANCH  19  39
ATOM     39  O   UNL     1      -8.921   2.612   0.951  0.00  0.00    -0.380 OA
ATOM     40  H   UNL     1      -8.353   3.347   0.683  0.00  0.00    +0.211 HD
ENDBRANCH  19  39
BRANCH  13  41
ATOM     41  O   UNL     1     -13.147   0.809   2.119  0.00  0.00    -0.391 OA
ATOM     42  H   UNL     1     -12.891   1.175   2.976  0.00  0.00    +0.210 HD
ENDBRANCH  13  41
TORSDOF 12
