REMARK  Name = ZINC03634051
REMARK  8 active torsions:
REMARK  status: ('A' for Active; 'I' for Inactive)
REMARK    1  A    between atoms: C_1  and  C_2
REMARK    2  A    between atoms: C_2  and  C_3
REMARK    3  A    between atoms: C_6  and  C_9
REMARK    4  A    between atoms: C_11  and  C_23
REMARK    5  A    between atoms: C_12  and  C_19
REMARK    6  A    between atoms: C_19  and  O_21
REMARK    7  A    between atoms: O_21  and  C_22
REMARK    8  A    between atoms: C_23  and  C_25
REMARK                            x       y       z     vdW  Elec       q    Type
REMARK                         _______ _______ _______ _____ _____    ______ ____
ROOT
ATOM      1  C   UNL     1       2.475  -1.858  -4.539  0.00  0.00    +0.165 C 
ATOM      2  C   UNL     1       2.927  -3.308  -4.548  0.00  0.00    +0.059 C 
ATOM      3  C   UNL     1       4.283  -3.544  -4.699  0.00  0.00    +0.160 C 
ATOM      4  N   UNL     1       5.156  -2.543  -4.831  0.00  0.00    -0.205 NA
ATOM      5  C   UNL     1       4.834  -1.267  -4.832  0.00  0.00    +0.258 C 
ATOM      6  N   UNL     1       3.534  -0.856  -4.690  0.00  0.00    -0.191 N 
ATOM      7  N   UNL     1       3.570   0.539  -4.734  0.00  0.00    -0.163 N 
ATOM      8  N   UNL     1       4.803   0.886  -4.887  0.00  0.00    -0.060 NA
ATOM      9  N   UNL     1       5.565  -0.135  -4.951  0.00  0.00    -0.094 NA
ATOM     10  H   UNL     1       2.809   1.137  -4.662  0.00  0.00    +0.195 HD
ENDROOT
BRANCH   1  14
ATOM     11  C   UNL     1       0.458  -1.117  -0.847  0.00  0.00    -0.048 A 
ATOM     12  C   UNL     1      -0.269  -1.414  -1.984  0.00  0.00    +0.004 A 
ATOM     13  C   UNL     1       0.384  -1.653  -3.179  0.00  0.00    +0.006 A 
ATOM     14  C   UNL     1       1.764  -1.595  -3.236  0.00  0.00    -0.021 A 
ATOM     15  C   UNL     1       2.491  -1.298  -2.099  0.00  0.00    +0.006 A 
ATOM     16  C   UNL     1       1.837  -1.054  -0.905  0.00  0.00    +0.004 A 
BRANCH  11  18
ATOM     17  C   UNL     1      -0.572   0.636   0.573  0.00  0.00    +0.009 C 
ATOM     18  C   UNL     1      -0.254  -0.856   0.456  0.00  0.00    +0.032 C 
ENDBRANCH  11  18
ENDBRANCH   1  14
BRANCH   3  19
ATOM     19  C   UNL     1       4.779  -4.944  -4.715  0.00  0.00    +0.358 C 
ATOM     20  O   UNL     1       3.991  -5.867  -4.676  0.00  0.00    -0.243 OA
BRANCH  19  21
ATOM     21  O   UNL     1       6.101  -5.190  -4.772  0.00  0.00    -0.463 OA
ATOM     22  C   UNL     1       6.507  -6.560  -4.783  0.00  0.00    +0.280 C 
ENDBRANCH  19  21
ENDBRANCH   3  19
BRANCH   2  23
ATOM     23  C   UNL     1       2.006  -4.368  -4.407  0.00  0.00    +0.194 C 
ATOM     24  O   UNL     1       2.026  -5.065  -3.408  0.00  0.00    -0.287 OA
BRANCH  23  25
ATOM     25  C   UNL     1       1.015  -4.634  -5.474  0.00  0.00    +0.022 A 
ATOM     26  C   UNL     1       1.017  -3.864  -6.639  0.00  0.00    +0.012 A 
ATOM     27  C   UNL     1       0.091  -4.117  -7.630  0.00  0.00    +0.001 A 
ATOM     28  C   UNL     1      -0.837  -5.131  -7.472  0.00  0.00    +0.000 A 
ATOM     29  C   UNL     1      -0.844  -5.897  -6.319  0.00  0.00    +0.001 A 
ATOM     30  C   UNL     1       0.079  -5.658  -5.323  0.00  0.00    +0.012 A 
ENDBRANCH  23  25
ENDBRANCH   2  23
TORSDOF 6
