REMARK  Name = ZINC67511971
REMARK  7 active torsions:
REMARK  status: ('A' for Active; 'I' for Inactive)
REMARK    1  A    between atoms: C_1  and  N_2
REMARK    2  A    between atoms: N_2  and  C_3
REMARK    3  A    between atoms: N_2  and  C_4
REMARK    4  A    between atoms: C_7  and  N_24
REMARK    5  A    between atoms: C_9  and  C_10
REMARK    6  A    between atoms: N_12  and  C_13
REMARK    7  A    between atoms: C_16  and  C_18
REMARK                            x       y       z     vdW  Elec       q    Type
REMARK                         _______ _______ _______ _____ _____    ______ ____
ROOT
ATOM      1  C   UNL     1      -1.147  -0.717   2.504  0.00  0.00    +0.246 C 
ATOM      2  O   UNL     1      -0.102  -0.095   2.506  0.00  0.00    -0.270 OA
ATOM      3  N   UNL     1      -1.722  -1.072   3.671  0.00  0.00    -0.308 N 
ATOM      4  H   UNL     1      -2.555  -1.568   3.669  0.00  0.00    +0.149 HD
ENDROOT
BRANCH   1  10
ATOM      5  C   UNL     1      -1.191  -0.715   0.010  0.00  0.00    +0.042 A 
ATOM      6  C   UNL     1      -1.800  -1.071  -1.188  0.00  0.00    +0.026 A 
ATOM      7  C   UNL     1      -2.985  -1.777  -1.178  0.00  0.00    +0.034 A 
ATOM      8  C   UNL     1      -3.578  -2.136   0.023  0.00  0.00    +0.127 A 
ATOM      9  C   UNL     1      -2.990  -1.791   1.220  0.00  0.00    +0.047 A 
ATOM     10  C   UNL     1      -1.786  -1.082   1.227  0.00  0.00    +0.060 A 
BRANCH   5  12
ATOM     11  C   UNL     1      -0.018   1.461   0.010  0.00  0.00    +0.129 C 
ATOM     12  N   UNL     1       0.002  -0.004   0.002  0.00  0.00    -0.335 N 
ATOM     13  C   UNL     1       1.281  -0.719  -0.014  0.00  0.00    +0.129 C 
ENDBRANCH   5  12
BRANCH   8  14
ATOM     14  N   UNL     1      -4.850  -2.893   0.018  0.00  0.00    +0.056 N 
ATOM     15  O   UNL     1      -5.369  -3.196  -1.031  0.00  0.00    -0.126 OA
ATOM     16  O   UNL     1      -5.369  -3.207   1.063  0.00  0.00    -0.126 OA
ENDBRANCH   8  14
ENDBRANCH   1  10
BRANCH   3  17
ATOM     17  C   UNL     1      -1.087  -0.709   4.940  0.00  0.00    +0.081 C 
ATOM     18  C   UNL     1      -1.989  -0.166   6.051  0.00  0.00    +0.033 C 
ATOM     19  C   UNL     1      -1.403  -1.575   6.161  0.00  0.00    +0.041 C 
BRANCH  19  20
ATOM     20  C   UNL     1      -2.342  -2.737   5.965  0.00  0.00    -0.042 A 
ATOM     21  C   UNL     1      -3.631  -2.516   5.518  0.00  0.00    +0.004 A 
ATOM     22  C   UNL     1      -4.493  -3.582   5.339  0.00  0.00    +0.000 A 
ATOM     23  C   UNL     1      -4.065  -4.869   5.606  0.00  0.00    +0.000 A 
ATOM     24  C   UNL     1      -2.776  -5.090   6.052  0.00  0.00    +0.000 A 
ATOM     25  C   UNL     1      -1.913  -4.025   6.228  0.00  0.00    +0.004 A 
ENDBRANCH  19  20
ENDBRANCH   3  17
TORSDOF 5
