REMARK  Name = ZINC00897222
REMARK  5 active torsions:
REMARK  status: ('A' for Active; 'I' for Inactive)
REMARK    1  A    between atoms: C_4  and  C_7
REMARK    2  A    between atoms: C_7  and  C_8
REMARK    3  A    between atoms: C_13  and  C_25
REMARK    4  A    between atoms: C_14  and  S_21
REMARK    5  A    between atoms: S_21  and  N_24
REMARK                            x       y       z     vdW  Elec       q    Type
REMARK                         _______ _______ _______ _____ _____    ______ ____
ROOT
ATOM      1  C   UNL     1       4.051  -0.954   1.434  0.00  0.00    +0.164 C 
ATOM      2  N   UNL     1       5.355  -1.604   1.533  0.00  0.00    -0.326 N 
ATOM      3  C   UNL     1       6.555  -0.962   1.237  0.00  0.00    +0.056 A 
ATOM      4  C   UNL     1       7.669  -1.735   0.913  0.00  0.00    +0.039 A 
ATOM      5  C   UNL     1       8.875  -1.130   0.631  0.00  0.00    +0.083 A 
ATOM      6  C   UNL     1       8.990   0.248   0.668  0.00  0.00    +0.119 A 
ATOM      7  C   UNL     1       7.888   1.022   0.982  0.00  0.00    +0.059 A 
ATOM      8  C   UNL     1       6.677   0.421   1.256  0.00  0.00    +0.128 A 
ATOM      9  S   UNL     1       5.262   1.416   1.618  0.00  0.00    +0.062 S 
ATOM     10  O   UNL     1       5.604   2.239   2.724  0.00  0.00    -0.153 OA
ATOM     11  O   UNL     1       4.798   1.943   0.382  0.00  0.00    -0.153 OA
ATOM     12  N   UNL     1       4.104   0.335   2.153  0.00  0.00    -0.170 NA
ATOM     13  H   UNL     1       5.388  -2.530   1.821  0.00  0.00    +0.148 HD
ATOM     14  H   UNL     1       3.507   0.539   2.890  0.00  0.00    +0.150 HD
ENDROOT
BRANCH   5  15
ATOM     15  C   UNL     1      10.074  -1.973   0.281  0.00  0.00    +0.419 C 
ATOM     16  F   UNL     1       9.717  -3.325   0.308  0.00  0.00    -0.166 F 
ATOM     17  F   UNL     1      10.524  -1.636  -1.000  0.00  0.00    -0.166 F 
ATOM     18  F   UNL     1      11.094  -1.741   1.210  0.00  0.00    -0.166 F 
ENDBRANCH   5  15
BRANCH   6  19
ATOM     19  S   UNL     1      10.537   1.015   0.316  0.00  0.00    +0.057 S 
ATOM     20  O   UNL     1      11.013   0.434  -0.890  0.00  0.00    -0.153 OA
ATOM     21  O   UNL     1      10.338   2.415   0.460  0.00  0.00    -0.153 OA
BRANCH  19  22
ATOM     22  N   UNL     1      11.591   0.561   1.510  0.00  0.00    -0.203 NA
ATOM     23  H   UNL     1      11.293  -0.026   2.222  0.00  0.00    +0.144 HD
ATOM     24  H   UNL     1      12.506   0.882   1.496  0.00  0.00    +0.144 HD
ENDBRANCH  19  22
ENDBRANCH   6  19
BRANCH   1  25
ATOM     25  C   UNL     1       3.711  -0.707  -0.038  0.00  0.00    +0.075 C 
BRANCH  25  29
ATOM     26  C   UNL     1       3.186  -4.450  -2.027  0.00  0.00    +0.000 A 
ATOM     27  C   UNL     1       2.132  -3.881  -1.337  0.00  0.00    +0.000 A 
ATOM     28  C   UNL     1       2.302  -2.670  -0.693  0.00  0.00    +0.004 A 
ATOM     29  C   UNL     1       3.526  -2.028  -0.739  0.00  0.00    -0.044 A 
ATOM     30  C   UNL     1       4.580  -2.598  -1.429  0.00  0.00    +0.004 A 
ATOM     31  C   UNL     1       4.409  -3.809  -2.074  0.00  0.00    +0.000 A 
ENDBRANCH  25  29
ENDBRANCH   1  25
TORSDOF 5
