REMARK  Name = ZINC50901699
REMARK  13 active torsions:
REMARK  status: ('A' for Active; 'I' for Inactive)
REMARK    1  A    between atoms: C_1  and  C_2
REMARK    2  A    between atoms: C_2  and  C_3
REMARK    3  A    between atoms: C_3  and  C_4
REMARK    4  A    between atoms: C_4  and  N_5
REMARK    5  A    between atoms: C_6  and  C_8
REMARK    6  A    between atoms: N_13  and  C_15
REMARK    7  A    between atoms: C_15  and  C_16
REMARK    8  A    between atoms: C_18  and  C_24
REMARK    9  A    between atoms: C_20  and  O_23
REMARK   10  A    between atoms: C_21  and  O_22
REMARK   11  A    between atoms: C_24  and  C_25
REMARK   12  A    between atoms: C_24  and  C_26
REMARK   13  A    between atoms: C_24  and  C_27
REMARK                            x       y       z     vdW  Elec       q    Type
REMARK                         _______ _______ _______ _____ _____    ______ ____
ROOT
ATOM      1  C   UNL     1       2.269  -4.308  -3.932  0.00  0.00    +0.058 C 
ATOM      2  C   UNL     1       3.707  -3.780  -3.943  0.00  0.00    +0.009 C 
ATOM      3  C   UNL     1       4.438  -4.343  -5.165  0.00  0.00    -0.018 C 
ATOM      4  C   UNL     1       4.381  -5.872  -5.127  0.00  0.00    -0.078 C 
ATOM      5  N   UNL     1       2.982  -6.314  -5.145  0.00  0.00    +0.383 N 
ATOM      6  C   UNL     1       2.292  -5.838  -3.940  0.00  0.00    -0.066 C 
ATOM      7  H   UNL     1       2.523  -5.941  -5.963  0.00  0.00    -0.081 HD
ENDROOT
BRANCH   1   9
ATOM      8  N   UNL     1       1.425  -2.500  -2.470  0.00  0.00    -0.315 N 
ATOM      9  C   UNL     1       1.564  -3.822  -2.692  0.00  0.00    +0.214 C 
ATOM     10  O   UNL     1       1.121  -4.620  -1.894  0.00  0.00    -0.276 OA
ATOM     11  H   UNL     1       1.779  -1.861  -3.109  0.00  0.00    +0.149 HD
BRANCH   8  12
ATOM     12  C   UNL     1       0.739  -2.027  -1.265  0.00  0.00    +0.104 C 
BRANCH  12  13
ATOM     13  C   UNL     1       0.718  -0.497  -1.257  0.00  0.00    +0.018 C 
BRANCH  13  15
ATOM     14  C   UNL     1      -0.019   1.526   0.010  0.00  0.00    +0.004 C 
ATOM     15  C   UNL     1       0.002  -0.004   0.002  0.00  0.00    -0.002 C 
ENDBRANCH  13  15
ENDBRANCH  12  13
ENDBRANCH   8  12
ENDBRANCH   1   9
BRANCH   5  16
ATOM     16  C   UNL     1       2.934  -7.782  -5.187  0.00  0.00    -0.039 C 
BRANCH  16  17
ATOM     17  C   UNL     1       3.523  -8.266  -6.487  0.00  0.00    -0.019 A 
ATOM     18  C   UNL     1       4.784  -8.835  -6.505  0.00  0.00    +0.009 A 
ATOM     19  C   UNL     1       5.327  -9.281  -7.695  0.00  0.00    -0.038 A 
ATOM     20  C   UNL     1       4.613  -9.159  -8.873  0.00  0.00    +0.053 A 
ATOM     21  C   UNL     1       3.350  -8.590  -8.862  0.00  0.00    +0.159 A 
ATOM     22  C   UNL     1       2.800  -8.147  -7.662  0.00  0.00    +0.160 A 
BRANCH  19  23
ATOM     23  C   UNL     1       6.701  -9.900  -7.710  0.00  0.00    -0.013 C 
ATOM     24  C   UNL     1       6.712 -11.138  -6.811  0.00  0.00    +0.015 C 
ATOM     25  C   UNL     1       7.063 -10.305  -9.140  0.00  0.00    +0.015 C 
ATOM     26  C   UNL     1       7.723  -8.885  -7.192  0.00  0.00    +0.015 C 
ENDBRANCH  19  23
BRANCH  22  27
ATOM     27  O   UNL     1       1.558  -7.593  -7.645  0.00  0.00    -0.503 OA
ATOM     28  H   UNL     1       1.553  -6.636  -7.777  0.00  0.00    +0.292 HD
ENDBRANCH  22  27
BRANCH  21  29
ATOM     29  O   UNL     1       2.646  -8.470 -10.020  0.00  0.00    -0.503 OA
ATOM     30  H   UNL     1       2.085  -9.232 -10.220  0.00  0.00    +0.292 HD
ENDBRANCH  21  29
ENDBRANCH  16  17
ENDBRANCH   5  16
TORSDOF 9
