REMARK  Name = ZINC62709362
REMARK  6 active torsions:
REMARK  status: ('A' for Active; 'I' for Inactive)
REMARK    1  A    between atoms: C_1  and  C_2
REMARK    2  A    between atoms: C_2  and  C_3
REMARK    3  A    between atoms: C_2  and  N_4
REMARK    4  A    between atoms: C_5  and  C_18
REMARK    5  A    between atoms: C_11  and  O_16
REMARK    6  A    between atoms: O_16  and  C_17
REMARK                            x       y       z     vdW  Elec       q    Type
REMARK                         _______ _______ _______ _____ _____    ______ ____
ROOT
ATOM      1  N   UNL     1      -1.459   0.037   0.292  0.00  0.00    -0.329 N 
ATOM      2  C   UNL     1      -1.876   0.839   1.315  0.00  0.00    +0.136 A 
ATOM      3  C   UNL     1      -3.170   0.877   1.724  0.00  0.00    +0.084 A 
ATOM      4  C   UNL     1      -4.141   0.063   1.078  0.00  0.00    +0.192 A 
ATOM      5  O   UNL     1      -5.309   0.081   1.428  0.00  0.00    -0.287 OA
ATOM      6  C   UNL     1      -3.692  -0.801  -0.024  0.00  0.00    +0.067 A 
ATOM      7  C   UNL     1      -2.333  -0.777  -0.389  0.00  0.00    +0.097 A 
ATOM      8  C   UNL     1      -1.891  -1.589  -1.437  0.00  0.00    +0.144 A 
ATOM      9  C   UNL     1      -2.789  -2.398  -2.104  0.00  0.00    +0.049 A 
ATOM     10  C   UNL     1      -4.130  -2.415  -1.745  0.00  0.00    +0.024 A 
ATOM     11  C   UNL     1      -4.585  -1.631  -0.708  0.00  0.00    +0.054 A 
ATOM     12 CL   UNL     1      -6.264  -1.658  -0.265  0.00  0.00    -0.083 Cl
ENDROOT
BRANCH   1  14
ATOM     13  C   UNL     1       0.397   1.489  -0.363  0.00  0.00    +0.030 C 
ATOM     14  C   UNL     1      -0.046   0.050  -0.093  0.00  0.00    +0.082 C 
ATOM     15  C   UNL     1       0.797  -0.540   1.039  0.00  0.00    +0.030 C 
ENDBRANCH   1  14
BRANCH   2  16
ATOM     16  C   UNL     1      -0.883   1.697   2.003  0.00  0.00    +0.403 C 
ATOM     17  O   UNL     1      -1.253   2.522   2.825  0.00  0.00    -0.239 OA
ATOM     18  O   UNL     1       0.307   1.578   1.750  0.00  0.00    -0.239 OA
ENDBRANCH   2  16
BRANCH   8  19
ATOM     19  O   UNL     1      -0.580  -1.581  -1.798  0.00  0.00    -0.493 OA
ATOM     20  C   UNL     1      -0.200  -2.436  -2.879  0.00  0.00    +0.277 C 
ENDBRANCH   8  19
TORSDOF 3
