REMARK  Name = ZINC57244564
REMARK  12 active torsions:
REMARK  status: ('A' for Active; 'I' for Inactive)
REMARK    1  A    between atoms: C_1  and  C_2
REMARK    2  A    between atoms: C_2  and  C_3
REMARK    3  A    between atoms: C_3  and  C_5
REMARK    4  A    between atoms: C_3  and  N_10
REMARK    5  A    between atoms: N_13  and  C_14
REMARK    6  A    between atoms: C_14  and  C_15
REMARK    7  A    between atoms: C_15  and  C_17
REMARK    8  A    between atoms: C_15  and  N_25
REMARK    9  A    between atoms: C_22  and  O_23
REMARK   10  A    between atoms: O_23  and  C_24
REMARK   11  A    between atoms: N_25  and  C_26
REMARK   12  A    between atoms: N_25  and  C_27
REMARK                            x       y       z     vdW  Elec       q    Type
REMARK                         _______ _______ _______ _____ _____    ______ ____
ROOT
ATOM      1  N   UNL     1      -1.590   4.699   1.055  0.00  0.00    -0.292 N 
ATOM      2  C   UNL     1      -2.525   3.756   1.289  0.00  0.00    +0.300 C 
ATOM      3  O   UNL     1      -2.851   2.991   0.403  0.00  0.00    -0.253 OA
ATOM      4  N   UNL     1      -3.098   3.663   2.506  0.00  0.00    -0.301 N 
ATOM      5  H   UNL     1      -1.329   5.309   1.762  0.00  0.00    +0.151 HD
ATOM      6  H   UNL     1      -2.837   4.274   3.213  0.00  0.00    +0.150 HD
ENDROOT
BRANCH   1   7
ATOM      7  C   UNL     1      -0.968   4.800  -0.267  0.00  0.00    +0.111 C 
BRANCH   7   8
ATOM      8  C   UNL     1       0.391   5.440  -0.135  0.00  0.00    +0.010 A 
ATOM      9  C   UNL     1       1.544   5.134  -0.777  0.00  0.00    +0.013 A 
ATOM     10  C   UNL     1       2.683   5.865  -0.494  0.00  0.00    +0.008 A 
ATOM     11  C   UNL     1       2.612   6.867   0.416  0.00  0.00    +0.045 A 
ATOM     12  S   UNL     1       0.895   6.803   0.902  0.00  0.00    -0.100 S 
ENDBRANCH   7   8
BRANCH   7  14
ATOM     13  C   UNL     1      -3.182   4.944  -1.415  0.00  0.00    +0.006 C 
ATOM     14  C   UNL     1      -1.848   5.655  -1.181  0.00  0.00    +0.024 C 
ENDBRANCH   7  14
ENDBRANCH   1   7
BRANCH   4  15
ATOM     15  C   UNL     1      -4.114   2.639   2.760  0.00  0.00    +0.095 C 
BRANCH  15  16
ATOM     16  C   UNL     1      -4.505   2.665   4.239  0.00  0.00    -0.017 C 
BRANCH  16  17
ATOM     17  C   UNL     1      -5.188   3.970   4.555  0.00  0.00    -0.018 A 
ATOM     18  C   UNL     1      -4.457   5.027   5.064  0.00  0.00    +0.005 A 
ATOM     19  C   UNL     1      -5.083   6.225   5.355  0.00  0.00    +0.000 A 
ATOM     20  C   UNL     1      -6.441   6.369   5.136  0.00  0.00    +0.004 A 
ATOM     21  C   UNL     1      -7.176   5.316   4.627  0.00  0.00    +0.046 A 
ATOM     22  C   UNL     1      -6.549   4.114   4.330  0.00  0.00    +0.122 A 
BRANCH  22  23
ATOM     23  O   UNL     1      -7.268   3.079   3.823  0.00  0.00    -0.495 OA
ATOM     24  C   UNL     1      -8.665   3.299   3.617  0.00  0.00    +0.277 C 
ENDBRANCH  22  23
ENDBRANCH  16  17
BRANCH  16  25
ATOM     25  N   UNL     1      -3.299   2.530   5.067  0.00  0.00    +0.382 N 
ATOM     26  C   UNL     1      -3.679   2.511   6.486  0.00  0.00    -0.096 C 
ATOM     27  C   UNL     1      -2.610   1.277   4.728  0.00  0.00    -0.096 C 
ATOM     28  H   UNL     1      -2.683   3.310   4.894  0.00  0.00    -0.082 HD
ENDBRANCH  16  25
ENDBRANCH  15  16
ENDBRANCH   4  15
TORSDOF 8
