REMARK  Name = ZINC67046013
REMARK  9 active torsions:
REMARK  status: ('A' for Active; 'I' for Inactive)
REMARK    1  A    between atoms: C_1  and  C_2
REMARK    2  A    between atoms: C_6  and  C_7
REMARK    3  A    between atoms: N_9  and  N_10
REMARK    4  A    between atoms: N_13  and  C_14
REMARK    5  A    between atoms: C_14  and  C_15
REMARK    6  A    between atoms: C_15  and  O_16
REMARK    7  A    between atoms: O_16  and  C_17
REMARK    8  A    between atoms: C_24  and  C_26
REMARK    9  A    between atoms: C_24  and  C_27
REMARK                            x       y       z     vdW  Elec       q    Type
REMARK                         _______ _______ _______ _____ _____    ______ ____
ROOT
ATOM      1  N   UNL     1       0.058  -0.732   4.900  0.00  0.00    -0.218 N 
ATOM      2  C   UNL     1       0.080  -1.625   5.909  0.00  0.00    +0.316 C 
ATOM      3  O   UNL     1       0.086  -1.239   7.062  0.00  0.00    -0.251 OA
ATOM      4  N   UNL     1       0.096  -2.945   5.640  0.00  0.00    -0.295 N 
ATOM      5  H   UNL     1       0.047   0.219   5.094  0.00  0.00    +0.174 HD
ATOM      6  H   UNL     1       0.091  -3.253   4.720  0.00  0.00    +0.150 HD
ENDROOT
BRANCH   1   9
ATOM      7  C   UNL     1       0.030  -0.283   2.562  0.00  0.00    +0.267 C 
ATOM      8  O   UNL     1       0.016   0.910   2.805  0.00  0.00    -0.268 OA
ATOM      9  N   UNL     1       0.052  -1.176   3.571  0.00  0.00    -0.229 N 
ATOM     10  H   UNL     1       0.063  -2.126   3.378  0.00  0.00    +0.173 HD
BRANCH   7  16
ATOM     11  C   UNL     1      -0.018   1.503   0.010  0.00  0.00    +0.045 C 
ATOM     12  C   UNL     1       0.002  -0.004   0.002  0.00  0.00    -0.031 A 
ATOM     13  C   UNL     1       0.007  -0.729  -1.166  0.00  0.00    +0.011 A 
ATOM     14  C   UNL     1       0.026  -2.083  -1.101  0.00  0.00    +0.046 A 
ATOM     15  S   UNL     1       0.038  -2.416   0.545  0.00  0.00    -0.092 S 
ATOM     16  C   UNL     1       0.023  -0.748   1.172  0.00  0.00    +0.078 A 
ENDBRANCH   7  16
ENDBRANCH   1   9
BRANCH   4  17
ATOM     17  C   UNL     1       0.119  -3.916   6.737  0.00  0.00    +0.146 C 
BRANCH  17  18
ATOM     18  C   UNL     1       0.133  -5.334   6.163  0.00  0.00    +0.248 C 
BRANCH  18  19
ATOM     19  O   UNL     1       1.350  -5.545   5.445  0.00  0.00    -0.487 OA
BRANCH  19  20
ATOM     20  C   UNL     1       1.523  -6.765   4.867  0.00  0.00    +0.162 A 
ATOM     21  C   UNL     1       0.539  -7.730   4.986  0.00  0.00    +0.049 A 
ATOM     22  C   UNL     1       0.707  -8.973   4.403  0.00  0.00    +0.004 A 
ATOM     23  C   UNL     1       1.866  -9.251   3.701  0.00  0.00    +0.007 A 
ATOM     24  C   UNL     1       2.849  -8.293   3.583  0.00  0.00    +0.002 A 
ATOM     25  C   UNL     1       2.690  -7.037   4.151  0.00  0.00    +0.166 A 
ATOM     26  O   UNL     1       3.763  -6.238   3.890  0.00  0.00    -0.482 OA
ATOM     27  C   UNL     1       4.881  -7.057   3.508  0.00  0.00    +0.109 C 
ATOM     28  C   UNL     1       4.204  -8.305   2.901  0.00  0.00    +0.086 C 
ATOM     29  C   UNL     1       5.711  -7.447   4.732  0.00  0.00    +0.056 C 
ATOM     30  C   UNL     1       5.747  -6.341   2.470  0.00  0.00    +0.056 C 
ENDBRANCH  19  20
ENDBRANCH  18  19
ENDBRANCH  17  18
ENDBRANCH   4  17
TORSDOF 6
