REMARK  Name = ZINC39252482
REMARK  11 active torsions:
REMARK  status: ('A' for Active; 'I' for Inactive)
REMARK    1  A    between atoms: C_1  and  C_2
REMARK    2  A    between atoms: C_2  and  C_3
REMARK    3  A    between atoms: C_2  and  C_4
REMARK    4  A    between atoms: C_4  and  C_5
REMARK    5  A    between atoms: C_9  and  N_12
REMARK    6  A    between atoms: C_13  and  C_15
REMARK    7  A    between atoms: N_20  and  C_22
REMARK    8  A    between atoms: C_22  and  C_23
REMARK    9  A    between atoms: C_23  and  C_24
REMARK   10  A    between atoms: C_27  and  O_33
REMARK   11  A    between atoms: O_33  and  C_34
REMARK                            x       y       z     vdW  Elec       q    Type
REMARK                         _______ _______ _______ _____ _____    ______ ____
ROOT
ATOM      1  C   UNL     1       2.633   3.111   6.688  0.00  0.00    +0.101 C 
ATOM      2  C   UNL     1       3.886   2.283   6.322  0.00  0.00    +0.110 C 
ATOM      3  C   UNL     1       4.845   2.536   7.463  0.00  0.00    +0.216 C 
ATOM      4  O   UNL     1       6.035   2.304   7.436  0.00  0.00    -0.276 OA
ATOM      5  N   UNL     1       4.187   3.057   8.513  0.00  0.00    -0.300 N 
ATOM      6  C   UNL     1       2.755   3.206   8.225  0.00  0.00    +0.121 C 
ENDROOT
BRANCH   1   8
ATOM      7  N   UNL     1       1.115   2.147   4.990  0.00  0.00    -0.290 N 
ATOM      8  C   UNL     1       1.373   2.387   6.290  0.00  0.00    +0.220 C 
ATOM      9  O   UNL     1       0.590   2.020   7.141  0.00  0.00    -0.275 OA
ATOM     10  H   UNL     1       1.741   2.441   4.309  0.00  0.00    +0.151 HD
BRANCH   7  14
ATOM     11  C   UNL     1      -0.161  -0.344   2.472  0.00  0.00    +0.130 C 
ATOM     12  N   UNL     1       0.568  -0.730   3.721  0.00  0.00    -0.241 NA
ATOM     13  N   UNL     1       0.007  -0.018   4.865  0.00  0.00    -0.227 NA
ATOM     14  C   UNL     1      -0.110   1.443   4.603  0.00  0.00    +0.216 C 
ATOM     15  S   UNL     1      -0.342   1.468   2.774  0.00  0.00    -0.102 S 
ATOM     16  H   UNL     1       0.535  -1.728   3.865  0.00  0.00    +0.142 HD
ATOM     17  H   UNL     1      -0.882  -0.410   5.134  0.00  0.00    +0.143 HD
BRANCH  11  18
ATOM     18  C   UNL     1       0.683  -0.621   1.226  0.00  0.00    +0.034 C 
BRANCH  18  20
ATOM     19  C   UNL     1       0.847  -0.255  -1.240  0.00  0.00    +0.007 C 
ATOM     20  C   UNL     1      -0.054  -0.108  -0.013  0.00  0.00    -0.015 C 
ATOM     21  C   UNL     1      -1.333  -0.921  -0.219  0.00  0.00    +0.007 C 
ENDBRANCH  18  20
ENDBRANCH  11  18
ENDBRANCH   7  14
ENDBRANCH   1   8
BRANCH   5  22
ATOM     22  C   UNL     1       4.817   3.429   9.782  0.00  0.00    +0.112 C 
BRANCH  22  23
ATOM     23  C   UNL     1       5.276   4.888   9.716  0.00  0.00    +0.056 C 
BRANCH  23  24
ATOM     24  C   UNL     1       5.924   5.271  11.021  0.00  0.00    -0.021 A 
ATOM     25  C   UNL     1       7.323   5.051  11.396  0.00  0.00    +0.006 A 
ATOM     26  C   UNL     1       8.421   4.478  10.751  0.00  0.00    +0.056 A 
ATOM     27  C   UNL     1       9.640   4.423  11.397  0.00  0.00    +0.121 A 
ATOM     28  C   UNL     1       9.776   4.938  12.684  0.00  0.00    +0.047 A 
ATOM     29  C   UNL     1       8.700   5.506  13.329  0.00  0.00    +0.030 A 
ATOM     30  C   UNL     1       7.464   5.570  12.696  0.00  0.00    +0.047 A 
ATOM     31  N   UNL     1       6.232   6.065  13.070  0.00  0.00    -0.360 N 
ATOM     32  C   UNL     1       5.331   5.883  12.058  0.00  0.00    +0.087 A 
ATOM     33  H   UNL     1       6.036   6.484  13.923  0.00  0.00    +0.165 HD
BRANCH  27  34
ATOM     34  O   UNL     1      10.712   3.865  10.774  0.00  0.00    -0.495 OA
ATOM     35  C   UNL     1      11.944   3.842  11.499  0.00  0.00    +0.277 C 
ENDBRANCH  27  34
ENDBRANCH  23  24
ENDBRANCH  22  23
ENDBRANCH   5  22
TORSDOF 8
