REMARK  Name = ZINC32753138
REMARK  7 active torsions:
REMARK  status: ('A' for Active; 'I' for Inactive)
REMARK    1  A    between atoms: C_1  and  C_2
REMARK    2  A    between atoms: C_5  and  C_8
REMARK    3  A    between atoms: N_12  and  C_16
REMARK    4  A    between atoms: C_16  and  C_17
REMARK    5  A    between atoms: C_17  and  N_18
REMARK    6  A    between atoms: C_19  and  C_21
REMARK    7  A    between atoms: C_24  and  C_26
REMARK                            x       y       z     vdW  Elec       q    Type
REMARK                         _______ _______ _______ _____ _____    ______ ____
ROOT
ATOM      1  C   UNL     1       4.010   3.008  -0.261  0.00  0.00    +0.136 C 
ENDROOT
BRANCH   1   6
ATOM      2  C   UNL     1       7.479   0.012  -2.158  0.00  0.00    +0.028 C 
ATOM      3  C   UNL     1       6.843   0.746  -1.211  0.00  0.00    +0.080 C 
ATOM      4  C   UNL     1       5.617   1.564  -1.319  0.00  0.00    +0.260 C 
ATOM      5  O   UNL     1       5.004   1.663  -2.366  0.00  0.00    -0.269 OA
ATOM      6  N   UNL     1       5.219   2.182  -0.220  0.00  0.00    -0.227 N 
ATOM      7  C   UNL     1       5.903   2.073   0.937  0.00  0.00    +0.286 C 
ATOM      8  O   UNL     1       5.656   2.585   2.012  0.00  0.00    -0.262 OA
ATOM      9  S   UNL     1       7.259   0.992   0.510  0.00  0.00    -0.026 S 
BRANCH   2  14
ATOM     10  C   UNL     1      12.591  -2.350  -1.010  0.00  0.00    +0.044 C 
ATOM     11  C   UNL     1      11.251  -1.731  -1.311  0.00  0.00    -0.050 A 
ATOM     12  C   UNL     1      10.591  -2.055  -2.484  0.00  0.00    +0.004 A 
ATOM     13  C   UNL     1       9.364  -1.492  -2.766  0.00  0.00    +0.008 A 
ATOM     14  C   UNL     1       8.786  -0.593  -1.864  0.00  0.00    -0.024 A 
ATOM     15  C   UNL     1       9.462  -0.267  -0.683  0.00  0.00    +0.008 A 
ATOM     16  C   UNL     1      10.686  -0.842  -0.413  0.00  0.00    +0.004 A 
ENDBRANCH   2  14
ENDBRANCH   1   6
BRANCH   1  17
ATOM     17  C   UNL     1       2.792   2.148   0.082  0.00  0.00    +0.124 C 
BRANCH  17  18
ATOM     18  N   UNL     1       1.583   2.974   0.041  0.00  0.00    -0.309 N 
ATOM     19  C   UNL     1       0.382   2.425   0.311  0.00  0.00    +0.263 C 
ATOM     20  O   UNL     1       0.302   1.244   0.588  0.00  0.00    -0.269 OA
ATOM     21  H   UNL     1       1.656   4.043  -0.210  0.00  0.00    +0.149 HD
BRANCH  19  22
ATOM     22  C   UNL     1      -0.834   3.255   0.264  0.00  0.00    +0.133 A 
ATOM     23  C   UNL     1      -2.062   2.704   0.531  0.00  0.00    +0.080 A 
ATOM     24  S   UNL     1      -3.109   4.076   0.342  0.00  0.00    -0.072 S 
ATOM     25  C   UNL     1      -1.856   5.278  -0.076  0.00  0.00    +0.144 A 
ATOM     26  N   UNL     1      -0.756   4.544  -0.032  0.00  0.00    -0.231 NA
BRANCH  25  27
ATOM     27  C   UNL     1      -2.007   6.709  -0.382  0.00  0.00    +0.160 A 
ATOM     28  C   UNL     1      -3.179   7.402  -0.408  0.00  0.00    +0.052 A 
ATOM     29  C   UNL     1      -2.857   8.731  -0.741  0.00  0.00    +0.042 A 
ATOM     30  C   UNL     1      -1.520   8.784  -0.908  0.00  0.00    +0.196 A 
ATOM     31  O   UNL     1      -1.010   7.561  -0.691  0.00  0.00    -0.461 OA
ENDBRANCH  25  27
ENDBRANCH  19  22
ENDBRANCH  17  18
ENDBRANCH   1  17
TORSDOF 6
