REMARK  Name = ZINC58407553
REMARK  3 active torsions:
REMARK  status: ('A' for Active; 'I' for Inactive)
REMARK    1  A    between atoms: C_5  and  N_9
REMARK    2  A    between atoms: C_10  and  C_12
REMARK    3  A    between atoms: N_20  and  C_21
REMARK                            x       y       z     vdW  Elec       q    Type
REMARK                         _______ _______ _______ _____ _____    ______ ____
ROOT
ATOM      1  C   UNL     1       6.666  -1.451  -0.349  0.00  0.00    +0.163 C 
ATOM      2  C   UNL     1       6.441  -2.917  -0.777  0.00  0.00    +0.033 C 
ATOM      3  C   UNL     1       7.695  -3.639  -0.216  0.00  0.00    +0.021 C 
ATOM      4  C   UNL     1       7.933  -2.866   1.106  0.00  0.00    +0.110 C 
ATOM      5  N   UNL     1       7.595  -1.463   0.790  0.00  0.00    -0.274 N 
ATOM      6  C   UNL     1       8.059  -0.375   1.436  0.00  0.00    +0.303 C 
ATOM      7  O   UNL     1       7.709   0.736   1.086  0.00  0.00    -0.253 OA
ATOM      8  N   UNL     1       8.911  -0.518   2.471  0.00  0.00    -0.296 N 
ATOM      9  H   UNL     1       9.190  -1.404   2.751  0.00  0.00    +0.151 HD
ENDROOT
BRANCH   8  10
ATOM     10  C   UNL     1       9.415   0.664   3.174  0.00  0.00    +0.074 C 
ATOM     11  C   UNL     1      10.636   1.214   2.434  0.00  0.00    +0.022 C 
ATOM     12  C   UNL     1      11.163   2.450   3.168  0.00  0.00    +0.002 C 
ATOM     13  C   UNL     1      11.560   2.064   4.595  0.00  0.00    +0.000 C 
ATOM     14  C   UNL     1      10.339   1.514   5.334  0.00  0.00    +0.002 C 
ATOM     15  C   UNL     1       9.812   0.279   4.600  0.00  0.00    +0.022 C 
ENDBRANCH   8  10
BRANCH   1  17
ATOM     16  N   UNL     1       4.350  -0.724  -0.827  0.00  0.00    -0.311 N 
ATOM     17  C   UNL     1       5.356  -0.832   0.064  0.00  0.00    +0.234 C 
ATOM     18  O   UNL     1       5.206  -0.430   1.198  0.00  0.00    -0.274 OA
ATOM     19  H   UNL     1       4.470  -1.046  -1.734  0.00  0.00    +0.149 HD
BRANCH  16  24
ATOM     20  C   UNL     1      -0.019   1.526   0.010  0.00  0.00    +0.000 C 
ATOM     21  C   UNL     1       1.417   2.055  -0.000  0.00  0.00    +0.000 C 
ATOM     22  C   UNL     1       2.003   1.911  -1.406  0.00  0.00    +0.002 C 
ATOM     23  C   UNL     1       2.370   0.447  -1.657  0.00  0.00    +0.022 C 
ATOM     24  C   UNL     1       3.077  -0.122  -0.425  0.00  0.00    +0.073 C 
ATOM     25  C   UNL     1       2.191  -1.187   0.225  0.00  0.00    +0.022 C 
ATOM     26  C   UNL     1       1.056  -0.506   0.991  0.00  0.00    +0.002 C 
ATOM     27  C   UNL     1       0.002  -0.004   0.002  0.00  0.00    +0.000 C 
ENDBRANCH  16  24
ENDBRANCH   1  17
TORSDOF 3
