REMARK  Name = ZINC17029300
REMARK  2 active torsions:
REMARK  status: ('A' for Active; 'I' for Inactive)
REMARK    1  A    between atoms: C_3  and  N_8
REMARK    2  A    between atoms: C_14  and  C_18
REMARK                            x       y       z     vdW  Elec       q    Type
REMARK                         _______ _______ _______ _____ _____    ______ ____
ROOT
ATOM      1  N   UNL     1       3.585   2.127  -0.021  0.00  0.00    -0.188 N 
ATOM      2  C   UNL     1       4.755   1.458   0.061  0.00  0.00    +0.265 C 
ATOM      3  O   UNL     1       4.781   0.244   0.142  0.00  0.00    -0.269 OA
ATOM      4  C   UNL     1       5.999   2.245   0.049  0.00  0.00    +0.119 C 
ATOM      5  C   UNL     1       7.240   1.638   0.129  0.00  0.00    +0.038 C 
ATOM      6  C   UNL     1       8.582   2.347   0.132  0.00  0.00    +0.078 C 
ATOM      7  C   UNL     1       9.566   1.186  -0.150  0.00  0.00    +0.115 C 
ATOM      8  N   UNL     1       8.795   0.011   0.319  0.00  0.00    -0.235 NA
ATOM      9  N   UNL     1       7.470   0.315   0.224  0.00  0.00    -0.283 N 
ATOM     10  C   UNL     1       5.862   3.712  -0.053  0.00  0.00    +0.278 C 
ATOM     11  N   UNL     1       4.627   4.234  -0.127  0.00  0.00    -0.123 NA
ATOM     12  C   UNL     1       3.555   3.483  -0.117  0.00  0.00    +0.340 C 
ATOM     13  O   UNL     1       2.354   4.088  -0.202  0.00  0.00    -0.250 OA
ATOM     14  O   UNL     1       6.847   4.432  -0.068  0.00  0.00    -0.268 OA
ATOM     15  H   UNL     1       9.020  -0.809  -0.224  0.00  0.00    +0.145 HD
ATOM     16  H   UNL     1       6.766  -0.352   0.224  0.00  0.00    +0.166 HD
ENDROOT
BRANCH   1  19
ATOM     17  C   UNL     1       0.637   0.266  -1.197  0.00  0.00    +0.003 A 
ATOM     18  C   UNL     1       1.824   0.972  -1.207  0.00  0.00    +0.024 A 
ATOM     19  C   UNL     1       2.381   1.410  -0.013  0.00  0.00    +0.047 A 
ATOM     20  C   UNL     1       1.743   1.136   1.189  0.00  0.00    +0.044 A 
ATOM     21  C   UNL     1       0.556   0.428   1.194  0.00  0.00    +0.043 A 
ATOM     22  C   UNL     1       0.004  -0.006   0.001  0.00  0.00    +0.020 A 
ATOM     23 CL   UNL     1      -0.243   0.084   2.696  0.00  0.00    -0.083 Cl
ENDBRANCH   1  19
BRANCH   7  24
ATOM     24  C   UNL     1      10.836   1.351   0.645  0.00  0.00    +0.009 A 
ATOM     25  C   UNL     1      12.036   1.837   0.246  0.00  0.00    +0.013 A 
ATOM     26  C   UNL     1      13.072   1.897   1.159  0.00  0.00    +0.008 A 
ATOM     27  C   UNL     1      12.858   1.467   2.426  0.00  0.00    +0.045 A 
ATOM     28  S   UNL     1      11.146   0.962   2.360  0.00  0.00    -0.100 S 
ENDBRANCH   7  24
TORSDOF 2
