REMARK  Name = ZINC19924167
REMARK  8 active torsions:
REMARK  status: ('A' for Active; 'I' for Inactive)
REMARK    1  A    between atoms: C_1  and  C_2
REMARK    2  A    between atoms: C_5  and  C_28
REMARK    3  A    between atoms: C_6  and  N_8
REMARK    4  A    between atoms: N_11  and  C_12
REMARK    5  A    between atoms: C_12  and  C_13
REMARK    6  A    between atoms: C_13  and  N_14
REMARK    7  A    between atoms: C_22  and  C_27
REMARK    8  A    between atoms: C_24  and  C_26
REMARK                            x       y       z     vdW  Elec       q    Type
REMARK                         _______ _______ _______ _____ _____    ______ ____
ROOT
ATOM      1  C   UNL     1       0.013   1.527   0.027  0.00  0.00    +0.121 C 
ENDROOT
BRANCH   1   2
ATOM      2  N   UNL     1      -0.670   2.000   1.234  0.00  0.00    -0.326 N 
ATOM      3  C   UNL     1      -0.802   3.365   1.469  0.00  0.00    +0.141 A 
ATOM      4  C   UNL     1      -0.280   4.285   0.559  0.00  0.00    +0.049 A 
ATOM      5  C   UNL     1      -0.440   5.632   0.834  0.00  0.00    +0.053 A 
ATOM      6  C   UNL     1      -1.104   5.986   2.009  0.00  0.00    +0.176 A 
ATOM      7  N   UNL     1      -1.562   5.044   2.816  0.00  0.00    -0.128 NA
ATOM      8  N   UNL     1      -1.418   3.794   2.560  0.00  0.00    -0.132 NA
ATOM      9  N   UNL     1      -1.286   7.335   2.332  0.00  0.00    -0.217 N 
ATOM     10  C   UNL     1      -2.269   7.844   3.119  0.00  0.00    +0.044 A 
ATOM     11  C   UNL     1      -2.090   9.184   3.183  0.00  0.00    +0.048 A 
ATOM     12  C   UNL     1      -0.972   9.508   2.407  0.00  0.00    +0.061 A 
ATOM     13  N   UNL     1      -0.490   8.403   1.897  0.00  0.00    -0.170 NA
ATOM     14  C   UNL     1      -0.418  10.893   2.193  0.00  0.00    +0.067 C 
ATOM     15  C   UNL     1      -3.360   7.058   3.800  0.00  0.00    +0.066 C 
ATOM     16  H   UNL     1      -1.078   1.275   1.955  0.00  0.00    +0.148 HD
ENDBRANCH   1   2
BRANCH   1  17
ATOM     17  C   UNL     1       0.020  -0.003   0.012  0.00  0.00    +0.124 C 
BRANCH  17  21
ATOM     18  N   UNL     1       1.458  -2.233  -2.534  0.00  0.00    -0.269 N 
ATOM     19  C   UNL     1       0.830  -1.798  -1.423  0.00  0.00    +0.304 C 
ATOM     20  O   UNL     1       0.379  -2.599  -0.627  0.00  0.00    -0.253 OA
ATOM     21  N   UNL     1       0.702  -0.476  -1.196  0.00  0.00    -0.298 N 
ATOM     22  H   UNL     1       1.784  -1.514  -3.299  0.00  0.00    +0.156 HD
ATOM     23  H   UNL     1       1.110   0.248  -1.916  0.00  0.00    +0.150 HD
BRANCH  18  29
ATOM     24  C   UNL     1       2.091  -6.709  -0.599  0.00  0.00    +0.044 C 
ATOM     25  C   UNL     1       2.007  -5.793  -1.793  0.00  0.00    -0.049 A 
ATOM     26  C   UNL     1       2.164  -6.304  -3.068  0.00  0.00    +0.004 A 
ATOM     27  C   UNL     1       2.088  -5.467  -4.166  0.00  0.00    +0.005 A 
ATOM     28  C   UNL     1       1.853  -4.117  -3.993  0.00  0.00    -0.029 A 
ATOM     29  C   UNL     1       1.695  -3.601  -2.713  0.00  0.00    +0.038 A 
ATOM     30  C   UNL     1       1.778  -4.443  -1.612  0.00  0.00    +0.027 A 
ATOM     31  C   UNL     1       1.769  -3.206  -5.190  0.00  0.00    +0.045 C 
ENDBRANCH  18  29
ENDBRANCH  17  21
ENDBRANCH   1  17
TORSDOF 4
