REMARK  Name = ZINC02135261
REMARK  5 active torsions:
REMARK  status: ('A' for Active; 'I' for Inactive)
REMARK    1  A    between atoms: C_1  and  C_2
REMARK    2  A    between atoms: C_2  and  C_3
REMARK    3  A    between atoms: C_2  and  N_4
REMARK    4  A    between atoms: C_11  and  C_14
REMARK    5  A    between atoms: C_11  and  O_24
REMARK                            x       y       z     vdW  Elec       q    Type
REMARK                         _______ _______ _______ _____ _____    ______ ____
ROOT
ATOM      1  N   UNL     1       0.702  -3.614  -0.657  0.00  0.00    -0.266 N 
ATOM      2  C   UNL     1       0.757  -3.627   0.738  0.00  0.00    +0.043 A 
ATOM      3  C   UNL     1       0.202  -4.509   1.663  0.00  0.00    +0.024 A 
ATOM      4  C   UNL     1       0.399  -4.309   3.014  0.00  0.00    +0.002 A 
ATOM      5  C   UNL     1       1.146  -3.235   3.460  0.00  0.00    +0.000 A 
ATOM      6  C   UNL     1       1.700  -2.354   2.547  0.00  0.00    +0.009 A 
ATOM      7  C   UNL     1       1.505  -2.551   1.199  0.00  0.00    +0.019 A 
ATOM      8  C   UNL     1       1.961  -1.794  -0.027  0.00  0.00    +0.196 C 
ATOM      9  C   UNL     1       1.378  -2.579  -1.183  0.00  0.00    +0.261 C 
ATOM     10  O   UNL     1       1.498  -2.321  -2.362  0.00  0.00    -0.271 OA
ENDROOT
BRANCH   8  11
ATOM     11  C   UNL     1       1.415  -0.390  -0.013  0.00  0.00    +0.022 A 
ATOM     12  C   UNL     1       2.132   0.746  -0.014  0.00  0.00    +0.091 A 
ATOM     13  N   UNL     1       1.293   1.827  -0.001  0.00  0.00    -0.360 N 
ATOM     14  H   UNL     1       1.579   2.754   0.002  0.00  0.00    +0.165 HD
ATOM     15  C   UNL     1      -0.017   1.403   0.010  0.00  0.00    +0.047 A 
ATOM     16  C   UNL     1       0.002  -0.004   0.002  0.00  0.00    +0.006 A 
ATOM     17  C   UNL     1      -1.198  -0.717   0.010  0.00  0.00    +0.010 A 
ATOM     18  C   UNL     1      -2.387  -0.043   0.025  0.00  0.00    +0.001 A 
ATOM     19  C   UNL     1      -2.411   1.344   0.033  0.00  0.00    +0.002 A 
ATOM     20  C   UNL     1      -1.238   2.068   0.030  0.00  0.00    +0.026 A 
ENDBRANCH   8  11
BRANCH   1  22
ATOM     21  C   UNL     1      -1.091  -3.925  -2.290  0.00  0.00    +0.028 C 
ATOM     22  C   UNL     1      -0.011  -4.615  -1.455  0.00  0.00    +0.075 C 
ATOM     23  C   UNL     1       0.977  -5.323  -2.384  0.00  0.00    +0.028 C 
ENDBRANCH   1  22
BRANCH   8  24
ATOM     24  O   UNL     1       3.388  -1.774  -0.101  0.00  0.00    -0.371 OA
ATOM     25  H   UNL     1       3.735  -1.326  -0.884  0.00  0.00    +0.212 HD
ENDBRANCH   8  24
TORSDOF 3
