REMARK  Name = ZINC58622583
REMARK  10 active torsions:
REMARK  status: ('A' for Active; 'I' for Inactive)
REMARK    1  A    between atoms: C_1  and  C_2
REMARK    2  A    between atoms: C_2  and  N_3
REMARK    3  A    between atoms: N_3  and  C_4
REMARK    4  A    between atoms: C_4  and  C_5
REMARK    5  A    between atoms: N_7  and  C_8
REMARK    6  A    between atoms: C_8  and  C_9
REMARK    7  A    between atoms: C_8  and  C_10
REMARK    8  A    between atoms: C_8  and  C_11
REMARK    9  A    between atoms: C_12  and  C_14
REMARK   10  A    between atoms: N_17  and  C_19
REMARK                            x       y       z     vdW  Elec       q    Type
REMARK                         _______ _______ _______ _____ _____    ______ ____
ROOT
ATOM      1  N   UNL     1      -1.391  -0.703   0.070  0.00  0.00    -0.289 N 
ATOM      2  C   UNL     1      -2.115  -0.678   1.206  0.00  0.00    +0.250 C 
ATOM      3  O   UNL     1      -1.591  -0.353   2.254  0.00  0.00    -0.270 OA
ENDROOT
BRANCH   2   4
ATOM      4  C   UNL     1      -3.543  -1.044   1.178  0.00  0.00    +0.075 A 
ATOM      5  C   UNL     1      -4.209  -1.747   0.148  0.00  0.00    +0.147 A 
ATOM      6  N   UNL     1      -5.461  -1.876   0.491  0.00  0.00    -0.174 NA
ATOM      7  N   UNL     1      -5.655  -1.272   1.738  0.00  0.00    -0.236 N 
ATOM      8  C   UNL     1      -4.479  -0.770   2.156  0.00  0.00    +0.127 A 
BRANCH   7   9
ATOM      9  C   UNL     1      -6.869  -1.205   2.437  0.00  0.00    +0.100 A 
ATOM     10  C   UNL     1      -6.928  -0.569   3.669  0.00  0.00    +0.031 A 
ATOM     11  C   UNL     1      -8.125  -0.504   4.355  0.00  0.00    +0.002 A 
ATOM     12  C   UNL     1      -9.265  -1.073   3.816  0.00  0.00    +0.003 A 
ATOM     13  C   UNL     1      -9.211  -1.709   2.590  0.00  0.00    +0.040 A 
ATOM     14  C   UNL     1      -8.017  -1.772   1.895  0.00  0.00    +0.149 A 
ATOM     15  F   UNL     1      -7.965  -2.388   0.694  0.00  0.00    -0.203 F 
ENDBRANCH   7   9
ENDBRANCH   2   4
BRANCH   1  17
ATOM     16  C   UNL     1       0.330   1.032  -0.018  0.00  0.00    +0.024 C 
ATOM     17  C   UNL     1       0.054  -0.466   0.117  0.00  0.00    +0.105 C 
ENDBRANCH   1  17
BRANCH   1  18
ATOM     18  C   UNL     1      -2.048  -0.967  -1.212  0.00  0.00    +0.203 C 
BRANCH  18  19
ATOM     19  C   UNL     1      -1.925  -2.431  -1.548  0.00  0.00    +0.231 C 
ATOM     20  O   UNL     1      -1.345  -3.180  -0.791  0.00  0.00    -0.274 OA
ATOM     21  N   UNL     1      -2.459  -2.908  -2.690  0.00  0.00    -0.309 N 
ATOM     22  H   UNL     1      -2.923  -2.309  -3.296  0.00  0.00    +0.149 HD
BRANCH  21  23
ATOM     23  C   UNL     1      -2.340  -4.331  -3.016  0.00  0.00    +0.026 C 
ATOM     24  C   UNL     1      -3.007  -5.164  -1.919  0.00  0.00    +0.031 C 
ATOM     25  C   UNL     1      -3.026  -4.607  -4.355  0.00  0.00    +0.031 C 
ATOM     26  C   UNL     1      -0.860  -4.710  -3.114  0.00  0.00    +0.031 C 
ENDBRANCH  21  23
ENDBRANCH  18  19
ENDBRANCH   1  18
TORSDOF 6
