REMARK  Name = ZINC39606045
REMARK  10 active torsions:
REMARK  status: ('A' for Active; 'I' for Inactive)
REMARK    1  A    between atoms: C_1  and  C_2
REMARK    2  A    between atoms: C_2  and  C_3
REMARK    3  A    between atoms: C_3  and  C_5
REMARK    4  A    between atoms: C_3  and  C_6
REMARK    5  A    between atoms: C_6  and  N_7
REMARK    6  A    between atoms: C_8  and  C_10
REMARK    7  A    between atoms: C_21  and  C_23
REMARK    8  A    between atoms: C_23  and  C_25
REMARK    9  A    between atoms: C_23  and  O_26
REMARK   10  A    between atoms: O_26  and  C_27
REMARK                            x       y       z     vdW  Elec       q    Type
REMARK                         _______ _______ _______ _____ _____    ______ ____
ROOT
ATOM      1  C   UNL     1      -4.418  -4.353   0.531  0.00  0.00    +0.100 C 
ATOM      2  C   UNL     1      -5.037  -3.931   1.882  0.00  0.00    +0.121 C 
ATOM      3  N   UNL     1      -5.851  -5.097   2.301  0.00  0.00    -0.297 N 
ATOM      4  C   UNL     1      -5.033  -6.273   1.919  0.00  0.00    +0.115 C 
ATOM      5  C   UNL     1      -4.416  -5.890   0.560  0.00  0.00    -0.004 C 
ATOM      6  C   UNL     1      -2.989  -6.420   0.461  0.00  0.00    -0.010 C 
ATOM      7  C   UNL     1      -3.018  -7.950   0.432  0.00  0.00    -0.082 C 
ATOM      8  N   UNL     1      -3.810  -8.406  -0.716  0.00  0.00    +0.379 N 
ATOM      9  C   UNL     1      -5.204  -7.971  -0.567  0.00  0.00    -0.082 C 
ATOM     10  C   UNL     1      -5.268  -6.441  -0.581  0.00  0.00    -0.010 C 
ATOM     11  C   UNL     1      -7.061  -5.089   2.894  0.00  0.00    +0.256 C 
ATOM     12  O   UNL     1      -7.650  -4.041   3.057  0.00  0.00    -0.272 OA
ATOM     13  H   UNL     1      -3.426  -8.015  -1.564  0.00  0.00    -0.086 HD
ATOM     14  H   UNL     1      -3.777  -9.413  -0.768  0.00  0.00    -0.086 HD
ENDROOT
BRANCH   1  16
ATOM     15  N   UNL     1      -2.439  -3.698  -0.801  0.00  0.00    -0.315 N 
ATOM     16  C   UNL     1      -3.010  -3.829   0.413  0.00  0.00    +0.218 C 
ATOM     17  O   UNL     1      -2.390  -3.525   1.410  0.00  0.00    -0.275 OA
ATOM     18  H   UNL     1      -2.934  -3.941  -1.599  0.00  0.00    +0.149 HD
BRANCH  15  19
ATOM     19  C   UNL     1      -1.070  -3.189  -0.916  0.00  0.00    +0.107 C 
BRANCH  19  20
ATOM     20  C   UNL     1      -0.666  -3.139  -2.391  0.00  0.00    +0.003 C 
ATOM     21  C   UNL     1      -0.618  -4.561  -2.954  0.00  0.00    +0.009 C 
BRANCH  20  23
ATOM     22  C   UNL     1       1.064  -2.329  -4.001  0.00  0.00    +0.004 C 
ATOM     23  C   UNL     1       0.714  -2.492  -2.521  0.00  0.00    +0.001 C 
ENDBRANCH  20  23
ENDBRANCH  19  20
ENDBRANCH  15  19
ENDBRANCH   1  16
BRANCH  11  24
ATOM     24  C   UNL     1      -7.682  -6.382   3.356  0.00  0.00    +0.256 C 
ATOM     25  C   UNL     1      -6.883  -6.939   4.535  0.00  0.00    +0.062 C 
BRANCH  24  26
ATOM     26  O   UNL     1      -9.031  -6.143   3.764  0.00  0.00    -0.480 OA
BRANCH  26  27
ATOM     27  C   UNL     1      -9.887  -7.197   3.711  0.00  0.00    +0.122 A 
ATOM     28  C   UNL     1     -11.236  -7.010   3.973  0.00  0.00    +0.045 A 
ATOM     29  C   UNL     1     -12.105  -8.082   3.918  0.00  0.00    +0.004 A 
ATOM     30  C   UNL     1     -11.630  -9.342   3.603  0.00  0.00    +0.000 A 
ATOM     31  C   UNL     1     -10.286  -9.532   3.343  0.00  0.00    +0.004 A 
ATOM     32  C   UNL     1      -9.414  -8.461   3.390  0.00  0.00    +0.045 A 
ENDBRANCH  26  27
ENDBRANCH  24  26
ENDBRANCH  11  24
TORSDOF 7
