REMARK  Name = ZINC44017013
REMARK  8 active torsions:
REMARK  status: ('A' for Active; 'I' for Inactive)
REMARK    1  A    between atoms: C_1  and  C_2
REMARK    2  A    between atoms: C_2  and  C_3
REMARK    3  A    between atoms: C_2  and  C_4
REMARK    4  A    between atoms: C_2  and  N_5
REMARK    5  A    between atoms: C_6  and  C_8
REMARK    6  A    between atoms: C_11  and  N_14
REMARK    7  A    between atoms: N_17  and  C_18
REMARK    8  A    between atoms: C_18  and  C_19
REMARK                            x       y       z     vdW  Elec       q    Type
REMARK                         _______ _______ _______ _____ _____    ______ ____
ROOT
ATOM      1  N   UNL     1       4.612  -1.950  -6.069  0.00  0.00    -0.269 N 
ATOM      2  C   UNL     1       4.334  -3.171  -6.568  0.00  0.00    +0.304 C 
ATOM      3  O   UNL     1       3.450  -3.844  -6.072  0.00  0.00    -0.253 OA
ATOM      4  N   UNL     1       5.035  -3.646  -7.616  0.00  0.00    -0.296 N 
ATOM      5  H   UNL     1       5.270  -1.387  -6.505  0.00  0.00    +0.156 HD
ATOM      6  H   UNL     1       5.740  -3.110  -8.011  0.00  0.00    +0.150 HD
ENDROOT
BRANCH   1  10
ATOM      7  C   UNL     1       2.643  -0.598  -2.656  0.00  0.00    +0.037 A 
ATOM      8  C   UNL     1       1.969  -1.398  -3.583  0.00  0.00    +0.015 A 
ATOM      9  C   UNL     1       2.622  -1.843  -4.710  0.00  0.00    +0.024 A 
ATOM     10  C   UNL     1       3.953  -1.498  -4.927  0.00  0.00    +0.035 A 
ATOM     11  C   UNL     1       4.627  -0.702  -4.006  0.00  0.00    +0.024 A 
ATOM     12  C   UNL     1       3.978  -0.248  -2.880  0.00  0.00    +0.015 A 
BRANCH   7  14
ATOM     13  N   UNL     1       0.659  -0.456  -1.233  0.00  0.00    -0.307 N 
ATOM     14  C   UNL     1       1.946  -0.118  -1.447  0.00  0.00    +0.244 C 
ATOM     15  O   UNL     1       2.532   0.582  -0.645  0.00  0.00    -0.270 OA
ATOM     16  H   UNL     1       0.191  -1.014  -1.874  0.00  0.00    +0.150 HD
BRANCH  13  18
ATOM     17  C   UNL     1      -0.047   1.550  -0.025  0.00  0.00    +0.031 C 
ATOM     18  C   UNL     1      -0.034   0.020  -0.033  0.00  0.00    +0.026 C 
ATOM     19  C   UNL     1       0.694  -0.490   1.212  0.00  0.00    +0.031 C 
ATOM     20  C   UNL     1      -1.472  -0.502  -0.033  0.00  0.00    +0.031 C 
ENDBRANCH  13  18
ENDBRANCH   7  14
ENDBRANCH   1  10
BRANCH   4  21
ATOM     21  C   UNL     1       4.733  -4.973  -8.158  0.00  0.00    +0.153 C 
BRANCH  21  22
ATOM     22  C   UNL     1       5.666  -5.268  -9.334  0.00  0.00    +0.228 C 
ATOM     23  C   UNL     1       5.283  -6.609  -9.976  0.00  0.00    +0.275 C 
ATOM     24  O   UNL     1       6.182  -6.860 -11.061  0.00  0.00    -0.485 OA
ATOM     25  C   UNL     1       7.506  -6.661 -10.816  0.00  0.00    +0.162 A 
ATOM     26  C   UNL     1       8.447  -7.216 -11.671  0.00  0.00    +0.049 A 
ATOM     27  C   UNL     1       9.795  -7.020 -11.437  0.00  0.00    +0.004 A 
ATOM     28  C   UNL     1      10.209  -6.270 -10.352  0.00  0.00    +0.004 A 
ATOM     29  C   UNL     1       9.277  -5.716  -9.496  0.00  0.00    +0.049 A 
ATOM     30  C   UNL     1       7.923  -5.910  -9.723  0.00  0.00    +0.163 A 
ATOM     31  O   UNL     1       7.016  -5.364  -8.867  0.00  0.00    -0.480 OA
ENDBRANCH  21  22
ENDBRANCH   4  21
TORSDOF 5
