REMARK  Name = ZINC04429538
REMARK  5 active torsions:
REMARK  status: ('A' for Active; 'I' for Inactive)
REMARK    1  A    between atoms: C_6  and  N_7
REMARK    2  A    between atoms: N_7  and  S_8
REMARK    3  A    between atoms: S_8  and  C_11
REMARK    4  A    between atoms: C_11  and  C_12
REMARK    5  A    between atoms: C_12  and  C_13
REMARK                            x       y       z     vdW  Elec       q    Type
REMARK                         _______ _______ _______ _____ _____    ______ ____
ROOT
ATOM      1  S   UNL     1      -3.345   5.081   2.855  0.00  0.00    +0.043 S 
ATOM      2  O   UNL     1      -3.367   4.393   4.098  0.00  0.00    -0.155 OA
ATOM      3  O   UNL     1      -2.756   6.370   2.751  0.00  0.00    -0.155 OA
ENDROOT
BRANCH   1   4
ATOM      4  N   UNL     1      -4.940   5.313   2.473  0.00  0.00    -0.221 N 
ATOM      5  H   UNL     1      -5.262   6.202   2.255  0.00  0.00    +0.173 HD
BRANCH   4  11
ATOM      6  C   UNL     1      -6.261   3.698   1.260  0.00  0.00    +0.026 A 
ATOM      7  C   UNL     1      -7.128   2.623   1.255  0.00  0.00    +0.023 A 
ATOM      8  C   UNL     1      -7.568   2.082   2.449  0.00  0.00    +0.059 A 
ATOM      9  C   UNL     1      -7.136   2.612   3.654  0.00  0.00    +0.061 A 
ATOM     10  C   UNL     1      -6.264   3.684   3.664  0.00  0.00    +0.046 A 
ATOM     11  C   UNL     1      -5.821   4.229   2.466  0.00  0.00    +0.049 A 
ATOM     12 CL   UNL     1      -7.690   1.929   5.150  0.00  0.00    -0.082 Cl
ATOM     13 CL   UNL     1      -8.664   0.736   2.438  0.00  0.00    -0.082 Cl
ENDBRANCH   4  11
ENDBRANCH   1   4
BRANCH   1  14
ATOM     14  C   UNL     1      -2.707   3.995   1.551  0.00  0.00    +0.191 C 
BRANCH  14  15
ATOM     15  C   UNL     1      -1.230   3.693   1.815  0.00  0.00    +0.056 C 
BRANCH  15  16
ATOM     16  C   UNL     1      -0.692   2.777   0.715  0.00  0.00    +0.162 C 
ATOM     17  C   UNL     1       0.799   2.560   0.884  0.00  0.00    +0.241 C 
ATOM     18  O   UNL     1       1.670   3.403   0.850  0.00  0.00    -0.273 OA
ATOM     19  N   UNL     1       0.955   1.236   1.078  0.00  0.00    -0.239 N 
ATOM     20  C   UNL     1      -0.217   0.592   1.056  0.00  0.00    +0.307 C 
ATOM     21  O   UNL     1      -0.332  -0.608   1.208  0.00  0.00    -0.252 OA
ATOM     22  N   UNL     1      -1.255   1.421   0.841  0.00  0.00    -0.288 N 
ATOM     23  H   UNL     1       1.812   0.803   1.218  0.00  0.00    +0.159 HD
ATOM     24  H   UNL     1      -2.191   1.175   0.781  0.00  0.00    +0.151 HD
ENDBRANCH  15  16
ENDBRANCH  14  15
ENDBRANCH   1  14
TORSDOF 5
