REMARK  Name = ZINC33026389
REMARK  5 active torsions:
REMARK  status: ('A' for Active; 'I' for Inactive)
REMARK    1  A    between atoms: C_1  and  C_2
REMARK    2  A    between atoms: C_10  and  C_12
REMARK    3  A    between atoms: C_22  and  C_25
REMARK    4  A    between atoms: C_28  and  O_31
REMARK    5  A    between atoms: O_31  and  C_32
REMARK                            x       y       z     vdW  Elec       q    Type
REMARK                         _______ _______ _______ _____ _____    ______ ____
ROOT
ATOM      1  C   UNL     1       1.773   6.893  -0.692  0.00  0.00    +0.069 C 
ATOM      2  C   UNL     1       2.693   5.703  -0.593  0.00  0.00    +0.087 A 
ATOM      3  C   UNL     1       2.337   4.394  -0.277  0.00  0.00    +0.049 A 
ATOM      4  C   UNL     1       3.518   3.699  -0.318  0.00  0.00    +0.226 A 
ATOM      5  O   UNL     1       4.460   4.581  -0.635  0.00  0.00    -0.339 OA
ATOM      6  N   UNL     1       3.988   5.691  -0.787  0.00  0.00    -0.081 NA
ATOM      7  N   UNL     1       3.558   2.345  -0.056  0.00  0.00    -0.286 N 
ATOM      8  C   UNL     1       2.376   1.643  -0.043  0.00  0.00    +0.019 C 
ATOM      9  C   UNL     1       1.171   2.250   0.003  0.00  0.00    +0.024 C 
ATOM     10  C   UNL     1       1.026   3.758   0.053  0.00  0.00    +0.093 C 
ATOM     11  C   UNL     1      -0.018   1.499   0.010  0.00  0.00    +0.162 C 
ATOM     12  O   UNL     1      -1.087   2.078   0.018  0.00  0.00    -0.292 OA
ATOM     13  C   UNL     1       0.002  -0.004   0.002  0.00  0.00    +0.088 C 
ATOM     14  C   UNL     1       1.299  -0.485   0.661  0.00  0.00    +0.032 C 
ATOM     15  C   UNL     1       2.478   0.135  -0.090  0.00  0.00    +0.059 C 
ATOM     16  H   UNL     1       4.521   1.850   0.136  0.00  0.00    +0.155 HD
ENDROOT
BRANCH  10  17
ATOM     17  C   UNL     1       0.598   4.176   1.437  0.00  0.00    -0.000 A 
ATOM     18  C   UNL     1       1.393   3.875   2.526  0.00  0.00    +0.007 A 
ATOM     19  C   UNL     1       1.004   4.263   3.795  0.00  0.00    +0.000 A 
ATOM     20  C   UNL     1      -0.186   4.943   3.976  0.00  0.00    +0.003 A 
ATOM     21  C   UNL     1      -0.986   5.239   2.888  0.00  0.00    +0.038 A 
ATOM     22  C   UNL     1      -0.594   4.856   1.617  0.00  0.00    +0.127 A 
ATOM     23  F   UNL     1      -1.375   5.146   0.553  0.00  0.00    -0.205 F 
ENDBRANCH  10  17
BRANCH  14  24
ATOM     24  C   UNL     1       1.381  -1.988   0.584  0.00  0.00    -0.043 A 
ATOM     25  C   UNL     1       1.377  -2.617  -0.648  0.00  0.00    +0.007 A 
ATOM     26  C   UNL     1       1.458  -3.994  -0.722  0.00  0.00    +0.046 A 
ATOM     27  C   UNL     1       1.532  -4.747   0.441  0.00  0.00    +0.120 A 
ATOM     28  C   UNL     1       1.530  -4.114   1.675  0.00  0.00    +0.046 A 
ATOM     29  C   UNL     1       1.455  -2.736   1.744  0.00  0.00    +0.007 A 
BRANCH  27  30
ATOM     30  O   UNL     1       1.607  -6.102   0.371  0.00  0.00    -0.495 OA
ATOM     31  C   UNL     1       1.603  -6.685  -0.934  0.00  0.00    +0.277 C 
ENDBRANCH  27  30
ENDBRANCH  14  24
TORSDOF 3
