REMARK  Name = ZINC09254871
REMARK  7 active torsions:
REMARK  status: ('A' for Active; 'I' for Inactive)
REMARK    1  A    between atoms: C_1  and  C_2
REMARK    2  A    between atoms: C_5  and  C_8
REMARK    3  A    between atoms: C_9  and  C_20
REMARK    4  A    between atoms: N_11  and  C_13
REMARK    5  A    between atoms: C_13  and  C_14
REMARK    6  A    between atoms: N_22  and  C_23
REMARK    7  A    between atoms: C_32  and  C_35
REMARK                            x       y       z     vdW  Elec       q    Type
REMARK                         _______ _______ _______ _____ _____    ______ ____
ROOT
ATOM      1  C   UNL     1       1.157   2.336   0.332  0.00  0.00    +0.105 A 
ATOM      2  C   UNL     1      -0.004   1.455   0.171  0.00  0.00    +0.082 A 
ATOM      3  C   UNL     1      -1.099   2.280   0.017  0.00  0.00    +0.122 A 
ATOM      4  N   UNL     1      -0.672   3.550   0.084  0.00  0.00    -0.266 N 
ATOM      5  N   UNL     1       0.713   3.571   0.273  0.00  0.00    -0.170 NA
ENDROOT
BRANCH   1  10
ATOM      6  C   UNL     1       6.625   0.695   1.081  0.00  0.00    +0.044 C 
ATOM      7  C   UNL     1       5.194   1.124   0.885  0.00  0.00    -0.050 A 
ATOM      8  C   UNL     1       4.911   2.263   0.153  0.00  0.00    +0.004 A 
ATOM      9  C   UNL     1       3.602   2.661  -0.030  0.00  0.00    +0.010 A 
ATOM     10  C   UNL     1       2.565   1.913   0.524  0.00  0.00    +0.003 A 
ATOM     11  C   UNL     1       2.857   0.769   1.266  0.00  0.00    +0.010 A 
ATOM     12  C   UNL     1       4.169   0.378   1.438  0.00  0.00    +0.004 A 
ENDBRANCH   1  10
BRANCH   2  13
ATOM     13  C   UNL     1      -0.001  -0.018   0.169  0.00  0.00    +0.252 C 
ATOM     14  O   UNL     1       1.044  -0.624   0.310  0.00  0.00    -0.270 OA
ATOM     15  N   UNL     1      -1.156  -0.694   0.009  0.00  0.00    -0.281 N 
ATOM     16  H   UNL     1      -1.998  -0.214  -0.027  0.00  0.00    +0.155 HD
BRANCH  15  17
ATOM     17  C   UNL     1      -1.140  -2.090  -0.104  0.00  0.00    +0.036 A 
ATOM     18  C   UNL     1      -2.194  -2.839   0.404  0.00  0.00    +0.027 A 
ATOM     19  C   UNL     1      -2.183  -4.217   0.294  0.00  0.00    +0.049 A 
ATOM     20  C   UNL     1      -1.120  -4.853  -0.324  0.00  0.00    +0.143 A 
ATOM     21  C   UNL     1      -0.061  -4.104  -0.834  0.00  0.00    +0.077 A 
ATOM     22  C   UNL     1      -0.074  -2.723  -0.729  0.00  0.00    +0.050 A 
ATOM     23  N   UNL     1       1.009  -4.763  -1.455  0.00  0.00    -0.279 N 
ATOM     24  C   UNL     1       0.856  -6.052  -1.829  0.00  0.00    +0.258 C 
ATOM     25  O   UNL     1       1.777  -6.651  -2.342  0.00  0.00    -0.271 OA
ATOM     26  C   UNL     1      -0.466  -6.742  -1.608  0.00  0.00    +0.256 C 
ATOM     27  O   UNL     1      -1.097  -6.208  -0.441  0.00  0.00    -0.478 OA
ATOM     28  C   UNL     1      -0.232  -8.242  -1.419  0.00  0.00    +0.062 C 
ATOM     29  H   UNL     1       1.847  -4.301  -1.615  0.00  0.00    +0.155 HD
ENDBRANCH  15  17
ENDBRANCH   2  13
BRANCH   4  30
ATOM     30  C   UNL     1      -1.526   4.734  -0.032  0.00  0.00    +0.178 C 
BRANCH  30  31
ATOM     31  C   UNL     1      -1.324   5.618   1.172  0.00  0.00    -0.026 A 
ATOM     32  C   UNL     1      -2.114   5.450   2.293  0.00  0.00    +0.005 A 
ATOM     33  C   UNL     1      -1.926   6.257   3.400  0.00  0.00    +0.000 A 
ATOM     34  C   UNL     1      -0.954   7.240   3.380  0.00  0.00    +0.000 A 
ATOM     35  C   UNL     1      -0.168   7.412   2.256  0.00  0.00    +0.000 A 
ATOM     36  C   UNL     1      -0.352   6.601   1.153  0.00  0.00    +0.005 A 
ENDBRANCH  30  31
ENDBRANCH   4  30
TORSDOF 5
