REMARK  Name = ZINC35993638
REMARK  9 active torsions:
REMARK  status: ('A' for Active; 'I' for Inactive)
REMARK    1  A    between atoms: C_1  and  C_2
REMARK    2  A    between atoms: C_3  and  C_12
REMARK    3  A    between atoms: N_13  and  N_14
REMARK    4  A    between atoms: C_15  and  C_17
REMARK    5  A    between atoms: C_17  and  C_19
REMARK    6  A    between atoms: C_17  and  C_20
REMARK    7  A    between atoms: C_20  and  C_21
REMARK    8  A    between atoms: C_22  and  C_35
REMARK    9  A    between atoms: C_24  and  C_29
REMARK                            x       y       z     vdW  Elec       q    Type
REMARK                         _______ _______ _______ _____ _____    ______ ____
ROOT
ATOM      1  C   UNL     1      -4.610  -4.314  -0.301  0.00  0.00    +0.078 C 
ATOM      2  C   UNL     1      -4.095  -4.817   1.049  0.00  0.00    +0.017 C 
ENDROOT
BRANCH   1   4
ATOM      3  N   UNL     1      -3.527  -2.100  -0.091  0.00  0.00    -0.207 N 
ATOM      4  C   UNL     1      -4.656  -2.808  -0.292  0.00  0.00    +0.235 C 
ATOM      5  O   UNL     1      -5.710  -2.232  -0.466  0.00  0.00    -0.274 OA
ATOM      6  H   UNL     1      -2.684  -2.561   0.048  0.00  0.00    +0.177 HD
BRANCH   3   8
ATOM      7  C   UNL     1      -2.467  -0.017  -0.021  0.00  0.00    +0.145 C 
ATOM      8  N   UNL     1      -3.570  -0.700  -0.082  0.00  0.00    -0.187 NA
BRANCH   7  11
ATOM      9  C   UNL     1       0.093   0.771   1.049  0.00  0.00    +0.064 C 
ATOM     10  C   UNL     1      -0.004  -0.206  -0.094  0.00  0.00    +0.031 A 
ATOM     11  C   UNL     1      -1.226  -0.569  -0.590  0.00  0.00    +0.078 A 
ATOM     12  C   UNL     1      -1.268  -1.526  -1.707  0.00  0.00    +0.263 A 
ATOM     13  O   UNL     1      -2.331  -1.880  -2.182  0.00  0.00    -0.267 OA
ATOM     14  N   UNL     1      -0.103  -2.004  -2.193  0.00  0.00    -0.275 N 
ATOM     15  H   UNL     1      -0.111  -2.635  -2.929  0.00  0.00    +0.173 HD
ATOM     16  C   UNL     1       1.067  -1.608  -1.663  0.00  0.00    +0.327 A 
ATOM     17  O   UNL     1       2.102  -2.054  -2.119  0.00  0.00    -0.247 OA
ATOM     18  N   UNL     1       1.127  -0.732  -0.647  0.00  0.00    -0.311 N 
ATOM     19  H   UNL     1       1.992  -0.470  -0.297  0.00  0.00    +0.170 HD
ENDBRANCH   7  11
ENDBRANCH   3   8
ENDBRANCH   1   4
BRANCH   1  20
ATOM     20  C   UNL     1      -6.016  -4.866  -0.548  0.00  0.00    +0.055 C 
BRANCH  20  21
ATOM     21  C   UNL     1      -5.951  -6.365  -0.679  0.00  0.00    +0.039 A 
ATOM     22  C   UNL     1      -6.188  -7.167   0.399  0.00  0.00    +0.049 A 
ATOM     23  N   UNL     1      -6.128  -8.491   0.273  0.00  0.00    -0.234 NA
ATOM     24  C   UNL     1      -5.842  -9.059  -0.880  0.00  0.00    +0.141 A 
ATOM     25  N   UNL     1      -5.596  -8.311  -1.992  0.00  0.00    -0.307 N 
ATOM     26  H   UNL     1      -5.386  -8.745  -2.834  0.00  0.00    +0.170 HD
ATOM     27  C   UNL     1      -5.650  -6.964  -1.919  0.00  0.00    +0.255 A 
ATOM     28  O   UNL     1      -5.437  -6.278  -2.905  0.00  0.00    -0.268 OA
ATOM     29  C   UNL     1      -6.518  -6.552   1.734  0.00  0.00    +0.066 C 
BRANCH  24  30
ATOM     30  C   UNL     1      -5.787 -10.533  -0.970  0.00  0.00    +0.017 A 
ATOM     31  C   UNL     1      -5.479 -11.150  -2.183  0.00  0.00    +0.011 A 
ATOM     32  C   UNL     1      -5.429 -12.527  -2.260  0.00  0.00    +0.001 A 
ATOM     33  C   UNL     1      -5.683 -13.295  -1.137  0.00  0.00    +0.000 A 
ATOM     34  C   UNL     1      -5.988 -12.689   0.069  0.00  0.00    +0.001 A 
ATOM     35  C   UNL     1      -6.036 -11.313   0.161  0.00  0.00    +0.011 A 
ENDBRANCH  24  30
ENDBRANCH  20  21
ENDBRANCH   1  20
TORSDOF 6
