REMARK  Name = ZINC15598470
REMARK  7 active torsions:
REMARK  status: ('A' for Active; 'I' for Inactive)
REMARK    1  A    between atoms: C_4  and  C_7
REMARK    2  A    between atoms: C_7  and  N_61
REMARK    3  A    between atoms: C_10  and  N_13
REMARK    4  A    between atoms: C_14  and  C_16
REMARK    5  A    between atoms: N_19  and  C_22
REMARK    6  A    between atoms: C_25  and  C_31
REMARK    7  A    between atoms: C_27  and  N_28
REMARK                            x       y       z     vdW  Elec       q    Type
REMARK                         _______ _______ _______ _____ _____    ______ ____
ROOT
ATOM      1  C   UNL     1       0.738  -0.493  -1.249  0.00  0.00    +0.078 C 
ATOM      2  C   UNL     1       0.002  -0.004   0.002  0.00  0.00    +0.031 C 
ATOM      3  C   UNL     1      -0.019   1.526   0.010  0.00  0.00    +0.106 C 
ATOM      4  N   UNL     1       1.359   2.036   0.000  0.00  0.00    -0.328 N 
ATOM      5  C   UNL     1       2.070   1.619  -1.215  0.00  0.00    +0.106 C 
ATOM      6  C   UNL     1       2.153   0.091  -1.260  0.00  0.00    +0.031 C 
ENDROOT
BRANCH   4   7
ATOM      7  C   UNL     1       1.379   3.425   0.140  0.00  0.00    +0.060 A 
ATOM      8  C   UNL     1       0.747   4.229  -0.800  0.00  0.00    +0.026 A 
ATOM      9  C   UNL     1       0.765   5.602  -0.656  0.00  0.00    +0.014 A 
ATOM     10  C   UNL     1       1.420   6.178   0.417  0.00  0.00    +0.057 A 
ATOM     11  C   UNL     1       2.055   5.381   1.352  0.00  0.00    +0.047 A 
ATOM     12  C   UNL     1       2.036   4.007   1.217  0.00  0.00    +0.148 A 
BRANCH  10  13
ATOM     13  C   UNL     1       1.443   7.677   0.568  0.00  0.00    +0.417 C 
ATOM     14  F   UNL     1       2.561   8.196  -0.094  0.00  0.00    -0.166 F 
ATOM     15  F   UNL     1       0.279   8.220   0.012  0.00  0.00    -0.166 F 
ATOM     16  F   UNL     1       1.509   8.008   1.926  0.00  0.00    -0.166 F 
ENDBRANCH  10  13
BRANCH  12  17
ATOM     17  N   UNL     1       2.716   3.154   2.218  0.00  0.00    +0.058 N 
ATOM     18  O   UNL     1       3.292   3.665   3.162  0.00  0.00    -0.126 OA
ATOM     19  O   UNL     1       2.699   1.942   2.098  0.00  0.00    -0.126 OA
ENDBRANCH  12  17
ENDBRANCH   4   7
BRANCH   1  21
ATOM     20  N   UNL     1       1.421  -2.653  -2.241  0.00  0.00    -0.314 N 
ATOM     21  C   UNL     1       0.814  -1.998  -1.233  0.00  0.00    +0.216 C 
ATOM     22  O   UNL     1       0.328  -2.620  -0.312  0.00  0.00    -0.276 OA
ATOM     23  H   UNL     1       1.810  -2.155  -2.978  0.00  0.00    +0.149 HD
BRANCH  20  26
ATOM     24  C   UNL     1       0.722  -5.527  -4.072  0.00  0.00    -0.077 C 
ATOM     25  C   UNL     1       0.224  -4.723  -2.852  0.00  0.00    +0.002 C 
ATOM     26  C   UNL     1       1.496  -4.116  -2.226  0.00  0.00    +0.055 C 
ATOM     27  C   UNL     1       2.655  -4.604  -3.120  0.00  0.00    -0.056 C 
ATOM     28  N   UNL     1       2.117  -5.816  -3.747  0.00  0.00    +0.384 N 
ATOM     29  H   UNL     1       2.168  -6.604  -3.091  0.00  0.00    -0.081 HD
BRANCH  28  30
ATOM     30  C   UNL     1       2.892  -6.155  -4.982  0.00  0.00    -0.043 C 
BRANCH  30  34
ATOM     31  C   UNL     1       1.581  -9.911  -6.537  0.00  0.00    +0.000 A 
ATOM     32  C   UNL     1       0.962  -8.743  -6.939  0.00  0.00    +0.000 A 
ATOM     33  C   UNL     1       1.386  -7.527  -6.437  0.00  0.00    +0.002 A 
ATOM     34  C   UNL     1       2.429  -7.480  -5.531  0.00  0.00    -0.064 A 
ATOM     35  C   UNL     1       3.052  -8.648  -5.132  0.00  0.00    +0.002 A 
ATOM     36  C   UNL     1       2.625  -9.864  -5.632  0.00  0.00    +0.000 A 
ENDBRANCH  30  34
ENDBRANCH  28  30
ENDBRANCH  20  26
ENDBRANCH   1  21
TORSDOF 7
