REMARK  Name = ZINC14530979
REMARK  10 active torsions:
REMARK  status: ('A' for Active; 'I' for Inactive)
REMARK    1  A    between atoms: C_1  and  C_2
REMARK    2  A    between atoms: C_2  and  C_3
REMARK    3  A    between atoms: C_2  and  N_4
REMARK    4  A    between atoms: N_4  and  S_5
REMARK    5  A    between atoms: S_5  and  C_8
REMARK    6  A    between atoms: C_10  and  C_22
REMARK    7  A    between atoms: C_12  and  N_14
REMARK    8  A    between atoms: N_14  and  C_15
REMARK    9  A    between atoms: C_15  and  C_16
REMARK   10  A    between atoms: N_24  and  C_25
REMARK                            x       y       z     vdW  Elec       q    Type
REMARK                         _______ _______ _______ _____ _____    ______ ____
ROOT
ATOM      1  C   UNL     1      -5.017   1.004   3.530  0.00  0.00    +0.108 A 
ATOM      2  C   UNL     1      -4.607   1.869   4.524  0.00  0.00    +0.041 A 
ATOM      3  C   UNL     1      -3.338   2.449   4.465  0.00  0.00    +0.040 A 
ATOM      4  C   UNL     1      -2.488   2.150   3.401  0.00  0.00    +0.036 A 
ATOM      5  C   UNL     1      -2.909   1.279   2.407  0.00  0.00    +0.030 A 
ATOM      6  C   UNL     1      -4.177   0.712   2.472  0.00  0.00    +0.051 A 
ENDROOT
BRANCH   3   7
ATOM      7  C   UNL     1      -2.897   3.376   5.529  0.00  0.00    +0.245 C 
ATOM      8  O   UNL     1      -3.639   3.635   6.456  0.00  0.00    -0.270 OA
ATOM      9  N   UNL     1      -1.671   3.935   5.470  0.00  0.00    -0.300 N 
ATOM     10  H   UNL     1      -1.079   3.728   4.730  0.00  0.00    +0.150 HD
BRANCH   9  11
ATOM     11  C   UNL     1      -1.234   4.854   6.524  0.00  0.00    +0.159 C 
ATOM     12  C   UNL     1       0.295   4.878   6.583  0.00  0.00    +0.032 C 
ATOM     13  C   UNL     1       0.773   5.296   7.963  0.00  0.00    +0.004 C 
ATOM     14  C   UNL     1       0.442   6.734   8.317  0.00  0.00    +0.019 C 
ATOM     15  C   UNL     1      -1.069   6.925   8.462  0.00  0.00    +0.104 C 
ATOM     16  N   UNL     1      -1.637   7.214   7.135  0.00  0.00    -0.314 N 
ATOM     17  C   UNL     1      -1.725   6.253   6.214  0.00  0.00    +0.233 C 
ATOM     18  O   UNL     1      -2.200   6.500   5.126  0.00  0.00    -0.274 OA
ATOM     19  H   UNL     1      -1.950   8.108   6.929  0.00  0.00    +0.149 HD
ENDBRANCH   9  11
ENDBRANCH   3   7
BRANCH   1  20
ATOM     20  S   UNL     1      -6.619   0.274   3.607  0.00  0.00    +0.059 S 
ATOM     21  O   UNL     1      -6.557  -0.922   2.843  0.00  0.00    -0.153 OA
ATOM     22  O   UNL     1      -7.005   0.286   4.974  0.00  0.00    -0.153 OA
BRANCH  20  23
ATOM     23  N   UNL     1      -7.658   1.290   2.812  0.00  0.00    -0.187 NA
ATOM     24  H   UNL     1      -8.368   1.735   3.300  0.00  0.00    +0.148 HD
BRANCH  23  26
ATOM     25  C   UNL     1      -8.427   0.565   0.607  0.00  0.00    +0.025 C 
ATOM     26  C   UNL     1      -7.505   1.515   1.373  0.00  0.00    +0.070 C 
ATOM     27  C   UNL     1      -7.874   2.963   1.041  0.00  0.00    +0.025 C 
ENDBRANCH  23  26
ENDBRANCH  20  23
ENDBRANCH   1  20
BRANCH   5  28
ATOM     28  N   UNL     1      -2.062   0.977   1.338  0.00  0.00    -0.344 N 
ATOM     29  H   UNL     1      -2.357   0.367   0.643  0.00  0.00    +0.146 HD
BRANCH  28  30
ATOM     30  C   UNL     1      -0.729   1.579   1.267  0.00  0.00    +0.105 C 
BRANCH  30  31
ATOM     31  C   UNL     1      -0.013   1.086   0.008  0.00  0.00    +0.006 C 
ATOM     32  C   UNL     1      -0.753   1.593  -1.232  0.00  0.00    +0.005 C 
ATOM     33  C   UNL     1      -0.037   1.099  -2.490  0.00  0.00    +0.000 C 
ATOM     34  C   UNL     1       1.399   1.629  -2.501  0.00  0.00    +0.000 C 
ATOM     35  C   UNL     1       2.139   1.122  -1.262  0.00  0.00    +0.000 C 
ATOM     36  C   UNL     1       1.423   1.615  -0.003  0.00  0.00    +0.005 C 
ENDBRANCH  30  31
ENDBRANCH  28  30
ENDBRANCH   5  28
TORSDOF 8
