REMARK  Name = ZINC17355880
REMARK  6 active torsions:
REMARK  status: ('A' for Active; 'I' for Inactive)
REMARK    1  A    between atoms: C_1  and  C_2
REMARK    2  A    between atoms: C_2  and  C_4
REMARK    3  A    between atoms: C_2  and  N_14
REMARK    4  A    between atoms: C_15  and  C_17
REMARK    5  A    between atoms: C_19  and  C_23
REMARK    6  A    between atoms: C_23  and  C_25
REMARK                            x       y       z     vdW  Elec       q    Type
REMARK                         _______ _______ _______ _____ _____    ______ ____
ROOT
ATOM      1  N   UNL     1      -2.983   4.124   0.053  0.00  0.00    -0.307 N 
ATOM      2  C   UNL     1      -1.650   4.322   0.042  0.00  0.00    +0.261 C 
ATOM      3  O   UNL     1      -1.203   5.454   0.044  0.00  0.00    -0.269 OA
ATOM      4  H   UNL     1      -3.339   3.222   0.051  0.00  0.00    +0.149 HD
ENDROOT
BRANCH   2   5
ATOM      5  C   UNL     1      -0.736   3.173   0.026  0.00  0.00    +0.102 A 
ATOM      6  C   UNL     1       0.624   3.236   0.013  0.00  0.00    +0.043 A 
ATOM      7  C   UNL     1       1.100   1.902   0.002  0.00  0.00    +0.035 A 
ATOM      8  C   UNL     1      -0.013   1.076   0.008  0.00  0.00    +0.094 A 
ATOM      9  N   UNL     1      -1.111   1.846   0.017  0.00  0.00    -0.356 N 
ATOM     10  H   UNL     1      -2.024   1.520   0.018  0.00  0.00    +0.165 HD
BRANCH   7  11
ATOM     11  C   UNL     1       2.503   1.477  -0.013  0.00  0.00    +0.162 C 
ATOM     12  O   UNL     1       3.389   2.306  -0.017  0.00  0.00    -0.292 OA
ATOM     13  C   UNL     1       2.845   0.009  -0.025  0.00  0.00    +0.091 C 
ENDBRANCH   7  11
ENDBRANCH   2   5
BRANCH   1  15
ATOM     14  C   UNL     1      -4.126   5.757  -1.363  0.00  0.00    +0.028 C 
ATOM     15  C   UNL     1      -3.894   5.271   0.069  0.00  0.00    +0.076 C 
BRANCH  15  16
ATOM     16  C   UNL     1      -5.229   4.854   0.689  0.00  0.00    -0.010 C 
ATOM     17  C   UNL     1      -4.996   4.368   2.121  0.00  0.00    +0.012 C 
ATOM     18  C   UNL     1      -6.331   3.951   2.741  0.00  0.00    -0.010 C 
ATOM     19  C   UNL     1      -7.283   5.149   2.757  0.00  0.00    +0.007 C 
ATOM     20  C   UNL     1      -7.515   5.635   1.325  0.00  0.00    -0.010 C 
ATOM     21  C   UNL     1      -6.180   6.052   0.705  0.00  0.00    +0.012 C 
ATOM     22  C   UNL     1      -8.131   4.505   0.496  0.00  0.00    +0.007 C 
ATOM     23  C   UNL     1      -7.180   3.307   0.480  0.00  0.00    -0.010 C 
ATOM     24  C   UNL     1      -6.947   2.822   1.913  0.00  0.00    +0.007 C 
ATOM     25  C   UNL     1      -5.845   3.725  -0.140  0.00  0.00    +0.012 C 
ENDBRANCH  15  16
ENDBRANCH   1  15
TORSDOF 4
