REMARK  Name = ZINC41987178
REMARK  6 active torsions:
REMARK  status: ('A' for Active; 'I' for Inactive)
REMARK    1  A    between atoms: C_1  and  C_2
REMARK    2  A    between atoms: C_5  and  S_7
REMARK    3  A    between atoms: S_7  and  C_8
REMARK    4  A    between atoms: C_8  and  C_9
REMARK    5  A    between atoms: C_8  and  C_10
REMARK    6  A    between atoms: C_8  and  C_17
REMARK                            x       y       z     vdW  Elec       q    Type
REMARK                         _______ _______ _______ _____ _____    ______ ____
ROOT
ATOM      1  C   UNL     1       0.070  -5.237  -0.738  0.00  0.00    +0.147 C 
ATOM      2  C   UNL     1      -1.159  -4.549  -1.335  0.00  0.00    +0.040 C 
ENDROOT
BRANCH   1   3
ATOM      3  C   UNL     1      -0.055  -6.729  -0.914  0.00  0.00    -0.007 A 
ATOM      4  C   UNL     1      -1.184  -7.263  -1.507  0.00  0.00    +0.006 A 
ATOM      5  C   UNL     1      -1.298  -8.631  -1.669  0.00  0.00    +0.000 A 
ATOM      6  C   UNL     1      -0.284  -9.466  -1.238  0.00  0.00    +0.001 A 
ATOM      7  C   UNL     1       0.845  -8.933  -0.645  0.00  0.00    +0.015 A 
ATOM      8  C   UNL     1       0.962  -7.563  -0.487  0.00  0.00    +0.023 A 
ATOM      9 BR   UNL     1       2.510  -6.833   0.317  0.00  0.00    -0.050 Br
ENDBRANCH   1   3
BRANCH   1  10
ATOM     10  C   UNL     1       1.310  -4.751  -1.442  0.00  0.00    +0.376 C 
ATOM     11  O   UNL     1       2.143  -4.103  -0.831  0.00  0.00    -0.244 OA
ATOM     12  O   UNL     1       1.481  -5.005  -2.622  0.00  0.00    -0.244 OA
ENDBRANCH   1  10
BRANCH   1  13
ATOM     13  S   UNL     1       0.184  -4.845   1.030  0.00  0.00    -0.074 S 
BRANCH  13  18
ATOM     14  C   UNL     1       0.680   0.963   1.942  0.00  0.00    +0.075 C 
ATOM     15  C   UNL     1       0.548  -0.470   1.494  0.00  0.00    +0.100 A 
ATOM     16  N   UNL     1       0.451  -0.972   0.280  0.00  0.00    -0.146 NA
ATOM     17  N   UNL     1       0.344  -2.212   0.072  0.00  0.00    -0.135 NA
ATOM     18  C   UNL     1       0.323  -3.089   1.068  0.00  0.00    +0.160 A 
ATOM     19  S   UNL     1       0.484  -1.976   2.461  0.00  0.00    -0.044 S 
ENDBRANCH  13  18
ENDBRANCH   1  13
TORSDOF 4
