REMARK  Name = ZINC02914525
REMARK  3 active torsions:
REMARK  status: ('A' for Active; 'I' for Inactive)
REMARK    1  A    between atoms: C_3  and  C_10
REMARK    2  A    between atoms: C_5  and  N_7
REMARK    3  A    between atoms: C_13  and  C_21
REMARK                            x       y       z     vdW  Elec       q    Type
REMARK                         _______ _______ _______ _____ _____    ______ ____
ROOT
ATOM      1  C   UNL     1       3.672   2.182  -0.022  0.00  0.00    +0.129 C 
ATOM      2  C   UNL     1       3.966   2.695  -1.441  0.00  0.00    +0.060 C 
ATOM      3  C   UNL     1       5.158   3.651  -1.405  0.00  0.00    +0.141 C 
ATOM      4  N   UNL     1       4.894   4.774  -0.498  0.00  0.00    -0.243 NA
ATOM      5  C   UNL     1       4.155   4.575   0.562  0.00  0.00    +0.232 C 
ATOM      6  N   UNL     1       3.561   3.352   0.849  0.00  0.00    -0.213 N 
ATOM      7  N   UNL     1       2.890   3.514   2.058  0.00  0.00    -0.251 N 
ATOM      8  C   UNL     1       3.066   4.813   2.432  0.00  0.00    +0.203 C 
ATOM      9  N   UNL     1       3.805   5.431   1.545  0.00  0.00    -0.205 NA
ATOM     10  H   UNL     1       2.394   2.834   2.541  0.00  0.00    +0.171 HD
ENDROOT
BRANCH   3  11
ATOM     11  C   UNL     1       5.410   4.184  -2.792  0.00  0.00    -0.023 A 
ATOM     12  C   UNL     1       4.640   5.221  -3.284  0.00  0.00    +0.007 A 
ATOM     13  C   UNL     1       4.871   5.710  -4.556  0.00  0.00    +0.015 A 
ATOM     14  C   UNL     1       5.873   5.162  -5.337  0.00  0.00    +0.018 A 
ATOM     15  C   UNL     1       6.643   4.124  -4.844  0.00  0.00    +0.015 A 
ATOM     16  C   UNL     1       6.415   3.639  -3.570  0.00  0.00    +0.007 A 
ATOM     17 BR   UNL     1       6.189   5.830  -7.077  0.00  0.00    -0.050 Br
ENDBRANCH   3  11
BRANCH   1  20
ATOM     18  C   UNL     1      -0.017   1.378   0.010  0.00  0.00    +0.003 A 
ATOM     19  C   UNL     1       1.171   2.085   0.002  0.00  0.00    +0.005 A 
ATOM     20  C   UNL     1       2.377   1.411  -0.013  0.00  0.00    -0.023 A 
ATOM     21  C   UNL     1       2.396   0.028  -0.020  0.00  0.00    +0.038 A 
ATOM     22  C   UNL     1       1.209  -0.679  -0.012  0.00  0.00    +0.127 A 
ATOM     23  C   UNL     1       0.002  -0.004   0.002  0.00  0.00    +0.033 A 
BRANCH  22  24
ATOM     24  N   UNL     1       1.229  -2.159  -0.020  0.00  0.00    +0.056 N 
ATOM     25  O   UNL     1       2.284  -2.749  -0.035  0.00  0.00    -0.126 OA
ATOM     26  O   UNL     1       0.190  -2.778  -0.013  0.00  0.00    -0.126 OA
ENDBRANCH  22  24
ENDBRANCH   1  20
TORSDOF 3
