REMARK  Name = ZINC24673924
REMARK  17 active torsions:
REMARK  status: ('A' for Active; 'I' for Inactive)
REMARK    1  A    between atoms: C_1  and  C_2
REMARK    2  A    between atoms: C_2  and  C_3
REMARK    3  A    between atoms: C_3  and  C_4
REMARK    4  A    between atoms: C_4  and  N_5
REMARK    5  A    between atoms: N_5  and  C_6
REMARK    6  A    between atoms: C_7  and  N_19
REMARK    7  A    between atoms: N_8  and  C_15
REMARK    8  A    between atoms: C_15  and  C_16
REMARK    9  A    between atoms: C_16  and  C_17
REMARK   10  A    between atoms: C_16  and  C_18
REMARK   11  A    between atoms: C_20  and  C_22
REMARK   12  A    between atoms: C_22  and  N_23
REMARK   13  A    between atoms: N_23  and  C_24
REMARK   14  A    between atoms: N_23  and  C_31
REMARK   15  A    between atoms: C_24  and  C_25
REMARK   16  A    between atoms: C_31  and  C_33
REMARK   17  A    between atoms: C_31  and  C_34
REMARK                            x       y       z     vdW  Elec       q    Type
REMARK                         _______ _______ _______ _____ _____    ______ ____
ROOT
ATOM      1  N   UNL     1      -3.348  -2.473  -0.102  0.00  0.00    -0.266 N 
ATOM      2  C   UNL     1      -3.764  -2.799   1.140  0.00  0.00    +0.203 C 
ATOM      3  O   UNL     1      -4.849  -3.318   1.300  0.00  0.00    -0.277 OA
ENDROOT
BRANCH   1   4
ATOM      4  C   UNL     1      -4.216  -2.637  -1.202  0.00  0.00    +0.140 A 
ATOM      5  C   UNL     1      -3.931  -3.558  -2.190  0.00  0.00    +0.127 A 
ATOM      6  N   UNL     1      -4.796  -3.695  -3.250  0.00  0.00    -0.280 N 
ATOM      7  C   UNL     1      -5.907  -2.940  -3.324  0.00  0.00    +0.331 A 
ATOM      8  O   UNL     1      -6.659  -3.076  -4.270  0.00  0.00    -0.246 OA
ATOM      9  N   UNL     1      -6.201  -2.038  -2.371  0.00  0.00    -0.273 N 
ATOM     10  H   UNL     1      -7.009  -1.506  -2.447  0.00  0.00    +0.173 HD
ATOM     11  C   UNL     1      -5.390  -1.869  -1.308  0.00  0.00    +0.277 A 
ATOM     12  O   UNL     1      -5.669  -1.051  -0.447  0.00  0.00    -0.266 OA
BRANCH   5  13
ATOM     13  N   UNL     1      -2.796  -4.329  -2.115  0.00  0.00    -0.343 N 
ATOM     14  H   UNL     1      -2.153  -4.178  -1.404  0.00  0.00    +0.144 HD
ATOM     15  H   UNL     1      -2.637  -5.024  -2.773  0.00  0.00    +0.144 HD
ENDBRANCH   5  13
BRANCH   6  16
ATOM     16  C   UNL     1      -4.506  -4.669  -4.306  0.00  0.00    +0.131 C 
BRANCH  16  17
ATOM     17  C   UNL     1      -5.137  -6.015  -3.945  0.00  0.00    +0.003 C 
ATOM     18  C   UNL     1      -6.661  -5.876  -3.930  0.00  0.00    +0.009 C 
ATOM     19  C   UNL     1      -4.731  -7.063  -4.983  0.00  0.00    +0.009 C 
ENDBRANCH  16  17
ENDBRANCH   6  16
ENDBRANCH   1   4
BRANCH   1  20
ATOM     20  C   UNL     1      -1.995  -1.950  -0.307  0.00  0.00    +0.114 C 
BRANCH  20  21
ATOM     21  C   UNL     1      -2.035  -0.420  -0.307  0.00  0.00    +0.019 C 
BRANCH  21  23
ATOM     22  C   UNL     1      -0.662   1.656  -0.522  0.00  0.00    +0.004 C 
ATOM     23  C   UNL     1      -0.623   0.127  -0.522  0.00  0.00    -0.002 C 
ENDBRANCH  21  23
ENDBRANCH  20  21
ENDBRANCH   1  20
BRANCH   2  24
ATOM     24  C   UNL     1      -2.881  -2.518   2.328  0.00  0.00    +0.020 C 
BRANCH  24  25
ATOM     25  N   UNL     1      -3.496  -3.078   3.539  0.00  0.00    +0.390 N 
ATOM     26  H   UNL     1      -4.438  -2.729   3.630  0.00  0.00    -0.080 HD
BRANCH  25  27
ATOM     27  C   UNL     1      -3.524  -4.543   3.441  0.00  0.00    -0.067 C 
ATOM     28  C   UNL     1      -4.586  -5.098   4.392  0.00  0.00    -0.013 C 
BRANCH  27  29
ATOM     29  C   UNL     1      -2.154  -5.106   3.823  0.00  0.00    -0.025 C 
ATOM     30  C   UNL     1      -1.259  -5.617   2.691  0.00  0.00    +0.002 C 
ATOM     31  C   UNL     1      -1.932  -6.609   3.642  0.00  0.00    +0.002 C 
ENDBRANCH  27  29
ENDBRANCH  25  27
BRANCH  25  32
ATOM     32  C   UNL     1      -2.711  -2.681   4.715  0.00  0.00    -0.042 C 
BRANCH  32  33
ATOM     33  C   UNL     1      -3.424  -3.123   5.967  0.00  0.00    -0.064 A 
ATOM     34  C   UNL     1      -4.504  -2.401   6.440  0.00  0.00    +0.002 A 
ATOM     35  C   UNL     1      -5.158  -2.807   7.588  0.00  0.00    +0.000 A 
ATOM     36  C   UNL     1      -4.732  -3.936   8.264  0.00  0.00    +0.000 A 
ATOM     37  C   UNL     1      -3.653  -4.658   7.791  0.00  0.00    +0.000 A 
ATOM     38  C   UNL     1      -3.002  -4.255   6.640  0.00  0.00    +0.002 A 
ENDBRANCH  32  33
ENDBRANCH  25  32
ENDBRANCH  24  25
ENDBRANCH   2  24
TORSDOF 13
