REMARK  Name = ZINC35361193
REMARK  11 active torsions:
REMARK  status: ('A' for Active; 'I' for Inactive)
REMARK    1  A    between atoms: C_1  and  C_2
REMARK    2  A    between atoms: N_6  and  O_7
REMARK    3  A    between atoms: O_7  and  C_8
REMARK    4  A    between atoms: C_8  and  C_9
REMARK    5  A    between atoms: N_11  and  CA_12
REMARK    6  A    between atoms: CA_12  and  CB_14
REMARK    7  A    between atoms: CA_12  and  C_21
REMARK    8  A    between atoms: CB_14  and  CG_15
REMARK    9  A    between atoms: C_34  and  C_43
REMARK   10  A    between atoms: C_39  and  C_40
REMARK   11  A    between atoms: C_39  and  O_42
REMARK                            x       y       z     vdW  Elec       q    Type
REMARK                         _______ _______ _______ _____ _____    ______ ____
ROOT
ATOM      1  C   UNK A   0      -0.019   1.526   0.010  0.00  0.00    +0.016 C 
ATOM      2  C   UNK A   0       0.002  -0.004   0.002  0.00  0.00    -0.007 C 
ATOM      3  C   UNK A   0      -1.436  -0.459   0.038  0.00  0.00    +0.017 C 
ATOM      4  C   UNK A   0      -1.600  -1.812   0.730  0.00  0.00    +0.059 C 
ATOM      5  C   UNK A   0      -0.984  -1.696   2.112  0.00  0.00    +0.080 C 
ATOM      6  N   UNK A   0      -1.632  -2.034   3.182  0.00  0.00    -0.089 NA
ATOM      7  C   UNK A   0       0.397  -1.178   2.165  0.00  0.00    +0.026 C 
ATOM      8  C   UNK A   0       0.841  -0.429   1.166  0.00  0.00    -0.062 C 
ATOM      9  C   UNK A   0       2.295   0.015   1.176  0.00  0.00    +0.031 C 
ATOM     10  C   UNK A   0       2.920  -0.422  -0.153  0.00  0.00    +0.008 C 
ATOM     11  C   UNK A   0       2.109   0.137  -1.323  0.00  0.00    -0.003 C 
ATOM     12  C   UNK A   0       0.686  -0.423  -1.301  0.00  0.00    +0.002 C 
ATOM     13  C   UNK A   0      -0.089   0.173  -2.481  0.00  0.00    +0.005 C 
ATOM     14  C   UNK A   0       0.567  -0.280  -3.781  0.00  0.00    +0.011 C 
ATOM     15  C   UNK A   0       2.002   0.247  -3.873  0.00  0.00    +0.011 C 
ATOM     16  C   UNK A   0       2.807  -0.163  -2.628  0.00  0.00    +0.002 C 
ATOM     17  C   UNK A   0       3.049  -1.670  -2.837  0.00  0.00    +0.008 C 
ATOM     18  C   UNK A   0       3.335  -1.782  -4.352  0.00  0.00    +0.049 C 
ATOM     19  C   UNK A   0       2.694  -0.547  -5.013  0.00  0.00    +0.132 C 
ATOM     20  C   UNK A   0       2.039   1.756  -4.120  0.00  0.00    +0.015 C 
ENDROOT
BRANCH  19  21
ATOM     21  C   UNK A   0       3.731   0.281  -5.649  0.00  0.00    -0.070 C 
ATOM     22  C   UNK A   0       4.559   0.942  -6.156  0.00  0.00    +0.007 C 
ENDBRANCH  19  21
BRANCH  19  23
ATOM     23  O   UNK A   0       1.728  -0.956  -5.983  0.00  0.00    -0.376 OA
ATOM     24  H   UNK A   0       2.100  -1.457  -6.722  0.00  0.00    +0.211 HD
ENDBRANCH  19  23
BRANCH   6  25
ATOM     25  O   UNK A   0      -2.955  -2.528   3.082  0.00  0.00    -0.384 OA
BRANCH  25  26
ATOM     26  C   UNK A   0      -3.548  -2.860   4.339  0.00  0.00    +0.358 C 
BRANCH  26  27
ATOM     27  C   UNK A   0      -4.947  -3.372   4.115  0.00  0.00    +0.254 C 
ATOM     28  O   UNK A   0      -5.394  -3.445   2.990  0.00  0.00    -0.272 OA
ATOM     29  N   HIS A   1      -5.703  -3.749   5.166  0.00  0.00    -0.299 N 
ATOM     30  H   HIS A   1      -5.346  -3.690   6.066  0.00  0.00    +0.150 HD
BRANCH  29  31
ATOM     31  CA  HIS A   1      -7.064  -4.246   4.948  0.00  0.00    +0.192 C 
BRANCH  31  32
ATOM     32  C   HIS A   1      -7.016  -5.720   4.638  0.00  0.00    +0.376 C 
ATOM     33  O   HIS A   1      -5.976  -6.340   4.780  0.00  0.00    -0.244 OA
ATOM     34  OXT HIS A   1      -8.018  -6.294   4.246  0.00  0.00    -0.244 OA
ENDBRANCH  31  32
BRANCH  31  35
ATOM     35  CB  HIS A   1      -7.899  -4.017   6.210  0.00  0.00    +0.088 C 
BRANCH  35  36
ATOM     36  CG  HIS A   1      -8.049  -2.537   6.450  0.00  0.00    +0.035 A 
ATOM     37  CD2 HIS A   1      -7.178  -1.735   7.091  0.00  0.00    +0.105 A 
ATOM     38  NE2 HIS A   1      -7.681  -0.492   7.092  0.00  0.00    -0.352 N 
ATOM     39  HD1 HIS A   1      -9.881  -2.038   5.564  0.00  0.00    +0.166 HD
ATOM     40  CE1 HIS A   1      -8.831  -0.493   6.475  0.00  0.00    +0.171 A 
ATOM     41  ND1 HIS A   1      -9.095  -1.748   6.054  0.00  0.00    -0.350 N 
ATOM     42  HE2 HIS A   1      -7.257   0.285   7.488  0.00  0.00    +0.166 HD
ENDBRANCH  35  36
ENDBRANCH  31  35
ENDBRANCH  29  31
ENDBRANCH  26  27
ENDBRANCH  25  26
ENDBRANCH   6  25
TORSDOF 9
