REMARK  Name = ZINC65181720
REMARK  9 active torsions:
REMARK  status: ('A' for Active; 'I' for Inactive)
REMARK    1  A    between atoms: C_1  and  C_2
REMARK    2  A    between atoms: C_2  and  C_3
REMARK    3  A    between atoms: C_2  and  C_4
REMARK    4  A    between atoms: C_4  and  N_5
REMARK    5  A    between atoms: N_8  and  N_9
REMARK    6  A    between atoms: C_10  and  C_12
REMARK    7  A    between atoms: C_12  and  C_13
REMARK    8  A    between atoms: C_13  and  N_14
REMARK    9  A    between atoms: C_15  and  C_17
REMARK                            x       y       z     vdW  Elec       q    Type
REMARK                         _______ _______ _______ _____ _____    ______ ____
ROOT
ATOM      1  C   UNL     1      -3.193   1.742  -5.740  0.00  0.00    +0.116 C 
ENDROOT
BRANCH   1   3
ATOM      2  N   UNL     1      -3.316   0.589  -3.555  0.00  0.00    -0.233 N 
ATOM      3  C   UNL     1      -3.934   0.943  -4.699  0.00  0.00    +0.231 C 
ATOM      4  O   UNL     1      -5.087   0.620  -4.891  0.00  0.00    -0.274 OA
ATOM      5  H   UNL     1      -2.394   0.848  -3.402  0.00  0.00    +0.173 HD
BRANCH   2   9
ATOM      6  N   UNL     1      -2.105  -0.148  -1.230  0.00  0.00    -0.298 N 
ATOM      7  C   UNL     1      -3.387  -0.508  -1.443  0.00  0.00    +0.316 C 
ATOM      8  O   UNL     1      -3.985  -1.153  -0.604  0.00  0.00    -0.251 OA
ATOM      9  N   UNL     1      -4.005  -0.154  -2.587  0.00  0.00    -0.218 N 
ATOM     10  H   UNL     1      -1.628   0.366  -1.901  0.00  0.00    +0.150 HD
ATOM     11  H   UNL     1      -4.927  -0.413  -2.741  0.00  0.00    +0.174 HD
BRANCH   6  12
ATOM     12  C   UNL     1      -1.433  -0.534   0.013  0.00  0.00    +0.108 C 
BRANCH  12  14
ATOM     13  C   UNL     1      -0.019   1.526   0.010  0.00  0.00    +0.009 C 
ATOM     14  C   UNL     1       0.002  -0.004   0.002  0.00  0.00    -0.000 C 
ATOM     15  C   UNL     1       0.742  -0.511   1.242  0.00  0.00    +0.009 C 
ENDBRANCH  12  14
ENDBRANCH   6  12
ENDBRANCH   2   9
ENDBRANCH   1   3
BRANCH   1  16
ATOM     16  C   UNL     1      -4.116   2.009  -6.931  0.00  0.00    +0.113 C 
BRANCH  16  17
ATOM     17  N   UNL     1      -3.395   2.785  -7.943  0.00  0.00    -0.314 N 
ATOM     18  C   UNL     1      -4.013   3.140  -9.086  0.00  0.00    +0.219 C 
ATOM     19  O   UNL     1      -5.167   2.816  -9.278  0.00  0.00    -0.275 OA
ATOM     20  H   UNL     1      -2.473   3.045  -7.789  0.00  0.00    +0.149 HD
BRANCH  18  21
ATOM     21  C   UNL     1      -3.272   3.939 -10.127  0.00  0.00    +0.048 C 
ATOM     22  C   UNL     1      -2.821   5.270  -9.523  0.00  0.00    +0.019 C 
ATOM     23  C   UNL     1      -2.069   6.081 -10.580  0.00  0.00    -0.009 C 
ATOM     24  C   UNL     1      -2.991   6.348 -11.771  0.00  0.00    +0.007 C 
ATOM     25  C   UNL     1      -3.442   5.017 -12.375  0.00  0.00    -0.009 C 
ATOM     26  C   UNL     1      -4.195   4.206 -11.318  0.00  0.00    +0.019 C 
ATOM     27  C   UNL     1      -2.218   4.229 -12.845  0.00  0.00    +0.007 C 
ATOM     28  C   UNL     1      -1.295   3.962 -11.655  0.00  0.00    -0.009 C 
ATOM     29  C   UNL     1      -0.844   5.293 -11.050  0.00  0.00    +0.007 C 
ATOM     30  C   UNL     1      -2.048   3.151 -10.598  0.00  0.00    +0.019 C 
ENDBRANCH  18  21
ENDBRANCH  16  17
ENDBRANCH   1  16
TORSDOF 7
