REMARK  Name = ZINC40002440
REMARK  7 active torsions:
REMARK  status: ('A' for Active; 'I' for Inactive)
REMARK    1  A    between atoms: C_1  and  C_2
REMARK    2  A    between atoms: C_7  and  N_12
REMARK    3  A    between atoms: C_9  and  C_11
REMARK    4  A    between atoms: C_13  and  C_15
REMARK    5  A    between atoms: C_15  and  C_17
REMARK    6  A    between atoms: C_15  and  S_18
REMARK    7  A    between atoms: S_18  and  C_19
REMARK                            x       y       z     vdW  Elec       q    Type
REMARK                         _______ _______ _______ _____ _____    ______ ____
ROOT
ATOM      1  C   UNL     1      -2.287  -4.298   1.743  0.00  0.00    +0.133 C 
ATOM      2  C   UNL     1      -2.607  -4.930   0.388  0.00  0.00    +0.029 C 
ENDROOT
BRANCH   1   4
ATOM      3  N   UNL     1      -0.612  -2.548   1.244  0.00  0.00    -0.311 N 
ATOM      4  C   UNL     1      -0.873  -3.776   1.733  0.00  0.00    +0.226 C 
ATOM      5  O   UNL     1       0.030  -4.462   2.164  0.00  0.00    -0.275 OA
ATOM      6  H   UNL     1      -1.333  -2.000   0.898  0.00  0.00    +0.149 HD
BRANCH   3  12
ATOM      7  C   UNL     1      -0.019   1.526   0.010  0.00  0.00    +0.008 C 
ATOM      8  C   UNL     1       0.002  -0.004   0.002  0.00  0.00    -0.009 C 
ATOM      9  C   UNL     1       0.718  -0.497  -1.257  0.00  0.00    +0.003 C 
ATOM     10  C   UNL     1       0.739  -2.027  -1.265  0.00  0.00    +0.002 C 
ATOM     11  C   UNL     1       1.479  -2.534  -0.026  0.00  0.00    +0.022 C 
ATOM     12  C   UNL     1       0.763  -2.041   1.233  0.00  0.00    +0.076 C 
ATOM     13  C   UNL     1       0.742  -0.511   1.242  0.00  0.00    +0.009 C 
ATOM     14  C   UNL     1       0.026  -0.018   2.500  0.00  0.00    +0.009 C 
ENDBRANCH   3  12
ENDBRANCH   1   4
BRANCH   1  15
ATOM     15  S   UNL     1      -2.461  -5.545   3.049  0.00  0.00    -0.098 S 
BRANCH  15  16
ATOM     16  C   UNL     1      -4.228  -5.955   3.031  0.00  0.00    +0.290 C 
ATOM     17  N   UNL     1      -4.897  -5.410   4.223  0.00  0.00    -0.147 NA
ATOM     18  N   UNL     1      -5.364  -6.347   4.873  0.00  0.00    -0.112 NA
ATOM     19  C   UNL     1      -5.134  -7.572   4.316  0.00  0.00    +0.253 A 
ATOM     20  N   UNL     1      -4.423  -7.405   3.148  0.00  0.00    -0.274 N 
ATOM     21  C   UNL     1      -4.203  -8.644   2.604  0.00  0.00    +0.073 A 
ATOM     22  C   UNL     1      -3.559  -9.103   1.461  0.00  0.00    +0.028 A 
ATOM     23  C   UNL     1      -3.515 -10.454   1.195  0.00  0.00    +0.002 A 
ATOM     24  C   UNL     1      -4.110 -11.363   2.061  0.00  0.00    +0.002 A 
ATOM     25  C   UNL     1      -4.749 -10.934   3.188  0.00  0.00    +0.030 A 
ATOM     26  C   UNL     1      -4.807  -9.566   3.482  0.00  0.00    +0.091 A 
ATOM     27  N   UNL     1      -5.352  -8.857   4.498  0.00  0.00    -0.209 NA
ENDBRANCH  15  16
ENDBRANCH   1  15
TORSDOF 4
