REMARK  Name = ZINC02449566
REMARK  12 active torsions:
REMARK  status: ('A' for Active; 'I' for Inactive)
REMARK    1  A    between atoms: C_1  and  C_2
REMARK    2  A    between atoms: C_2  and  O_3
REMARK    3  A    between atoms: O_3  and  C_4
REMARK    4  A    between atoms: C_4  and  C_6
REMARK    5  A    between atoms: C_7  and  C_39
REMARK    6  A    between atoms: N_8  and  C_38
REMARK    7  A    between atoms: C_11  and  N_17
REMARK    8  A    between atoms: C_12  and  O_15
REMARK    9  A    between atoms: O_15  and  C_16
REMARK   10  A    between atoms: C_18  and  C_20
REMARK   11  A    between atoms: C_20  and  N_75
REMARK   12  A    between atoms: C_27  and  C_37
REMARK                            x       y       z     vdW  Elec       q    Type
REMARK                         _______ _______ _______ _____ _____    ______ ____
ROOT
ATOM      1  N   UNL     1      -4.692   2.673   2.801  0.00  0.00    -0.284 N 
ATOM      2  C   UNL     1      -5.750   3.239   3.413  0.00  0.00    +0.201 C 
ATOM      3  O   UNL     1      -5.602   3.821   4.467  0.00  0.00    -0.278 OA
ATOM      4  H   UNL     1      -4.797   2.265   1.927  0.00  0.00    +0.155 HD
ENDROOT
BRANCH   1  10
ATOM      5  C   UNL     1      -2.415   4.685   2.053  0.00  0.00    +0.089 A 
ATOM      6  C   UNL     1      -1.171   5.239   2.145  0.00  0.00    +0.030 A 
ATOM      7  N   UNL     1      -0.456   4.601   3.102  0.00  0.00    -0.346 N 
ATOM      8  C   UNL     1      -1.207   3.594   3.675  0.00  0.00    +0.052 A 
ATOM      9  C   UNL     1      -2.462   3.596   3.046  0.00  0.00    +0.039 A 
ATOM     10  C   UNL     1      -3.438   2.672   3.427  0.00  0.00    +0.086 A 
ATOM     11  C   UNL     1      -3.158   1.754   4.430  0.00  0.00    +0.142 A 
ATOM     12  C   UNL     1      -1.914   1.757   5.049  0.00  0.00    +0.049 A 
ATOM     13  C   UNL     1      -0.946   2.666   4.678  0.00  0.00    +0.030 A 
ATOM     14  C   UNL     1       0.921   4.933   3.477  0.00  0.00    +0.149 C 
ATOM     15  C   UNL     1      -0.670   6.391   1.312  0.00  0.00    +0.064 C 
BRANCH   5  16
ATOM     16  C   UNL     1      -3.492   5.092   1.144  0.00  0.00    +0.342 C 
ATOM     17  O   UNL     1      -3.584   4.583   0.044  0.00  0.00    -0.245 OA
BRANCH  16  18
ATOM     18  O   UNL     1      -4.381   6.031   1.529  0.00  0.00    -0.461 OA
BRANCH  18  20
ATOM     19  C   UNL     1      -6.325   7.456   1.188  0.00  0.00    +0.048 C 
ATOM     20  C   UNL     1      -5.420   6.384   0.579  0.00  0.00    +0.229 C 
ENDBRANCH  18  20
ENDBRANCH  16  18
ENDBRANCH   5  16
BRANCH  11  21
ATOM     21  O   UNL     1      -4.102   0.851   4.807  0.00  0.00    -0.493 OA
ATOM     22  C   UNL     1      -3.747  -0.064   5.846  0.00  0.00    +0.277 C 
ENDBRANCH  11  21
ENDBRANCH   1  10
BRANCH   2  23
ATOM     23  C   UNL     1      -7.119   3.151   2.787  0.00  0.00    +0.020 C 
BRANCH  23  40
ATOM     24  C   UNL     1      -7.823   5.286   3.688  0.00  0.00    -0.055 C 
ATOM     25  C   UNL     1      -8.569   5.956   4.848  0.00  0.00    +0.103 C 
ATOM     26  N   UNL     1      -9.975   5.525   4.801  0.00  0.00    -0.347 N 
ATOM     27  C   UNL     1     -11.073   6.036   5.424  0.00  0.00    +0.049 A 
ATOM     28  C   UNL     1     -11.239   7.131   6.270  0.00  0.00    +0.026 A 
ATOM     29  C   UNL     1     -12.515   7.377   6.744  0.00  0.00    +0.005 A 
ATOM     30  C   UNL     1     -13.595   6.579   6.404  0.00  0.00    -0.050 A 
ATOM     31  C   UNL     1     -13.467   5.495   5.572  0.00  0.00    +0.013 A 
ATOM     32  C   UNL     1     -12.189   5.220   5.073  0.00  0.00    +0.003 A 
ATOM     33  C   UNL     1     -11.677   4.201   4.197  0.00  0.00    -0.020 A 
ATOM     34  C   UNL     1     -10.359   4.445   4.057  0.00  0.00    +0.009 A 
ATOM     35  C   UNL     1      -9.474   3.583   3.185  0.00  0.00    -0.020 C 
ATOM     36  C   UNL     1      -9.856   2.130   3.412  0.00  0.00    -0.009 C 
ATOM     37  C   UNL     1     -11.330   1.843   3.563  0.00  0.00    +0.003 C 
ATOM     38  C   UNL     1     -12.279   3.029   3.472  0.00  0.00    +0.037 C 
ATOM     39  C   UNL     1     -14.954   6.912   6.964  0.00  0.00    +0.044 C 
ATOM     40  N   UNL     1      -8.092   3.832   3.667  0.00  0.00    +0.392 N 
ATOM     41  H   UNL     1      -7.998   3.461   4.620  0.00  0.00    -0.080 HD
ENDBRANCH  23  40
ENDBRANCH   2  23
TORSDOF 7
