REMARK  Name = ZINC13521666
REMARK  9 active torsions:
REMARK  status: ('A' for Active; 'I' for Inactive)
REMARK    1  A    between atoms: C_1  and  C_2
REMARK    2  A    between atoms: C_4  and  O_31
REMARK    3  A    between atoms: C_8  and  C_21
REMARK    4  A    between atoms: C_14  and  C_19
REMARK    5  A    between atoms: C_14  and  C_20
REMARK    6  A    between atoms: C_24  and  O_29
REMARK    7  A    between atoms: C_25  and  O_27
REMARK    8  A    between atoms: O_27  and  C_28
REMARK    9  A    between atoms: O_29  and  C_30
REMARK                            x       y       z     vdW  Elec       q    Type
REMARK                         _______ _______ _______ _____ _____    ______ ____
ROOT
ATOM      1  C   UNL     1      -0.590   0.971  -0.978  0.00  0.00    +0.044 C 
ATOM      2  C   UNL     1      -0.499  -0.514  -0.738  0.00  0.00    -0.040 A 
ATOM      3  C   UNL     1      -0.690  -1.391  -1.787  0.00  0.00    +0.049 A 
ATOM      4  C   UNL     1      -0.607  -2.759  -1.569  0.00  0.00    +0.121 A 
ATOM      5  C   UNL     1      -0.331  -3.240  -0.299  0.00  0.00    +0.091 A 
ATOM      6  C   UNL     1      -0.137  -2.354   0.755  0.00  0.00    +0.131 A 
ATOM      7  C   UNL     1      -0.220  -0.991   0.532  0.00  0.00    +0.005 A 
ATOM      8  C   UNL     1      -0.025   0.003   1.650  0.00  0.00    +0.058 C 
ATOM      9  C   UNL     1       0.695  -0.673   2.820  0.00  0.00    +0.081 C 
ATOM     10  C   UNL     1      -0.001  -2.005   3.110  0.00  0.00    +0.180 C 
ATOM     11  O   UNL     1       0.141  -2.863   1.984  0.00  0.00    -0.468 OA
ATOM     12  C   UNL     1      -1.487  -1.761   3.388  0.00  0.00    +0.096 C 
ATOM     13  C   UNL     1      -2.163  -3.104   3.673  0.00  0.00    +0.040 C 
ATOM     14  N   UNL     1      -1.407  -3.856   4.670  0.00  0.00    -0.362 N 
ATOM     15  C   UNL     1      -0.095  -3.625   4.931  0.00  0.00    +0.142 C 
ATOM     16  N   UNL     1       0.595  -2.627   4.297  0.00  0.00    -0.288 N 
ATOM     17  S   UNL     1       0.691  -4.574   6.043  0.00  0.00    -0.016 SA
ATOM     18  C   UNL     1      -3.579  -2.856   4.195  0.00  0.00    +0.034 C 
ATOM     19  C   UNL     1      -2.238  -3.916   2.378  0.00  0.00    +0.034 C 
ATOM     20  H   UNL     1       1.460  -2.337   4.627  0.00  0.00    +0.152 HD
ATOM     21  H   UNL     1      -1.863  -4.552   5.169  0.00  0.00    +0.162 HD
ENDROOT
BRANCH   8  22
ATOM     22  C   UNL     1       0.802   1.160   1.154  0.00  0.00    -0.036 A 
ATOM     23  C   UNL     1       0.350   2.455   1.326  0.00  0.00    +0.008 A 
ATOM     24  C   UNL     1       1.106   3.521   0.873  0.00  0.00    +0.050 A 
ATOM     25  C   UNL     1       2.319   3.292   0.244  0.00  0.00    +0.162 A 
ATOM     26  C   UNL     1       2.774   1.988   0.070  0.00  0.00    +0.162 A 
ATOM     27  C   UNL     1       2.014   0.925   0.532  0.00  0.00    +0.053 A 
BRANCH  26  28
ATOM     28  O   UNL     1       3.965   1.758  -0.546  0.00  0.00    -0.491 OA
ATOM     29  C   UNL     1       4.368   0.395  -0.689  0.00  0.00    +0.277 C 
ENDBRANCH  26  28
BRANCH  25  30
ATOM     30  O   UNL     1       3.063   4.338  -0.203  0.00  0.00    -0.491 OA
ATOM     31  C   UNL     1       2.534   5.648   0.009  0.00  0.00    +0.277 C 
ENDBRANCH  25  30
ENDBRANCH   8  22
BRANCH   4  32
ATOM     32  O   UNL     1      -0.797  -3.626  -2.598  0.00  0.00    -0.507 OA
ATOM     33  H   UNL     1       0.012  -3.853  -3.076  0.00  0.00    +0.292 HD
ENDBRANCH   4  32
TORSDOF 4
