REMARK  Name = ZINC33665923
REMARK  8 active torsions:
REMARK  status: ('A' for Active; 'I' for Inactive)
REMARK    1  A    between atoms: C_1  and  C_2
REMARK    2  A    between atoms: C_2  and  C_3
REMARK    3  A    between atoms: C_3  and  C_5
REMARK    4  A    between atoms: C_3  and  N_6
REMARK    5  A    between atoms: C_7  and  C_9
REMARK    6  A    between atoms: N_17  and  S_20
REMARK    7  A    between atoms: S_20  and  C_23
REMARK    8  A    between atoms: C_27  and  N_29
REMARK                            x       y       z     vdW  Elec       q    Type
REMARK                         _______ _______ _______ _____ _____    ______ ____
ROOT
ATOM      1  C   UNL     1      -0.871   1.654  -1.161  0.00  0.00    +0.028 C 
ATOM      2  C   UNL     1      -0.013   1.086   0.008  0.00  0.00    +0.061 C 
ATOM      3  S   UNL     1      -1.005   1.745   1.423  0.00  0.00    -0.174 S 
ATOM      4  C   UNL     1      -1.617   3.263   0.584  0.00  0.00    -0.016 C 
ATOM      5  N   UNL     1      -1.363   2.998  -0.842  0.00  0.00    +0.397 N 
ATOM      6  C   UNL     1      -3.105   3.432   0.854  0.00  0.00    +0.015 C 
ATOM      7  C   UNL     1      -3.615   4.688   0.136  0.00  0.00    +0.109 C 
ATOM      8  N   UNL     1      -2.774   5.828   0.526  0.00  0.00    -0.177 NA
ATOM      9  C   UNL     1      -1.319   5.729   0.351  0.00  0.00    +0.109 C 
ATOM     10  C   UNL     1      -0.822   4.467   1.068  0.00  0.00    +0.015 C 
ATOM     11  H   UNL     1      -0.624   3.745  -1.167  0.00  0.00    -0.083 HD
ATOM     12  H   UNL     1      -2.315   3.173  -1.363  0.00  0.00    -0.083 HD
ENDROOT
BRANCH   1  14
ATOM     13  N   UNL     1       0.488   0.587  -2.932  0.00  0.00    -0.314 N 
ATOM     14  C   UNL     1      -0.029   1.717  -2.409  0.00  0.00    +0.200 C 
ATOM     15  O   UNL     1       0.184   2.785  -2.944  0.00  0.00    -0.278 OA
ATOM     16  H   UNL     1       0.296  -0.381  -2.446  0.00  0.00    +0.149 HD
BRANCH  13  17
ATOM     17  C   UNL     1       1.307   0.649  -4.145  0.00  0.00    +0.070 C 
ATOM     18  C   UNL     1       2.756   0.963  -3.767  0.00  0.00    +0.028 C 
BRANCH  17  20
ATOM     19  C   UNL     1      -0.178  -0.955  -5.355  0.00  0.00    +0.005 C 
ATOM     20  C   UNL     1       1.249  -0.699  -4.868  0.00  0.00    +0.018 C 
ENDBRANCH  17  20
ENDBRANCH  13  17
ENDBRANCH   1  14
BRANCH   8  21
ATOM     21  S   UNL     1      -3.455   7.201   1.153  0.00  0.00    +0.061 S 
ATOM     22  O   UNL     1      -4.706   6.816   1.709  0.00  0.00    -0.153 OA
ATOM     23  O   UNL     1      -2.446   7.841   1.921  0.00  0.00    -0.153 OA
BRANCH  21  24
ATOM     24  C   UNL     1      -3.813   8.270  -0.200  0.00  0.00    +0.108 A 
ATOM     25  C   UNL     1      -5.040   8.197  -0.834  0.00  0.00    +0.030 A 
ATOM     26  C   UNL     1      -5.321   9.035  -1.895  0.00  0.00    +0.024 A 
ATOM     27  C   UNL     1      -4.374   9.948  -2.325  0.00  0.00    +0.071 A 
ATOM     28  C   UNL     1      -3.147  10.021  -1.691  0.00  0.00    +0.146 A 
ATOM     29  C   UNL     1      -2.869   9.186  -0.625  0.00  0.00    +0.062 A 
ATOM     30 CL   UNL     1      -4.726  11.002  -3.659  0.00  0.00    -0.081 Cl
BRANCH  28  31
ATOM     31  N   UNL     1      -2.134  10.998  -2.150  0.00  0.00    +0.058 N 
ATOM     32  O   UNL     1      -1.053  11.062  -1.592  0.00  0.00    -0.126 OA
ATOM     33  O   UNL     1      -2.380  11.737  -3.086  0.00  0.00    -0.126 OA
ENDBRANCH  28  31
ENDBRANCH  21  24
ENDBRANCH   8  21
TORSDOF 6
