REMARK  Name = ZINC14199755
REMARK  6 active torsions:
REMARK  status: ('A' for Active; 'I' for Inactive)
REMARK    1  A    between atoms: C_1  and  C_2
REMARK    2  A    between atoms: C_3  and  C_12
REMARK    3  A    between atoms: C_9  and  C_10
REMARK    4  A    between atoms: C_13  and  C_14
REMARK    5  A    between atoms: N_16  and  C_29
REMARK    6  A    between atoms: C_18  and  C_19
REMARK                            x       y       z     vdW  Elec       q    Type
REMARK                         _______ _______ _______ _____ _____    ______ ____
ROOT
ATOM      1  C   UNL     1      -4.915  -0.404   0.709  0.00  0.00    +0.021 A 
ATOM      2  C   UNL     1      -5.837  -1.391   0.432  0.00  0.00    +0.123 A 
ATOM      3  N   UNL     1      -5.235  -2.310  -0.351  0.00  0.00    -0.239 N 
ATOM      4  N   UNL     1      -3.914  -1.924  -0.596  0.00  0.00    -0.166 NA
ATOM      5  C   UNL     1      -3.679  -0.784   0.018  0.00  0.00    +0.100 A 
ENDROOT
BRANCH   5   6
ATOM      6  C   UNL     1      -2.404  -0.029   0.016  0.00  0.00    +0.006 A 
ATOM      7  C   UNL     1      -2.417   1.365   0.026  0.00  0.00    +0.014 A 
ATOM      8  C   UNL     1      -1.228   2.065   0.019  0.00  0.00    +0.050 A 
ATOM      9  C   UNL     1      -0.017   1.387   0.010  0.00  0.00    +0.162 A 
ATOM     10  C   UNL     1       0.002  -0.004   0.002  0.00  0.00    +0.163 A 
ATOM     11  C   UNL     1      -1.188  -0.712   0.004  0.00  0.00    +0.059 A 
ATOM     12  O   UNL     1       1.181  -0.685  -0.007  0.00  0.00    -0.485 OA
ATOM     13  C   UNL     1       2.347   0.053  -0.387  0.00  0.00    +0.270 C 
ATOM     14  C   UNL     1       2.335   1.391   0.365  0.00  0.00    +0.270 C 
ATOM     15  O   UNL     1       1.144   2.098   0.002  0.00  0.00    -0.485 OA
ENDBRANCH   5   6
BRANCH   3  16
ATOM     16  C   UNL     1      -5.840  -3.473  -0.844  0.00  0.00    +0.065 A 
ATOM     17  C   UNL     1      -7.163  -3.756  -0.528  0.00  0.00    +0.028 A 
ATOM     18  C   UNL     1      -7.759  -4.901  -1.019  0.00  0.00    +0.002 A 
ATOM     19  C   UNL     1      -7.037  -5.771  -1.816  0.00  0.00    +0.000 A 
ATOM     20  C   UNL     1      -5.718  -5.494  -2.128  0.00  0.00    +0.002 A 
ATOM     21  C   UNL     1      -5.118  -4.348  -1.645  0.00  0.00    +0.028 A 
ENDBRANCH   3  16
BRANCH   1  23
ATOM     22  C   UNL     1      -6.326   1.012   2.108  0.00  0.00    +0.030 C 
ATOM     23  C   UNL     1      -5.130   0.796   1.534  0.00  0.00    +0.014 C 
BRANCH  22  26
ATOM     24  C   UNL     1      -8.937   1.458   3.331  0.00  0.00    +0.047 C 
ATOM     25  C   UNL     1      -7.804   2.433   3.528  0.00  0.00    -0.001 A 
ATOM     26  C   UNL     1      -6.541   2.213   2.934  0.00  0.00    +0.088 A 
ATOM     27  N   UNL     1      -5.557   3.068   3.103  0.00  0.00    -0.171 NA
ATOM     28  N   UNL     1      -5.662   4.136   3.805  0.00  0.00    -0.242 N 
ATOM     29  H   UNL     1      -4.894   4.723   3.886  0.00  0.00    +0.192 HD
ATOM     30  C   UNL     1      -6.807   4.467   4.433  0.00  0.00    +0.282 A 
ATOM     31  O   UNL     1      -6.880   5.489   5.094  0.00  0.00    -0.265 OA
ATOM     32  C   UNL     1      -7.967   3.574   4.305  0.00  0.00    +0.122 A 
BRANCH  32  33
ATOM     33  C   UNL     1      -9.212   3.870   4.947  0.00  0.00    +0.105 C 
ATOM     34  N   UNL     1     -10.200   4.105   5.457  0.00  0.00    -0.191 NA
ENDBRANCH  32  33
ENDBRANCH  22  26
ENDBRANCH   1  23
TORSDOF 5
