REMARK  Name = ZINC09850594
REMARK  7 active torsions:
REMARK  status: ('A' for Active; 'I' for Inactive)
REMARK    1  A    between atoms: C_1  and  C_2
REMARK    2  A    between atoms: C_2  and  C_4
REMARK    3  A    between atoms: C_2  and  C_14
REMARK    4  A    between atoms: C_4  and  C_5
REMARK    5  A    between atoms: N_7  and  C_8
REMARK    6  A    between atoms: C_8  and  C_9
REMARK    7  A    between atoms: C_14  and  C_15
REMARK                            x       y       z     vdW  Elec       q    Type
REMARK                         _______ _______ _______ _____ _____    ______ ____
ROOT
ATOM      1  C   UNL     1      -3.654   2.619   1.341  0.00  0.00    +0.008 C 
ATOM      2  C   UNL     1      -3.658   1.831   0.029  0.00  0.00    +0.003 C 
ENDROOT
BRANCH   2   3
ATOM      3  C   UNL     1      -2.482   0.853   0.018  0.00  0.00    +0.099 C 
BRANCH   3   4
ATOM      4  C   UNL     1      -1.187   1.624   0.017  0.00  0.00    +0.214 C 
ATOM      5  O   UNL     1      -1.204   2.837   0.023  0.00  0.00    -0.276 OA
ATOM      6  N   UNL     1      -0.011   0.966   0.007  0.00  0.00    -0.308 N 
ATOM      7  H   UNL     1       0.002  -0.004   0.002  0.00  0.00    +0.149 HD
BRANCH   6   8
ATOM      8  C   UNL     1       1.248   1.716  -0.001  0.00  0.00    +0.178 C 
BRANCH   8   9
ATOM      9  C   UNL     1       2.406   0.752  -0.017  0.00  0.00    +0.122 A 
ATOM     10  C   UNL     1       3.001   0.255  -1.116  0.00  0.00    +0.046 A 
ATOM     11  C   UNL     1       4.033  -0.603  -0.672  0.00  0.00    +0.041 A 
ATOM     12  C   UNL     1       4.008  -0.578   0.673  0.00  0.00    +0.195 A 
ATOM     13  O   UNL     1       3.024   0.248   1.064  0.00  0.00    -0.466 OA
ENDBRANCH   8   9
ENDBRANCH   6   8
ENDBRANCH   3   4
ENDBRANCH   2   3
BRANCH   2  14
ATOM     14  C   UNL     1      -4.970   1.053  -0.094  0.00  0.00    +0.099 C 
BRANCH  14  15
ATOM     15  C   UNL     1      -6.119   2.021  -0.207  0.00  0.00    +0.216 C 
ATOM     16  O   UNL     1      -5.910   3.215  -0.190  0.00  0.00    -0.276 OA
ATOM     17  N   UNL     1      -7.380   1.559  -0.327  0.00  0.00    -0.301 N 
ATOM     18  C   UNL     1      -7.595   0.130  -0.350  0.00  0.00    +0.108 C 
ATOM     19  C   UNL     1      -7.516  -0.391  -1.800  0.00  0.00    +0.019 C 
ATOM     20  C   UNL     1      -8.695   0.045  -2.564  0.00  0.00    +0.002 C 
ATOM     21  C   UNL     1      -8.825   1.558  -2.710  0.00  0.00    +0.002 C 
ATOM     22  C   UNL     1      -9.521   2.120  -1.495  0.00  0.00    +0.019 C 
ATOM     23  C   UNL     1      -8.483   2.534  -0.435  0.00  0.00    +0.108 C 
ENDBRANCH  14  15
ENDBRANCH   2  14
TORSDOF 6
