REMARK  Name = ZINC04768191
REMARK  9 active torsions:
REMARK  status: ('A' for Active; 'I' for Inactive)
REMARK    1  A    between atoms: C_1  and  C_2
REMARK    2  A    between atoms: C_5  and  N_9
REMARK    3  A    between atoms: C_6  and  C_8
REMARK    4  A    between atoms: C_10  and  S_14
REMARK    5  A    between atoms: S_14  and  C_15
REMARK    6  A    between atoms: C_15  and  C_17
REMARK    7  A    between atoms: C_15  and  C_20
REMARK    8  A    between atoms: C_17  and  C_18
REMARK    9  A    between atoms: C_17  and  C_19
REMARK                            x       y       z     vdW  Elec       q    Type
REMARK                         _______ _______ _______ _____ _____    ______ ____
ROOT
ATOM      1  S   UNL     1      -2.367   1.975   0.684  0.00  0.00    -0.071 S 
ENDROOT
BRANCH   1   3
ATOM      2  N   UNL     1       0.331   1.367   0.270  0.00  0.00    -0.187 N 
ATOM      3  C   UNL     1      -0.643   2.291   0.500  0.00  0.00    +0.215 A 
ATOM      4  N   UNL     1      -0.051   3.465   0.561  0.00  0.00    -0.101 NA
ATOM      5  N   UNL     1       1.214   3.342   0.379  0.00  0.00    -0.022 NA
ATOM      6  N   UNL     1       1.526   2.105   0.196  0.00  0.00    -0.038 NA
BRANCH   2  11
ATOM      7  C   UNL     1      -0.299  -4.246  -0.290  0.00  0.00    +0.044 C 
ATOM      8  C   UNL     1      -0.132  -2.755  -0.142  0.00  0.00    -0.050 A 
ATOM      9  C   UNL     1      -0.730  -2.096   0.917  0.00  0.00    +0.005 A 
ATOM     10  C   UNL     1      -0.575  -0.731   1.058  0.00  0.00    +0.028 A 
ATOM     11  C   UNL     1       0.175  -0.019   0.132  0.00  0.00    +0.073 A 
ATOM     12  C   UNL     1       0.775  -0.684  -0.929  0.00  0.00    -0.025 A 
ATOM     13  C   UNL     1       0.620  -2.050  -1.063  0.00  0.00    +0.008 A 
ATOM     14  C   UNL     1       1.595   0.084  -1.934  0.00  0.00    +0.046 C 
ENDBRANCH   2  11
ENDBRANCH   1   3
BRANCH   1  15
ATOM     15  C   UNL     1      -2.969   3.661   0.953  0.00  0.00    +0.143 C 
BRANCH  15  16
ATOM     16  C   UNL     1      -4.443   3.624   1.263  0.00  0.00    +0.234 C 
ATOM     17  O   UNL     1      -5.104   2.655   0.954  0.00  0.00    -0.274 OA
ATOM     18  N   UNL     1      -5.027   4.668   1.884  0.00  0.00    -0.239 N 
ATOM     19  C   UNL     1      -6.346   4.635   2.161  0.00  0.00    +0.303 C 
ATOM     20  O   UNL     1      -7.008   3.664   1.851  0.00  0.00    -0.253 OA
ATOM     21  N   UNL     1      -6.930   5.679   2.783  0.00  0.00    -0.313 N 
ATOM     22  H   UNL     1      -4.499   5.442   2.132  0.00  0.00    +0.159 HD
ATOM     23  H   UNL     1      -6.402   6.453   3.030  0.00  0.00    +0.146 HD
ATOM     24  H   UNL     1      -7.879   5.655   2.982  0.00  0.00    +0.146 HD
ENDBRANCH  15  16
BRANCH  15  25
ATOM     25  C   UNL     1      -2.733   4.494  -0.308  0.00  0.00    +0.005 C 
ATOM     26  C   UNL     1      -3.583   3.938  -1.452  0.00  0.00    +0.009 C 
ATOM     27  C   UNL     1      -3.127   5.948  -0.040  0.00  0.00    +0.009 C 
ENDBRANCH  15  25
ENDBRANCH   1  15
TORSDOF 5
