REMARK  Name = ZINC08515792
REMARK  1 active torsions:
REMARK  status: ('A' for Active; 'I' for Inactive)
REMARK    1  A    between atoms: C_5  and  C_7
REMARK                            x       y       z     vdW  Elec       q    Type
REMARK                         _______ _______ _______ _____ _____    ______ ____
ROOT
ATOM      1  C   UNL     1       1.229  -2.186  -0.022  0.00  0.00    +0.092 C 
ATOM      2  C   UNL     1       0.533  -2.679  -1.256  0.00  0.00    +0.042 A 
ATOM      3  C   UNL     1       1.181  -2.629  -2.500  0.00  0.00    +0.126 A 
ATOM      4  N   UNL     1       0.552  -3.066  -3.587  0.00  0.00    -0.208 NA
ATOM      5  C   UNL     1      -0.684  -3.551  -3.515  0.00  0.00    +0.180 A 
ATOM      6  S   UNL     1      -1.455  -4.103  -4.940  0.00  0.00    -0.011 S 
ATOM      7  N   UNL     1      -1.339  -3.618  -2.341  0.00  0.00    -0.322 N 
ATOM      8  C   UNL     1      -0.734  -3.181  -1.193  0.00  0.00    +0.110 A 
ATOM      9  N   UNL     1      -1.392  -3.248   0.010  0.00  0.00    -0.304 N 
ATOM     10  C   UNL     1      -0.698  -3.193   1.189  0.00  0.00    +0.017 C 
ATOM     11  C   UNL     1       0.555  -2.696   1.227  0.00  0.00    +0.024 C 
ATOM     12  C   UNL     1       1.271  -2.634   2.435  0.00  0.00    +0.162 C 
ATOM     13  O   UNL     1       2.405  -2.197   2.434  0.00  0.00    -0.292 OA
ATOM     14  C   UNL     1       0.661  -3.099   3.729  0.00  0.00    +0.080 C 
ATOM     15  C   UNL     1      -0.860  -2.930   3.651  0.00  0.00    +0.014 C 
ATOM     16  C   UNL     1      -1.370  -3.707   2.439  0.00  0.00    +0.051 C 
ATOM     17  N   UNL     1       2.461  -2.129  -2.594  0.00  0.00    -0.343 N 
ATOM     18  H   UNL     1      -2.358  -3.335   0.025  0.00  0.00    +0.153 HD
ATOM     19  H   UNL     1       2.906  -2.095  -3.455  0.00  0.00    +0.144 HD
ATOM     20  H   UNL     1       2.917  -1.810  -1.800  0.00  0.00    +0.144 HD
ATOM     21  H   UNL     1      -2.240  -3.975  -2.308  0.00  0.00    +0.169 HD
ENDROOT
BRANCH   1  26
ATOM     22  C   UNL     1      -0.017   1.378   0.010  0.00  0.00    +0.000 A 
ATOM     23  C   UNL     1       1.171   2.086   0.002  0.00  0.00    +0.001 A 
ATOM     24  C   UNL     1       2.377   1.412  -0.013  0.00  0.00    +0.020 A 
ATOM     25  C   UNL     1       2.397   0.029  -0.021  0.00  0.00    +0.045 A 
ATOM     26  C   UNL     1       1.208  -0.679  -0.013  0.00  0.00    -0.017 A 
ATOM     27  C   UNL     1       0.002  -0.004   0.002  0.00  0.00    +0.006 A 
ATOM     28 CL   UNL     1       3.912  -0.818  -0.041  0.00  0.00    -0.083 Cl
ENDBRANCH   1  26
TORSDOF 1
