REMARK  Name = ZINC04038546
REMARK  2 active torsions:
REMARK  status: ('A' for Active; 'I' for Inactive)
REMARK    1  A    between atoms: C_6  and  C_7
REMARK    2  A    between atoms: C_10  and  C_16
REMARK                            x       y       z     vdW  Elec       q    Type
REMARK                         _______ _______ _______ _____ _____    ______ ____
ROOT
ATOM      1  C   UNL     1      -1.263  -0.762   0.011  0.00  0.00    +0.079 C 
ATOM      2  N   UNL     1      -2.348  -0.075   0.020  0.00  0.00    -0.166 NA
ATOM      3  N   UNL     1      -3.623  -0.628   0.071  0.00  0.00    -0.185 N 
ATOM      4  C   UNL     1      -4.852  -0.110  -0.227  0.00  0.00    +0.204 A 
ATOM      5  N   UNL     1      -5.738  -1.061   0.011  0.00  0.00    -0.125 NA
ATOM      6  N   UNL     1      -5.143  -2.128   0.429  0.00  0.00    -0.120 NA
ATOM      7  C   UNL     1      -3.865  -1.924   0.480  0.00  0.00    +0.213 A 
ATOM      8  S   UNL     1      -2.534  -2.985   0.950  0.00  0.00    -0.078 S 
ATOM      9  C   UNL     1      -1.154  -2.259   0.001  0.00  0.00    +0.135 C 
ENDROOT
BRANCH   4  10
ATOM     10  C   UNL     1      -5.136   1.249  -0.719  0.00  0.00    +0.108 A 
ATOM     11  C   UNL     1      -6.379   1.772  -1.014  0.00  0.00    +0.004 A 
ATOM     12  C   UNL     1      -6.195   3.084  -1.446  0.00  0.00    +0.067 A 
ATOM     13  N   UNL     1      -4.912   3.357  -1.420  0.00  0.00    -0.178 NA
ATOM     14  N   UNL     1      -4.219   2.230  -0.963  0.00  0.00    -0.273 N 
ATOM     15  H   UNL     1      -3.259   2.159  -0.844  0.00  0.00    +0.189 HD
ATOM     16  C   UNL     1      -7.538   3.698  -1.781  0.00  0.00    +0.058 C 
ATOM     17  C   UNL     1      -8.504   2.504  -1.930  0.00  0.00    +0.011 C 
ATOM     18  C   UNL     1      -7.852   1.429  -1.034  0.00  0.00    +0.039 C 
ENDBRANCH   4  10
BRANCH   1  24
ATOM     19  C   UNL     1      -0.017   1.393   0.010  0.00  0.00    +0.011 A 
ATOM     20  C   UNL     1       1.170   2.095   0.002  0.00  0.00    +0.020 A 
ATOM     21  C   UNL     1       2.378   1.419  -0.013  0.00  0.00    +0.041 A 
ATOM     22  C   UNL     1       2.404   0.035  -0.021  0.00  0.00    +0.020 A 
ATOM     23  C   UNL     1       1.225  -0.680  -0.014  0.00  0.00    +0.011 A 
ATOM     24  C   UNL     1       0.002  -0.004   0.002  0.00  0.00    -0.001 A 
ATOM     25 CL   UNL     1       3.868   2.311  -0.023  0.00  0.00    -0.084 Cl
ENDBRANCH   1  24
TORSDOF 2
