REMARK  Name = ZINC65502596
REMARK  6 active torsions:
REMARK  status: ('A' for Active; 'I' for Inactive)
REMARK    1  A    between atoms: C_5  and  C_7
REMARK    2  A    between atoms: C_7  and  C_8
REMARK    3  A    between atoms: C_8  and  N_9
REMARK    4  A    between atoms: N_12  and  N_13
REMARK    5  A    between atoms: C_14  and  C_16
REMARK    6  A    between atoms: C_20  and  N_22
REMARK                            x       y       z     vdW  Elec       q    Type
REMARK                         _______ _______ _______ _____ _____    ______ ____
ROOT
ATOM      1  N   UNL     1       1.395  -4.167   1.402  0.00  0.00    -0.298 N 
ATOM      2  C   UNL     1       1.518  -4.846   2.560  0.00  0.00    +0.316 C 
ATOM      3  O   UNL     1       1.612  -4.243   3.612  0.00  0.00    -0.251 OA
ATOM      4  N   UNL     1       1.536  -6.194   2.552  0.00  0.00    -0.218 N 
ATOM      5  H   UNL     1       1.320  -4.648   0.564  0.00  0.00    +0.150 HD
ATOM      6  H   UNL     1       1.624  -6.683   3.386  0.00  0.00    +0.174 HD
ENDROOT
BRANCH   4   7
ATOM      7  N   UNL     1       1.427  -6.889   1.341  0.00  0.00    -0.229 N 
ATOM      8  C   UNL     1       1.446  -8.236   1.333  0.00  0.00    +0.260 C 
ATOM      9  O   UNL     1       1.556  -8.849   2.377  0.00  0.00    -0.269 OA
ATOM     10  H   UNL     1       1.339  -6.400   0.507  0.00  0.00    +0.173 HD
BRANCH   8  11
ATOM     11  C   UNL     1       1.331  -8.970   0.054  0.00  0.00    +0.040 A 
ATOM     12  C   UNL     1       1.210  -8.270  -1.147  0.00  0.00    +0.013 A 
ATOM     13  C   UNL     1       1.104  -8.960  -2.337  0.00  0.00    +0.003 A 
ATOM     14  C   UNL     1       1.117 -10.344  -2.341  0.00  0.00    +0.033 A 
ATOM     15  C   UNL     1       1.237 -11.044  -1.153  0.00  0.00    +0.127 A 
ATOM     16  C   UNL     1       1.349 -10.365   0.043  0.00  0.00    +0.045 A 
BRANCH  15  17
ATOM     17  N   UNL     1       1.250 -12.524  -1.167  0.00  0.00    +0.056 N 
ATOM     18  O   UNL     1       1.157 -13.120  -2.215  0.00  0.00    -0.126 OA
ATOM     19  O   UNL     1       1.354 -13.137  -0.130  0.00  0.00    -0.126 OA
ENDBRANCH  15  17
ENDBRANCH   8  11
ENDBRANCH   4   7
BRANCH   1  20
ATOM     20  C   UNL     1       1.376  -2.702   1.411  0.00  0.00    +0.110 C 
BRANCH  20  21
ATOM     21  C   UNL     1       1.229  -2.186  -0.022  0.00  0.00    +0.055 C 
BRANCH  21  26
ATOM     22  C   UNL     1      -0.017   1.378   0.010  0.00  0.00    +0.000 A 
ATOM     23  C   UNL     1       1.171   2.086   0.002  0.00  0.00    +0.001 A 
ATOM     24  C   UNL     1       2.377   1.412  -0.013  0.00  0.00    +0.020 A 
ATOM     25  C   UNL     1       2.397   0.029  -0.021  0.00  0.00    +0.044 A 
ATOM     26  C   UNL     1       1.208  -0.679  -0.013  0.00  0.00    -0.028 A 
ATOM     27  C   UNL     1       0.002  -0.004   0.002  0.00  0.00    +0.005 A 
ATOM     28 CL   UNL     1       3.912  -0.818  -0.041  0.00  0.00    -0.083 Cl
ENDBRANCH  21  26
ENDBRANCH  20  21
ENDBRANCH   1  20
TORSDOF 6
