REMARK  Name = ZINC49316869
REMARK  6 active torsions:
REMARK  status: ('A' for Active; 'I' for Inactive)
REMARK    1  A    between atoms: C_1  and  C_2
REMARK    2  A    between atoms: C_4  and  C_8
REMARK    3  A    between atoms: C_6  and  C_7
REMARK    4  A    between atoms: N_10  and  C_11
REMARK    5  A    between atoms: C_11  and  C_17
REMARK    6  A    between atoms: N_19  and  C_20
REMARK                            x       y       z     vdW  Elec       q    Type
REMARK                         _______ _______ _______ _____ _____    ______ ____
ROOT
ATOM      1  C   UNL     1       0.178  -3.039  -2.344  0.00  0.00    +0.251 C 
ATOM      2  O   UNL     1       0.167  -2.792  -3.536  0.00  0.00    -0.270 OA
ATOM      3  N   UNL     1       0.129  -4.317  -1.921  0.00  0.00    -0.297 N 
ATOM      4  H   UNL     1       0.210  -4.519  -0.975  0.00  0.00    +0.150 HD
ENDROOT
BRANCH   1   8
ATOM      5  C   UNL     1       0.422   1.709  -0.586  0.00  0.00    +0.044 C 
ATOM      6  C   UNL     1       0.357   0.208  -0.467  0.00  0.00    -0.040 A 
ATOM      7  C   UNL     1       0.301  -0.579  -1.592  0.00  0.00    +0.024 A 
ATOM      8  C   UNL     1       0.245  -1.946  -1.369  0.00  0.00    +0.074 A 
ATOM      9  S   UNL     1       0.274  -2.029   0.411  0.00  0.00    -0.089 S 
ATOM     10  C   UNL     1       0.359  -0.386   0.753  0.00  0.00    -0.010 A 
ATOM     11  C   UNL     1       0.421   0.277   2.105  0.00  0.00    +0.052 C 
ENDBRANCH   1   8
BRANCH   3  12
ATOM     12  C   UNL     1      -0.049  -5.403  -2.888  0.00  0.00    +0.111 C 
ATOM     13  C   UNL     1       1.168  -5.465  -3.813  0.00  0.00    +0.035 C 
ATOM     14  C   UNL     1       2.428  -5.722  -2.983  0.00  0.00    +0.003 C 
ATOM     15  C   UNL     1       2.285  -7.051  -2.238  0.00  0.00    +0.000 C 
ATOM     16  C   UNL     1       1.068  -6.989  -1.313  0.00  0.00    +0.003 C 
ATOM     17  C   UNL     1      -0.191  -6.732  -2.143  0.00  0.00    +0.035 C 
BRANCH  12  18
ATOM     18  C   UNL     1      -1.289  -5.150  -3.705  0.00  0.00    +0.236 C 
ATOM     19  O   UNL     1      -1.315  -5.457  -4.879  0.00  0.00    -0.273 OA
ATOM     20  N   UNL     1      -2.369  -4.584  -3.133  0.00  0.00    -0.317 N 
ATOM     21  C   UNL     1      -3.534  -4.237  -3.951  0.00  0.00    +0.128 C 
ATOM     22  H   UNL     1      -2.376  -4.405  -2.180  0.00  0.00    +0.148 HD
ENDBRANCH  12  18
ENDBRANCH   3  12
TORSDOF 3
