REMARK  Name = ZINC59520321
REMARK  4 active torsions:
REMARK  status: ('A' for Active; 'I' for Inactive)
REMARK    1  A    between atoms: C_5  and  C_7
REMARK    2  A    between atoms: C_7  and  N_8
REMARK    3  A    between atoms: N_8  and  N_15
REMARK    4  A    between atoms: N_16  and  C_17
REMARK                            x       y       z     vdW  Elec       q    Type
REMARK                         _______ _______ _______ _____ _____    ______ ____
ROOT
ATOM      1  N   UNL     1       1.605  -2.680   1.310  0.00  0.00    -0.179 N 
ATOM      2  C   UNL     1       2.940  -2.705   1.704  0.00  0.00    +0.228 A 
ATOM      3  C   UNL     1       3.901  -3.775   1.414  0.00  0.00    +0.204 A 
ATOM      4  N   UNL     1       5.048  -3.449   1.942  0.00  0.00    -0.032 NA
ATOM      5  O   UNL     1       4.893  -2.193   2.579  0.00  0.00    -0.239 OA
ATOM      6  N   UNL     1       3.551  -1.780   2.389  0.00  0.00    -0.030 NA
ATOM      7  N   UNL     1       3.634  -4.938   0.700  0.00  0.00    -0.338 N 
ATOM      8  H   UNL     1       2.767  -5.062   0.282  0.00  0.00    +0.144 HD
ATOM      9  H   UNL     1       4.314  -5.625   0.620  0.00  0.00    +0.144 HD
ENDROOT
BRANCH   1  10
ATOM     10  N   UNL     1       0.604  -3.099   2.196  0.00  0.00    -0.070 NA
ATOM     11  N   UNL     1       0.925  -3.599   3.341  0.00  0.00    -0.106 NA
BRANCH  11  12
ATOM     12  C   UNL     1      -0.046  -4.103   4.165  0.00  0.00    +0.259 A 
ATOM     13  C   UNL     1       0.157  -4.599   5.533  0.00  0.00    +0.208 A 
ATOM     14  N   UNL     1      -0.994  -4.996   6.000  0.00  0.00    -0.032 NA
ATOM     15  O   UNL     1      -1.970  -4.785   4.995  0.00  0.00    -0.239 OA
ATOM     16  N   UNL     1      -1.317  -4.219   3.873  0.00  0.00    -0.025 NA
ATOM     17  N   UNL     1       1.368  -4.640   6.213  0.00  0.00    -0.337 N 
ATOM     18  H   UNL     1       2.163  -4.256   5.811  0.00  0.00    +0.144 HD
ATOM     19  H   UNL     1       1.418  -5.053   7.089  0.00  0.00    +0.144 HD
ENDBRANCH  11  12
ENDBRANCH   1  10
BRANCH   1  20
ATOM     20  C   UNL     1       1.246  -2.216  -0.033  0.00  0.00    +0.171 C 
BRANCH  20  25
ATOM     21  C   UNL     1      -0.465   1.145   0.138  0.00  0.00    +0.000 A 
ATOM     22  C   UNL     1       0.611   2.008   0.043  0.00  0.00    +0.001 A 
ATOM     23  C   UNL     1       1.892   1.505  -0.076  0.00  0.00    +0.015 A 
ATOM     24  C   UNL     1       2.099   0.137  -0.101  0.00  0.00    +0.023 A 
ATOM     25  C   UNL     1       1.022  -0.726  -0.006  0.00  0.00    -0.014 A 
ATOM     26  C   UNL     1      -0.260  -0.221   0.114  0.00  0.00    +0.006 A 
ATOM     27 BR   UNL     1       3.852  -0.552  -0.265  0.00  0.00    -0.050 Br
ENDBRANCH  20  25
ENDBRANCH   1  20
TORSDOF 4
