REMARK  Name = ZINC65656805
REMARK  2 active torsions:
REMARK  status: ('A' for Active; 'I' for Inactive)
REMARK    1  A    between atoms: C_8  and  C_13
REMARK    2  A    between atoms: C_19  and  C_21
REMARK                            x       y       z     vdW  Elec       q    Type
REMARK                         _______ _______ _______ _____ _____    ______ ____
ROOT
ATOM      1  C   UNL     1       2.585  -4.212  -0.047  0.00  0.00    +0.263 C 
ATOM      2  O   UNL     1       1.565  -4.868   0.052  0.00  0.00    -0.268 OA
ATOM      3  N   UNL     1       3.776  -4.832  -0.164  0.00  0.00    -0.291 N 
ATOM      4  C   UNL     1       5.032  -4.065  -0.169  0.00  0.00    +0.136 C 
ATOM      5  C   UNL     1       5.862  -4.506  -1.380  0.00  0.00    +0.179 C 
ATOM      6  O   UNL     1       5.988  -5.930  -1.372  0.00  0.00    -0.369 OA
ATOM      7  C   UNL     1       4.746  -6.628  -1.495  0.00  0.00    +0.166 C 
ATOM      8  C   UNL     1       3.859  -6.296  -0.285  0.00  0.00    +0.144 C 
ENDROOT
BRANCH   1  16
ATOM      9  C   UNL     1       2.652   1.481   2.310  0.00  0.00    +0.001 A 
ATOM     10  C   UNL     1       2.454   2.151   1.110  0.00  0.00    +0.001 A 
ATOM     11  C   UNL     1       2.321   1.453  -0.072  0.00  0.00    +0.014 A 
ATOM     12  C   UNL     1       2.386   0.062  -0.062  0.00  0.00    +0.046 A 
ATOM     13  C   UNL     1       2.589  -0.621   1.160  0.00  0.00    -0.011 A 
ATOM     14  C   UNL     1       2.720   0.105   2.345  0.00  0.00    +0.009 A 
ATOM     15  C   UNL     1       2.653  -2.082   1.141  0.00  0.00    +0.039 A 
ATOM     16  C   UNL     1       2.518  -2.739  -0.038  0.00  0.00    +0.105 A 
ATOM     17  N   UNL     1       2.321  -2.073  -1.228  0.00  0.00    -0.318 N 
ATOM     18  H   UNL     1       2.230  -2.588  -2.045  0.00  0.00    +0.169 HD
ATOM     19  C   UNL     1       2.250  -0.729  -1.293  0.00  0.00    +0.257 A 
ATOM     20  O   UNL     1       2.075  -0.174  -2.363  0.00  0.00    -0.267 OA
ENDBRANCH   1  16
BRANCH   7  21
ATOM     21  C   UNL     1       5.005  -8.112  -1.536  0.00  0.00    -0.017 A 
ATOM     22  C   UNL     1       5.962  -8.670  -0.709  0.00  0.00    +0.007 A 
ATOM     23  C   UNL     1       6.199 -10.031  -0.746  0.00  0.00    +0.020 A 
ATOM     24  C   UNL     1       5.479 -10.835  -1.612  0.00  0.00    +0.041 A 
ATOM     25  C   UNL     1       4.522 -10.276  -2.440  0.00  0.00    +0.020 A 
ATOM     26  C   UNL     1       4.281  -8.916  -2.397  0.00  0.00    +0.007 A 
ATOM     27 CL   UNL     1       5.778 -12.544  -1.660  0.00  0.00    -0.084 Cl
ENDBRANCH   7  21
TORSDOF 2
