REMARK  Name = ZINC51130522
REMARK  3 active torsions:
REMARK  status: ('A' for Active; 'I' for Inactive)
REMARK    1  A    between atoms: C_14  and  C_16
REMARK    2  A    between atoms: C_16  and  N_17
REMARK    3  A    between atoms: C_21  and  C_24
REMARK                            x       y       z     vdW  Elec       q    Type
REMARK                         _______ _______ _______ _____ _____    ______ ____
ROOT
ATOM      1  C   UNL     1      -0.017   1.373   0.010  0.00  0.00    +0.001 A 
ATOM      2  C   UNL     1       1.173   2.087   0.002  0.00  0.00    +0.004 A 
ATOM      3  C   UNL     1       2.385   1.433  -0.013  0.00  0.00    +0.047 A 
ATOM      4  C   UNL     1       2.426   0.043  -0.021  0.00  0.00    +0.138 A 
ATOM      5  C   UNL     1       1.221  -0.678  -0.013  0.00  0.00    +0.046 A 
ATOM      6  C   UNL     1       0.002  -0.004   0.002  0.00  0.00    +0.014 A 
ATOM      7  C   UNL     1       1.607  -2.098  -0.025  0.00  0.00    +0.124 A 
ATOM      8  C   UNL     1       2.998  -2.111  -0.039  0.00  0.00    +0.218 A 
ATOM      9  O   UNL     1       3.448  -0.839  -0.037  0.00  0.00    -0.448 OA
ATOM     10  C   UNL     1       3.651  -3.364  -0.053  0.00  0.00    +0.295 A 
ATOM     11  O   UNL     1       4.869  -3.432  -0.066  0.00  0.00    -0.264 OA
ATOM     12  N   UNL     1       2.897  -4.484  -0.052  0.00  0.00    -0.307 N 
ATOM     13  H   UNL     1       3.327  -5.354  -0.061  0.00  0.00    +0.170 HD
ATOM     14  C   UNL     1       1.544  -4.402  -0.037  0.00  0.00    +0.125 A 
ATOM     15  N   UNL     1       0.925  -3.254  -0.025  0.00  0.00    -0.229 NA
ENDROOT
BRANCH  14  16
ATOM     16  C   UNL     1       0.732  -5.672  -0.036  0.00  0.00    +0.158 C 
BRANCH  16  17
ATOM     17  N   UNL     1      -0.698  -5.339  -0.019  0.00  0.00    -0.290 NA
ATOM     18  C   UNL     1      -1.074  -4.691   1.246  0.00  0.00    +0.113 C 
ATOM     19  C   UNL     1      -2.555  -4.308   1.197  0.00  0.00    +0.176 C 
ATOM     20  O   UNL     1      -3.336  -5.477   0.936  0.00  0.00    -0.365 OA
ATOM     21  C   UNL     1      -2.998  -6.133  -0.289  0.00  0.00    +0.217 C 
ATOM     22  C   UNL     1      -1.520  -6.535  -0.255  0.00  0.00    +0.126 C 
BRANCH  21  23
ATOM     23  C   UNL     1      -3.851  -7.365  -0.453  0.00  0.00    +0.241 C 
ATOM     24  O   UNL     1      -4.604  -7.703   0.436  0.00  0.00    -0.273 OA
ATOM     25  N   UNL     1      -3.777  -8.090  -1.586  0.00  0.00    -0.327 N 
ATOM     26  H   UNL     1      -3.175  -7.819  -2.297  0.00  0.00    +0.145 HD
ATOM     27  H   UNL     1      -4.326  -8.883  -1.692  0.00  0.00    +0.145 HD
ENDBRANCH  21  23
ENDBRANCH  16  17
ENDBRANCH  14  16
TORSDOF 3
