REMARK  Name = ZINC11936692
REMARK  8 active torsions:
REMARK  status: ('A' for Active; 'I' for Inactive)
REMARK    1  A    between atoms: C_1  and  C_2
REMARK    2  A    between atoms: C_4  and  S_8
REMARK    3  A    between atoms: S_8  and  C_9
REMARK    4  A    between atoms: C_9  and  C_10
REMARK    5  A    between atoms: C_10  and  N_45
REMARK    6  A    between atoms: C_11  and  C_12
REMARK    7  A    between atoms: C_11  and  N_45
REMARK    8  A    between atoms: C_17  and  C_18
REMARK                            x       y       z     vdW  Elec       q    Type
REMARK                         _______ _______ _______ _____ _____    ______ ____
ROOT
ATOM      1  C   UNL     1       4.922   3.841  -0.130  0.00  0.00    -0.019 A 
ATOM      2  C   UNL     1       5.838   2.860  -0.281  0.00  0.00    +0.107 A 
ATOM      3  N   UNL     1       5.216   1.676  -0.094  0.00  0.00    -0.284 N 
ATOM      4  H   UNL     1       5.645   0.774  -0.147  0.00  0.00    +0.188 HD
ATOM      5  N   UNL     1       3.868   1.930   0.187  0.00  0.00    -0.174 NA
ATOM      6  C   UNL     1       3.686   3.235   0.170  0.00  0.00    +0.094 A 
ENDROOT
BRANCH   6   7
ATOM      7  C   UNL     1       2.406   3.939   0.416  0.00  0.00    +0.010 A 
ATOM      8  C   UNL     1       1.974   4.927  -0.450  0.00  0.00    +0.011 A 
ATOM      9  C   UNL     1       0.774   5.593  -0.226  0.00  0.00    +0.001 A 
ATOM     10  C   UNL     1      -0.008   5.293   0.848  0.00  0.00    +0.008 A 
ATOM     11  C   UNL     1       0.392   4.296   1.754  0.00  0.00    -0.017 A 
ATOM     12  C   UNL     1       1.612   3.608   1.540  0.00  0.00    -0.009 A 
ATOM     13  C   UNL     1       2.010   2.612   2.444  0.00  0.00    +0.009 A 
ATOM     14  C   UNL     1       1.220   2.319   3.514  0.00  0.00    +0.001 A 
ATOM     15  C   UNL     1       0.018   2.991   3.723  0.00  0.00    +0.001 A 
ATOM     16  C   UNL     1      -0.397   3.967   2.870  0.00  0.00    +0.008 A 
ENDBRANCH   6   7
BRANCH   1  17
ATOM     17  C   UNL     1       5.177   5.321  -0.258  0.00  0.00    -0.043 C 
BRANCH  17  18
ATOM     18  N   UNL     1       5.212   5.923   1.088  0.00  0.00    +0.382 N 
ATOM     19  H   UNL     1       4.311   5.763   1.554  0.00  0.00    -0.085 HD
ATOM     20  H   UNL     1       5.963   5.486   1.635  0.00  0.00    -0.085 HD
BRANCH  18  21
ATOM     21  C   UNL     1       5.460   7.374   0.994  0.00  0.00    -0.071 C 
BRANCH  21  22
ATOM     22  C   UNL     1       5.491   7.970   2.402  0.00  0.00    +0.058 C 
BRANCH  22  23
ATOM     23  S   UNL     1       5.796   9.751   2.297  0.00  0.00    -0.088 S 
BRANCH  23  27
ATOM     24  C   UNL     1       5.476   9.377   7.531  0.00  0.00    +0.090 C 
ATOM     25  C   UNL     1       5.646   9.991   6.165  0.00  0.00    +0.149 A 
ATOM     26  N   UNL     1       5.586   9.330   5.008  0.00  0.00    -0.206 NA
ATOM     27  C   UNL     1       5.781  10.166   4.010  0.00  0.00    +0.184 A 
ATOM     28  N   UNL     1       5.962  11.398   4.532  0.00  0.00    -0.254 N 
ATOM     29  H   UNL     1       6.125  12.219   4.041  0.00  0.00    +0.191 HD
ATOM     30  N   UNL     1       5.870  11.255   5.925  0.00  0.00    -0.157 NA
ENDBRANCH  23  27
ENDBRANCH  22  23
ENDBRANCH  21  22
ENDBRANCH  18  21
ENDBRANCH  17  18
ENDBRANCH   1  17
TORSDOF 7
