REMARK  Name = ZINC39688552
REMARK  9 active torsions:
REMARK  status: ('A' for Active; 'I' for Inactive)
REMARK    1  A    between atoms: C_1  and  C_2
REMARK    2  A    between atoms: C_2  and  C_4
REMARK    3  A    between atoms: C_2  and  N_12
REMARK    4  A    between atoms: C_4  and  C_5
REMARK    5  A    between atoms: C_13  and  C_15
REMARK    6  A    between atoms: C_26  and  C_28
REMARK    7  A    between atoms: C_28  and  C_30
REMARK    8  A    between atoms: C_28  and  O_31
REMARK    9  A    between atoms: O_31  and  C_32
REMARK                            x       y       z     vdW  Elec       q    Type
REMARK                         _______ _______ _______ _____ _____    ______ ____
ROOT
ATOM      1  C   UNL     1       2.703  -1.076  -2.475  0.00  0.00    +0.100 C 
ATOM      2  C   UNL     1       2.376  -0.149  -3.667  0.00  0.00    +0.121 C 
ATOM      3  N   UNL     1       3.497   0.819  -3.707  0.00  0.00    -0.297 N 
ATOM      4  C   UNL     1       4.697   0.006  -3.396  0.00  0.00    +0.115 C 
ATOM      5  C   UNL     1       4.228  -0.975  -2.303  0.00  0.00    -0.004 C 
ATOM      6  C   UNL     1       4.875  -2.341  -2.506  0.00  0.00    -0.010 C 
ATOM      7  C   UNL     1       6.384  -2.226  -2.272  0.00  0.00    -0.082 C 
ATOM      8  N   UNL     1       6.634  -1.742  -0.909  0.00  0.00    +0.379 N 
ATOM      9  C   UNL     1       6.089  -0.388  -0.751  0.00  0.00    -0.082 C 
ATOM     10  C   UNL     1       4.568  -0.425  -0.921  0.00  0.00    -0.010 C 
ATOM     11  C   UNL     1       3.439   2.140  -3.968  0.00  0.00    +0.256 C 
ATOM     12  O   UNL     1       2.364   2.683  -4.112  0.00  0.00    -0.272 OA
ATOM     13  H   UNL     1       6.191  -2.361  -0.247  0.00  0.00    -0.086 HD
ATOM     14  H   UNL     1       7.628  -1.725  -0.737  0.00  0.00    -0.086 HD
ENDROOT
BRANCH   1  16
ATOM     15  N   UNL     1       1.616  -1.485  -0.291  0.00  0.00    -0.312 N 
ATOM     16  C   UNL     1       2.001  -0.598  -1.230  0.00  0.00    +0.218 C 
ATOM     17  O   UNL     1       1.783   0.585  -1.073  0.00  0.00    -0.275 OA
ATOM     18  H   UNL     1       1.790  -2.431  -0.417  0.00  0.00    +0.149 HD
BRANCH  15  20
ATOM     19  C   UNL     1      -0.565  -0.886   0.640  0.00  0.00    +0.028 C 
ATOM     20  C   UNL     1       0.933  -1.020   0.919  0.00  0.00    +0.074 C 
BRANCH  20  21
ATOM     21  C   UNL     1       1.154  -2.029   2.048  0.00  0.00    +0.057 C 
BRANCH  21  22
ATOM     22  C   UNL     1       2.617  -2.070   2.406  0.00  0.00    -0.045 A 
ATOM     23  C   UNL     1       3.462  -2.951   1.758  0.00  0.00    +0.006 A 
ATOM     24  C   UNL     1       4.805  -2.990   2.085  0.00  0.00    +0.038 A 
ATOM     25  C   UNL     1       5.303  -2.145   3.062  0.00  0.00    +0.123 A 
ATOM     26  C   UNL     1       4.455  -1.262   3.711  0.00  0.00    +0.038 A 
ATOM     27  C   UNL     1       3.114  -1.222   3.378  0.00  0.00    +0.006 A 
ATOM     28  F   UNL     1       6.614  -2.182   3.384  0.00  0.00    -0.205 F 
ENDBRANCH  21  22
ENDBRANCH  20  21
ENDBRANCH  15  20
ENDBRANCH   1  16
BRANCH  11  29
ATOM     29  C   UNL     1       4.710   2.942  -4.081  0.00  0.00    +0.256 C 
ATOM     30  C   UNL     1       5.468   2.523  -5.342  0.00  0.00    +0.062 C 
BRANCH  29  31
ATOM     31  O   UNL     1       4.390   4.333  -4.157  0.00  0.00    -0.480 OA
BRANCH  31  32
ATOM     32  C   UNL     1       5.345   5.209  -3.748  0.00  0.00    +0.122 A 
ATOM     33  C   UNL     1       5.060   6.565  -3.679  0.00  0.00    +0.045 A 
ATOM     34  C   UNL     1       6.032   7.454  -3.262  0.00  0.00    +0.004 A 
ATOM     35  C   UNL     1       7.288   6.993  -2.915  0.00  0.00    +0.000 A 
ATOM     36  C   UNL     1       7.575   5.642  -2.984  0.00  0.00    +0.004 A 
ATOM     37  C   UNL     1       6.605   4.749  -3.394  0.00  0.00    +0.045 A 
ENDBRANCH  31  32
ENDBRANCH  29  31
ENDBRANCH  11  29
TORSDOF 7
