REMARK  Name = ZINC55175389
REMARK  4 active torsions:
REMARK  status: ('A' for Active; 'I' for Inactive)
REMARK    1  A    between atoms: C_1  and  N_2
REMARK    2  A    between atoms: N_11  and  C_12
REMARK    3  A    between atoms: C_12  and  C_14
REMARK    4  A    between atoms: C_20  and  C_22
REMARK                            x       y       z     vdW  Elec       q    Type
REMARK                         _______ _______ _______ _____ _____    ______ ____
ROOT
ATOM      1  C   UNL     1      -0.017   1.461   0.032  0.00  0.00    +0.152 C 
ATOM      2  N   UNL     1       0.002  -0.003   0.017  0.00  0.00    -0.315 N 
ATOM      3  C   UNL     1      -1.114  -0.833   0.020  0.00  0.00    +0.068 A 
ATOM      4  C   UNL     1      -2.479  -0.584   0.037  0.00  0.00    +0.028 A 
ATOM      5  C   UNL     1      -3.371  -1.639   0.036  0.00  0.00    +0.002 A 
ATOM      6  C   UNL     1      -2.908  -2.944   0.019  0.00  0.00    +0.002 A 
ATOM      7  C   UNL     1      -1.552  -3.202   0.002  0.00  0.00    +0.028 A 
ATOM      8  C   UNL     1      -0.648  -2.149   0.002  0.00  0.00    +0.066 A 
ATOM      9  N   UNL     1       0.742  -2.092  -0.011  0.00  0.00    -0.326 N 
ATOM     10  C   UNL     1       1.114  -0.785  -0.008  0.00  0.00    +0.201 A 
ATOM     11  N   UNL     1       2.368  -0.341  -0.023  0.00  0.00    -0.146 NA
ATOM     12  H   UNL     1       1.342  -2.853  -0.025  0.00  0.00    +0.169 HD
ENDROOT
BRANCH  11  13
ATOM     13  C   UNL     1       3.379  -1.200   0.062  0.00  0.00    +0.243 C 
ATOM     14  O   UNL     1       3.161  -2.396   0.058  0.00  0.00    -0.273 OA
BRANCH  13  15
ATOM     15  C   UNL     1       4.793  -0.691   0.164  0.00  0.00    +0.095 C 
ATOM     16  C   UNL     1       5.133   0.139  -1.075  0.00  0.00    +0.040 C 
ATOM     17  C   UNL     1       6.604   0.428  -1.117  0.00  0.00    -0.030 C 
ATOM     18  C   UNL     1       7.490  -0.217  -0.428  0.00  0.00    -0.030 C 
ATOM     19  C   UNL     1       7.168  -1.338   0.516  0.00  0.00    +0.042 C 
ATOM     20  C   UNL     1       5.763  -1.877   0.240  0.00  0.00    +0.118 C 
BRANCH  20  21
ATOM     21  C   UNL     1       5.345  -2.804   1.352  0.00  0.00    +0.360 C 
ATOM     22  O   UNL     1       5.409  -4.012   1.196  0.00  0.00    -0.246 OA
ATOM     23  O   UNL     1       4.941  -2.347   2.407  0.00  0.00    -0.246 OA
ENDBRANCH  20  21
ENDBRANCH  13  15
ENDBRANCH  11  13
TORSDOF 3
