REMARK  Name = ZINC35956509
REMARK  7 active torsions:
REMARK  status: ('A' for Active; 'I' for Inactive)
REMARK    1  A    between atoms: C_1  and  C_2
REMARK    2  A    between atoms: C_5  and  C_8
REMARK    3  A    between atoms: N_10  and  C_11
REMARK    4  A    between atoms: N_19  and  C_30
REMARK    5  A    between atoms: C_20  and  N_29
REMARK    6  A    between atoms: C_21  and  C_22
REMARK    7  A    between atoms: C_30  and  C_31
REMARK                            x       y       z     vdW  Elec       q    Type
REMARK                         _______ _______ _______ _____ _____    ______ ____
ROOT
ATOM      1  C   UNL     1       0.002  -6.328   1.190  0.00  0.00    +0.034 A 
ATOM      2  C   UNL     1       0.018  -7.062   0.003  0.00  0.00    +0.024 A 
ATOM      3  C   UNL     1      -0.051  -8.426   0.023  0.00  0.00    +0.011 A 
ATOM      4  C   UNL     1      -0.138  -9.097   1.244  0.00  0.00    -0.002 A 
ATOM      5  C   UNL     1      -0.155  -8.362   2.452  0.00  0.00    +0.049 A 
ATOM      6  C   UNL     1      -0.078  -6.969   2.413  0.00  0.00    +0.037 A 
ATOM      7  C   UNL     1      -0.248  -9.094   3.718  0.00  0.00    +0.261 A 
ATOM      8  O   UNL     1      -0.265  -8.487   4.774  0.00  0.00    -0.267 OA
ATOM      9  N   UNL     1      -0.316 -10.439   3.711  0.00  0.00    -0.293 N 
ATOM     10  C   UNL     1      -0.301 -11.165   2.554  0.00  0.00    +0.108 A 
ATOM     11  C   UNL     1      -0.215 -10.561   1.317  0.00  0.00    +0.031 A 
ENDROOT
BRANCH  11  12
ATOM     12  C   UNL     1      -0.202 -11.377   0.083  0.00  0.00    +0.021 A 
ATOM     13  C   UNL     1      -1.336 -11.440  -0.728  0.00  0.00    +0.011 A 
ATOM     14  C   UNL     1      -1.317 -12.202  -1.878  0.00  0.00    +0.001 A 
ATOM     15  C   UNL     1      -0.178 -12.904  -2.229  0.00  0.00    +0.003 A 
ATOM     16  C   UNL     1       0.951 -12.847  -1.431  0.00  0.00    +0.039 A 
ATOM     17  C   UNL     1       0.948 -12.083  -0.280  0.00  0.00    +0.131 A 
ATOM     18  F   UNL     1       2.052 -12.023   0.496  0.00  0.00    -0.205 F 
ENDBRANCH  11  12
BRANCH   1  21
ATOM     19  C   UNL     1      -0.526  -4.259   0.140  0.00  0.00    +0.248 C 
ATOM     20  O   UNL     1      -1.058  -4.869  -0.768  0.00  0.00    -0.270 OA
ATOM     21  N   UNL     1       0.074  -4.931   1.142  0.00  0.00    -0.281 N 
ATOM     22  H   UNL     1       0.555  -4.447   1.831  0.00  0.00    +0.155 HD
BRANCH  19  27
ATOM     23  C   UNL     1      -0.573   1.495   0.155  0.00  0.00    +0.044 C 
ATOM     24  C   UNL     1      -0.560  -0.012   0.151  0.00  0.00    -0.050 A 
ATOM     25  C   UNL     1      -1.166  -0.703  -0.884  0.00  0.00    +0.004 A 
ATOM     26  C   UNL     1      -1.159  -2.083  -0.893  0.00  0.00    +0.013 A 
ATOM     27  C   UNL     1      -0.538  -2.781   0.143  0.00  0.00    +0.037 A 
ATOM     28  C   UNL     1       0.071  -2.078   1.184  0.00  0.00    +0.013 A 
ATOM     29  C   UNL     1       0.061  -0.699   1.179  0.00  0.00    +0.004 A 
ENDBRANCH  19  27
ENDBRANCH   1  21
BRANCH  10  30
ATOM     30  N   UNL     1      -0.373 -12.540   2.625  0.00  0.00    -0.344 N 
ATOM     31  H   UNL     1      -0.433 -12.979   3.488  0.00  0.00    +0.144 HD
ATOM     32  H   UNL     1      -0.363 -13.069   1.812  0.00  0.00    +0.144 HD
ENDBRANCH  10  30
BRANCH   9  33
ATOM     33  C   UNL     1      -0.407 -11.148   4.989  0.00  0.00    +0.158 C 
BRANCH  33  34
ATOM     34  C   UNL     1      -1.879 -11.322   5.371  0.00  0.00    +0.138 C 
ATOM     35  C   UNL     1      -1.998 -12.040   6.739  0.00  0.00    +0.035 C 
ATOM     36  C   UNL     1      -3.392 -11.545   7.211  0.00  0.00    +0.031 C 
ATOM     37  C   UNL     1      -3.441 -10.111   6.641  0.00  0.00    +0.160 C 
ATOM     38  O   UNL     1      -2.500 -10.041   5.562  0.00  0.00    -0.375 OA
ENDBRANCH  33  34
ENDBRANCH   9  33
TORSDOF 6
