REMARK  Name = ZINC60346316
REMARK  11 active torsions:
REMARK  status: ('A' for Active; 'I' for Inactive)
REMARK    1  A    between atoms: C_1  and  C_2
REMARK    2  A    between atoms: C_4  and  C_8
REMARK    3  A    between atoms: C_5  and  C_7
REMARK    4  A    between atoms: C_8  and  C_34
REMARK    5  A    between atoms: N_11  and  C_15
REMARK    6  A    between atoms: C_15  and  C_16
REMARK    7  A    between atoms: N_18  and  C_19
REMARK    8  A    between atoms: C_20  and  C_30
REMARK    9  A    between atoms: C_25  and  C_29
REMARK   10  A    between atoms: C_30  and  O_32
REMARK   11  A    between atoms: O_32  and  C_33
REMARK                            x       y       z     vdW  Elec       q    Type
REMARK                         _______ _______ _______ _____ _____    ______ ____
ROOT
ATOM      1  C   UNL     1      -2.449  -3.938   4.283  0.00  0.00    +0.236 C 
ATOM      2  O   UNL     1      -2.120  -2.794   4.047  0.00  0.00    -0.274 OA
ATOM      3  N   UNL     1      -2.620  -4.340   5.558  0.00  0.00    -0.278 N 
ATOM      4  H   UNL     1      -2.882  -5.255   5.746  0.00  0.00    +0.155 HD
ENDROOT
BRANCH   3   5
ATOM      5  C   UNL     1      -2.421  -3.448   6.599  0.00  0.00    +0.086 A 
ATOM      6  C   UNL     1      -2.544  -3.684   7.960  0.00  0.00    +0.091 A 
ATOM      7  C   UNL     1      -2.278  -2.570   8.854  0.00  0.00    -0.021 A 
ATOM      8  C   UNL     1      -1.937  -1.426   8.224  0.00  0.00    -0.004 A 
ATOM      9  S   UNL     1      -1.968  -1.833   6.503  0.00  0.00    -0.077 S 
ATOM     10  C   UNL     1      -1.604  -0.112   8.862  0.00  0.00    +0.046 C 
ATOM     11  C   UNL     1      -1.339  -0.355  10.355  0.00  0.00    -0.009 C 
ATOM     12  C   UNL     1      -2.468  -1.219  10.925  0.00  0.00    +0.008 C 
ATOM     13  C   UNL     1      -2.365  -2.642  10.372  0.00  0.00    +0.037 C 
ATOM     14  C   UNL     1      -1.294   0.985  11.092  0.00  0.00    +0.008 C 
BRANCH   6  15
ATOM     15  C   UNL     1      -2.927  -5.001   8.475  0.00  0.00    +0.342 C 
ATOM     16  O   UNL     1      -2.071  -5.826   8.732  0.00  0.00    -0.245 OA
BRANCH  15  17
ATOM     17  O   UNL     1      -4.229  -5.299   8.662  0.00  0.00    -0.464 OA
ATOM     18  C   UNL     1      -4.530  -6.602   9.167  0.00  0.00    +0.280 C 
ENDBRANCH  15  17
ENDBRANCH   6  15
ENDBRANCH   3   5
BRANCH   1  19
ATOM     19  C   UNL     1      -2.665  -4.908   3.151  0.00  0.00    +0.214 C 
BRANCH  19  23
ATOM     20  C   UNL     1      -1.437  -3.390  -0.009  0.00  0.00    +0.138 C 
ATOM     21  C   UNL     1      -1.216  -4.181   1.265  0.00  0.00    +0.251 C 
ATOM     22  O   UNL     1      -0.176  -4.665   1.655  0.00  0.00    -0.272 OA
ATOM     23  N   UNL     1      -2.417  -4.232   1.874  0.00  0.00    -0.215 N 
ATOM     24  C   UNL     1      -3.357  -3.591   1.169  0.00  0.00    +0.310 C 
ATOM     25  O   UNL     1      -4.518  -3.501   1.516  0.00  0.00    -0.252 OA
ATOM     26  N   UNL     1      -2.871  -3.057   0.034  0.00  0.00    -0.281 N 
ATOM     27  C   UNL     1      -1.120  -4.244  -1.238  0.00  0.00    +0.047 C 
ATOM     28  H   UNL     1      -3.369  -2.551  -0.627  0.00  0.00    +0.152 HD
BRANCH  20  32
ATOM     29  C   UNL     1      -0.018   1.503   0.010  0.00  0.00    +0.086 C 
ATOM     30  C   UNL     1       0.002  -0.004   0.002  0.00  0.00    +0.103 A 
ATOM     31  C   UNL     1      -1.078  -0.805   0.003  0.00  0.00    +0.051 A 
ATOM     32  C   UNL     1      -0.601  -2.136  -0.007  0.00  0.00    +0.025 A 
ATOM     33  C   UNL     1       0.742  -2.069  -0.013  0.00  0.00    +0.108 A 
ATOM     34  O   UNL     1       1.102  -0.775  -0.013  0.00  0.00    -0.465 OA
ATOM     35  C   UNL     1       1.684  -3.245  -0.023  0.00  0.00    +0.086 C 
ENDBRANCH  20  32
ENDBRANCH  19  23
ENDBRANCH   1  19
TORSDOF 6
