REMARK  Name = ZINC63384166
REMARK  10 active torsions:
REMARK  status: ('A' for Active; 'I' for Inactive)
REMARK    1  A    between atoms: CG1_1  and  CB_2
REMARK    2  A    between atoms: CB_2  and  CG2_3
REMARK    3  A    between atoms: CB_2  and  CA_4
REMARK    4  A    between atoms: CA_4  and  C_6
REMARK    5  A    between atoms: CA_4  and  N_24
REMARK    6  A    between atoms: N_8  and  CA_9
REMARK    7  A    between atoms: CA_9  and  CB_11
REMARK    8  A    between atoms: CA_9  and  C_21
REMARK    9  A    between atoms: CB_11  and  CG_12
REMARK   10  A    between atoms: C_29  and  O_37
REMARK                            x       y       z     vdW  Elec       q    Type
REMARK                         _______ _______ _______ _____ _____    ______ ____
ROOT
ATOM      1  CA  TRP A   1      -1.079  -0.955  -0.742  0.00  0.00    +0.163 C 
ENDROOT
BRANCH   1   2
ATOM      2  N   TRP A   1      -0.633  -2.301  -1.111  0.00  0.00    -0.287 N 
ATOM      3  C   UNK A   0      -0.377  -3.212  -0.151  0.00  0.00    +0.308 C 
ATOM      4  O   UNK A   0      -0.515  -2.917   1.020  0.00  0.00    -0.252 OA
ATOM      5  N   UNK A   0       0.033  -4.450  -0.490  0.00  0.00    -0.245 N 
ATOM      6  C   UNK A   0       0.218  -4.840  -1.898  0.00  0.00    +0.210 C 
ATOM      7  C   UNK A   0      -0.293  -6.244  -2.089  0.00  0.00    +0.206 C 
ATOM      8  N   UNK A   0      -0.309  -7.100  -1.117  0.00  0.00    -0.214 NA
ATOM      9  C   UNK A   0       0.126  -6.773   0.139  0.00  0.00    +0.089 A 
ATOM     10  C   UNK A   0       0.308  -5.423   0.483  0.00  0.00    +0.064 A 
ATOM     11  C   UNK A   0       0.744  -5.075   1.746  0.00  0.00    +0.026 A 
ATOM     12  C   UNK A   0       1.011  -6.064   2.677  0.00  0.00    +0.002 A 
ATOM     13  C   UNK A   0       0.843  -7.397   2.347  0.00  0.00    +0.002 A 
ATOM     14  C   UNK A   0       0.395  -7.761   1.083  0.00  0.00    +0.030 A 
ATOM     15  H   TRP A   1      -0.522  -2.536  -2.045  0.00  0.00    +0.151 HD
BRANCH   7  16
ATOM     16  O   UNK A   0      -0.747  -6.620  -3.303  0.00  0.00    -0.494 OA
ATOM     17  H   UNK A   0      -1.057  -7.535  -3.341  0.00  0.00    +0.293 HD
ENDBRANCH   7  16
ENDBRANCH   1   2
BRANCH   1  18
ATOM     18  C   TRP A   1      -1.859  -0.354  -1.883  0.00  0.00    +0.234 C 
ATOM     19  O   TRP A   1      -1.988  -0.970  -2.920  0.00  0.00    -0.274 OA
ATOM     20  N   TRP A   1      -2.414   0.867  -1.750  0.00  0.00    -0.300 N 
ATOM     21  H   TRP A   1      -2.372   1.329  -0.898  0.00  0.00    +0.150 HD
BRANCH  20  22
ATOM     22  CA  TRP A   1      -3.080   1.497  -2.893  0.00  0.00    +0.190 C 
BRANCH  22  23
ATOM     23  C   TRP A   1      -4.513   1.798  -2.536  0.00  0.00    +0.376 C 
ATOM     24  O   TRP A   1      -4.890   1.684  -1.383  0.00  0.00    -0.244 OA
ATOM     25  OXT TRP A   1      -5.294   2.155  -3.401  0.00  0.00    -0.244 OA
ENDBRANCH  22  23
BRANCH  22  26
ATOM     26  CB  TRP A   1      -2.359   2.799  -3.250  0.00  0.00    +0.067 C 
BRANCH  26  27
ATOM     27  CG  TRP A   1      -0.978   2.483  -3.764  0.00  0.00    -0.039 C 
ATOM     28  CD2 TRP A   1      -0.618   2.271  -5.051  0.00  0.00    -0.001 A 
ATOM     29  CE3 TRP A   1      -1.376   2.269  -6.308  0.00  0.00    +0.010 A 
ATOM     30  CZ3 TRP A   1      -0.725   2.017  -7.466  0.00  0.00    +0.001 A 
ATOM     31  CH2 TRP A   1       0.652   1.756  -7.496  0.00  0.00    +0.002 A 
ATOM     32  CZ2 TRP A   1       1.415   1.741  -6.383  0.00  0.00    +0.026 A 
ATOM     33  CE2 TRP A   1       0.835   1.994  -5.109  0.00  0.00    +0.043 A 
ATOM     34  NE1 TRP A   1       1.353   2.034  -3.906  0.00  0.00    -0.380 N 
ATOM     35  CD1 TRP A   1       0.288   2.346  -2.947  0.00  0.00    +0.144 C 
ATOM     36  HE1 TRP A   1       2.287   1.885  -3.687  0.00  0.00    +0.160 HD
ENDBRANCH  26  27
ENDBRANCH  22  26
ENDBRANCH  20  22
ENDBRANCH   1  18
BRANCH   1  38
ATOM     37  CG1 TRP A   1      -0.328   1.288   0.065  0.00  0.00    +0.009 C 
ATOM     38  CB  TRP A   1       0.139  -0.079  -0.441  0.00  0.00    +0.012 C 
ATOM     39  CG2 TRP A   1       0.999  -0.752   0.631  0.00  0.00    +0.009 C 
ENDBRANCH   1  38
TORSDOF 8
