REMARK  Name = ZINC41092457
REMARK  3 active torsions:
REMARK  status: ('A' for Active; 'I' for Inactive)
REMARK    1  A    between atoms: C_3  and  N_12
REMARK    2  A    between atoms: C_5  and  N_7
REMARK    3  A    between atoms: N_12  and  C_13
REMARK                            x       y       z     vdW  Elec       q    Type
REMARK                         _______ _______ _______ _____ _____    ______ ____
ROOT
ATOM      1  C   UNL     1      -0.017   1.377   0.010  0.00  0.00    +0.004 A 
ATOM      2  C   UNL     1       1.169   2.087   0.002  0.00  0.00    +0.023 A 
ATOM      3  C   UNL     1       2.383   1.413  -0.013  0.00  0.00    +0.029 A 
ATOM      4  C   UNL     1       2.405   0.025  -0.021  0.00  0.00    +0.050 A 
ATOM      5  C   UNL     1       1.213  -0.684  -0.013  0.00  0.00    +0.071 A 
ATOM      6  C   UNL     1       0.002  -0.004   0.002  0.00  0.00    +0.028 A 
ENDROOT
BRANCH   5   7
ATOM      7  N   UNL     1       1.231  -2.086  -0.021  0.00  0.00    -0.200 N 
ATOM      8  C   UNL     1       0.168  -2.920  -0.021  0.00  0.00    +0.250 A 
ATOM      9  N   UNL     1       0.633  -4.142  -0.031  0.00  0.00    -0.116 NA
ATOM     10  N   UNL     1       1.917  -4.138  -0.037  0.00  0.00    -0.023 NA
ATOM     11  N   UNL     1       2.358  -2.926  -0.037  0.00  0.00    -0.039 NA
ENDBRANCH   5   7
BRANCH   3  12
ATOM     12  N   UNL     1       3.582   2.131  -0.021  0.00  0.00    -0.341 N 
ATOM     13  H   UNL     1       4.429   1.660  -0.032  0.00  0.00    +0.146 HD
BRANCH  12  14
ATOM     14  C   UNL     1       3.558   3.596  -0.014  0.00  0.00    +0.074 C 
ATOM     15  C   UNL     1       3.485   4.141  -1.458  0.00  0.00    +0.026 C 
ATOM     16  C   UNL     1       4.787   4.982  -1.628  0.00  0.00    -0.009 C 
ATOM     17  C   UNL     1       4.557   6.242  -0.740  0.00  0.00    +0.004 C 
ATOM     18  C   UNL     1       4.620   5.714   0.712  0.00  0.00    +0.005 C 
ATOM     19  C   UNL     1       4.896   4.158   0.556  0.00  0.00    +0.009 C 
ATOM     20  C   UNL     1       5.784   4.155  -0.742  0.00  0.00    +0.009 C 
ENDBRANCH  12  14
ENDBRANCH   3  12
TORSDOF 3
