REMARK  Name = ZINC21874136
REMARK  6 active torsions:
REMARK  status: ('A' for Active; 'I' for Inactive)
REMARK    1  A    between atoms: C_1  and  C_2
REMARK    2  A    between atoms: C_2  and  C_21
REMARK    3  A    between atoms: C_7  and  C_9
REMARK    4  A    between atoms: N_11  and  C_12
REMARK    5  A    between atoms: N_19  and  C_20
REMARK    6  A    between atoms: N_23  and  C_24
REMARK                            x       y       z     vdW  Elec       q    Type
REMARK                         _______ _______ _______ _____ _____    ______ ____
ROOT
ATOM      1  C   UNL     1      -1.062   3.062  -1.805  0.00  0.00    +0.044 C 
ATOM      2  C   UNL     1      -1.200   3.172  -0.285  0.00  0.00    +0.130 C 
ATOM      3  C   UNL     1      -0.205   4.212   0.226  0.00  0.00    +0.179 C 
ATOM      4  N   UNL     1       1.151   3.655   0.164  0.00  0.00    -0.256 N 
ATOM      5  C   UNL     1       1.371   2.301   0.310  0.00  0.00    +0.124 A 
ATOM      6  C   UNL     1       2.703   2.092   0.206  0.00  0.00    +0.067 A 
ATOM      7  C   UNL     1       3.262   3.373  -0.006  0.00  0.00    +0.148 A 
ATOM      8  N   UNL     1       2.268   4.246  -0.017  0.00  0.00    -0.166 NA
ATOM      9  C   UNL     1       0.254   1.368   0.534  0.00  0.00    +0.265 C 
ATOM     10  O   UNL     1       0.437   0.224   0.906  0.00  0.00    -0.268 OA
ATOM     11  N   UNL     1      -0.990   1.853   0.298  0.00  0.00    -0.284 N 
ATOM     12  C   UNL     1      -2.154   1.033   0.643  0.00  0.00    +0.133 C 
ENDROOT
BRANCH   7  13
ATOM     13  C   UNL     1       4.696   3.682  -0.184  0.00  0.00    +0.264 C 
ATOM     14  O   UNL     1       5.519   2.787  -0.153  0.00  0.00    -0.268 OA
ATOM     15  N   UNL     1       5.093   4.955  -0.379  0.00  0.00    -0.307 N 
ATOM     16  H   UNL     1       4.348   5.765  -0.407  0.00  0.00    +0.149 HD
BRANCH  15  17
ATOM     17  C   UNL     1       6.515   5.261  -0.555  0.00  0.00    +0.073 C 
ATOM     18  C   UNL     1       7.183   5.476   0.819  0.00  0.00    +0.022 C 
ATOM     19  C   UNL     1       8.200   6.619   0.571  0.00  0.00    +0.002 C 
ATOM     20  C   UNL     1       7.440   7.547  -0.408  0.00  0.00    +0.002 C 
ATOM     21  C   UNL     1       6.678   6.577  -1.335  0.00  0.00    +0.022 C 
ENDBRANCH  15  17
ENDBRANCH   7  13
BRANCH   2  22
ATOM     22  C   UNL     1      -2.597   3.633   0.044  0.00  0.00    +0.238 C 
ATOM     23  O   UNL     1      -3.293   4.123  -0.820  0.00  0.00    -0.273 OA
ATOM     24  N   UNL     1      -3.073   3.499   1.298  0.00  0.00    -0.311 N 
ATOM     25  H   UNL     1      -2.412   3.142   2.102  0.00  0.00    +0.149 HD
BRANCH  24  26
ATOM     26  C   UNL     1      -4.470   3.830   1.591  0.00  0.00    +0.073 C 
ATOM     27  C   UNL     1      -4.600   5.332   1.917  0.00  0.00    +0.022 C 
ATOM     28  C   UNL     1      -5.669   5.385   3.037  0.00  0.00    +0.002 C 
ATOM     29  C   UNL     1      -5.342   4.129   3.882  0.00  0.00    +0.002 C 
ATOM     30  C   UNL     1      -4.942   3.065   2.840  0.00  0.00    +0.022 C 
ENDBRANCH  24  26
ENDBRANCH   2  22
TORSDOF 4
