REMARK  Name = ZINC04784736
REMARK  11 active torsions:
REMARK  status: ('A' for Active; 'I' for Inactive)
REMARK    1  A    between atoms: C_1  and  C_2
REMARK    2  A    between atoms: C_12  and  C_29
REMARK    3  A    between atoms: C_13  and  C_27
REMARK    4  A    between atoms: C_14  and  O_17
REMARK    5  A    between atoms: C_14  and  O_22
REMARK    6  A    between atoms: O_17  and  N_18
REMARK    7  A    between atoms: C_19  and  C_20
REMARK    8  A    between atoms: C_19  and  C_21
REMARK    9  A    between atoms: O_22  and  N_23
REMARK   10  A    between atoms: C_24  and  C_25
REMARK   11  A    between atoms: C_24  and  C_26
REMARK                            x       y       z     vdW  Elec       q    Type
REMARK                         _______ _______ _______ _____ _____    ______ ____
ROOT
ATOM      1  C   UNL     1       0.833  -4.208  -0.031  0.00  0.00    +0.044 C 
ATOM      2  C   UNL     1       0.541  -2.730  -0.019  0.00  0.00    -0.050 A 
ATOM      3  C   UNL     1      -0.767  -2.281  -0.003  0.00  0.00    +0.005 A 
ATOM      4  C   UNL     1      -1.040  -0.929   0.008  0.00  0.00    +0.024 A 
ATOM      5  C   UNL     1       0.002  -0.004   0.002  0.00  0.00    +0.038 A 
ATOM      6  C   UNL     1       1.313  -0.468  -0.013  0.00  0.00    -0.007 A 
ATOM      7  C   UNL     1       1.582  -1.818  -0.024  0.00  0.00    +0.010 A 
ATOM      8  C   UNL     1       2.187   0.759  -0.013  0.00  0.00    +0.130 C 
ATOM      9  C   UNL     1       1.222   1.918   0.001  0.00  0.00    +0.232 C 
ATOM     10  O   UNL     1       1.508   3.097   0.003  0.00  0.00    -0.274 OA
ATOM     11  N   UNL     1      -0.017   1.392   0.010  0.00  0.00    -0.284 N 
ATOM     12  C   UNL     1       3.495   0.814  -0.791  0.00  0.00    +0.159 C 
ATOM     13  C   UNL     1       3.505   0.806   0.751  0.00  0.00    +0.205 C 
ATOM     14  C   UNL     1       4.211  -0.519   1.089  0.00  0.00    +0.404 C 
ATOM     15  C   UNL     1       4.170  -0.470  -1.200  0.00  0.00    +0.095 C 
ATOM     16  N   UNL     1       4.364  -0.856  -2.500  0.00  0.00    -0.347 N 
ATOM     17  H   UNL     1      -0.829   1.922   0.017  0.00  0.00    +0.155 HD
ATOM     18  H   UNL     1       4.805  -1.697  -2.696  0.00  0.00    +0.143 HD
ATOM     19  H   UNL     1       4.060  -0.288  -3.225  0.00  0.00    +0.143 HD
ATOM     20  N   UNL     1       4.550  -1.179  -0.187  0.00  0.00    -0.300 N 
ATOM     21  H   UNL     1       5.027  -2.084  -0.261  0.00  0.00    +0.168 HD
ENDROOT
BRANCH  13  22
ATOM     22  C   UNL     1       3.836   1.988   1.563  0.00  0.00    +0.083 C 
ATOM     23  N   UNL     1       4.092   2.900   2.191  0.00  0.00    -0.196 NA
ENDBRANCH  13  22
BRANCH  12  24
ATOM     24  C   UNL     1       3.829   2.034  -1.545  0.00  0.00    +0.080 C 
ATOM     25  N   UNL     1       4.085   2.975  -2.127  0.00  0.00    -0.195 NA
ENDBRANCH  12  24
BRANCH  14  26
ATOM     26  O   UNL     1       5.406  -0.262   1.830  0.00  0.00    -0.323 OA
BRANCH  26  27
ATOM     27  N   UNL     1       6.125  -1.428   2.187  0.00  0.00    -0.088 NA
ATOM     28  C   UNL     1       7.213  -1.330   2.852  0.00  0.00    +0.052 C 
ATOM     29  C   UNL     1       7.730   0.027   3.255  0.00  0.00    +0.064 C 
ATOM     30  C   UNL     1       7.979  -2.571   3.232  0.00  0.00    +0.064 C 
ENDBRANCH  26  27
ENDBRANCH  14  26
BRANCH  14  31
ATOM     31  O   UNL     1       3.338  -1.359   1.848  0.00  0.00    -0.323 OA
BRANCH  31  32
ATOM     32  N   UNL     1       3.905  -2.606   2.206  0.00  0.00    -0.088 NA
ATOM     33  C   UNL     1       3.223  -3.447   2.887  0.00  0.00    +0.052 C 
ATOM     34  C   UNL     1       1.815  -3.112   3.307  0.00  0.00    +0.064 C 
ATOM     35  C   UNL     1       3.827  -4.774   3.268  0.00  0.00    +0.064 C 
ENDBRANCH  31  32
ENDBRANCH  14  31
TORSDOF 6
