REMARK  Name = ZINC66079921
REMARK  5 active torsions:
REMARK  status: ('A' for Active; 'I' for Inactive)
REMARK    1  A    between atoms: C_1  and  C_2
REMARK    2  A    between atoms: N_10  and  C_14
REMARK    3  A    between atoms: C_14  and  N_15
REMARK    4  A    between atoms: C_18  and  N_21
REMARK    5  A    between atoms: C_22  and  C_24
REMARK                            x       y       z     vdW  Elec       q    Type
REMARK                         _______ _______ _______ _____ _____    ______ ____
ROOT
ATOM      1  C   UNL     1       3.325  -5.738  -0.062  0.00  0.00    +0.043 C 
ENDROOT
BRANCH   1  11
ATOM      2  C   UNL     1      -0.019   1.526   0.010  0.00  0.00    +0.007 C 
ATOM      3  C   UNL     1       0.002  -0.004   0.002  0.00  0.00    -0.014 C 
ATOM      4  C   UNL     1       0.716  -0.497  -1.258  0.00  0.00    +0.006 C 
ATOM      5  C   UNL     1       0.727  -2.028  -1.271  0.00  0.00    +0.035 C 
ATOM      6  C   UNL     1       1.442  -2.543  -0.027  0.00  0.00    +0.112 C 
ATOM      7  C   UNL     1       0.753  -2.041   1.238  0.00  0.00    +0.035 C 
ATOM      8  C   UNL     1       0.742  -0.510   1.242  0.00  0.00    +0.006 C 
ATOM      9  C   UNL     1       1.495  -4.053  -0.035  0.00  0.00    +0.245 C 
ATOM     10  O   UNL     1       0.556  -4.821  -0.030  0.00  0.00    -0.273 OA
ATOM     11  N   UNL     1       2.807  -4.367  -0.051  0.00  0.00    -0.241 N 
ATOM     12  C   UNL     1       3.576  -3.272  -0.053  0.00  0.00    +0.308 C 
ATOM     13  O   UNL     1       4.791  -3.300  -0.065  0.00  0.00    -0.252 OA
ATOM     14  N   UNL     1       2.853  -2.136  -0.039  0.00  0.00    -0.285 N 
ATOM     15  H   UNL     1       3.196  -1.229  -0.038  0.00  0.00    +0.151 HD
ENDBRANCH   1  11
BRANCH   1  16
ATOM     16  N   UNL     1       3.484  -6.189  -1.451  0.00  0.00    +0.391 N 
ATOM     17  C   UNL     1       4.507  -5.372  -2.116  0.00  0.00    -0.075 C 
ATOM     18  C   UNL     1       4.619  -5.785  -3.585  0.00  0.00    +0.004 C 
ATOM     19  C   UNL     1       5.011  -7.263  -3.667  0.00  0.00    +0.069 C 
ATOM     20  C   UNL     1       3.977  -8.098  -2.907  0.00  0.00    +0.004 C 
ATOM     21  C   UNL     1       3.889  -7.600  -1.462  0.00  0.00    -0.075 C 
ATOM     22  H   UNL     1       2.607  -6.088  -1.939  0.00  0.00    -0.079 HD
BRANCH  19  23
ATOM     23  N   UNL     1       5.046  -7.684  -5.069  0.00  0.00    -0.312 N 
ATOM     24  C   UNL     1       5.816  -8.725  -5.441  0.00  0.00    +0.216 C 
ATOM     25  O   UNL     1       6.481  -9.313  -4.615  0.00  0.00    -0.276 OA
ATOM     26  H   UNL     1       4.514  -7.213  -5.730  0.00  0.00    +0.149 HD
BRANCH  24  27
ATOM     27  C   UNL     1       5.852  -9.158  -6.885  0.00  0.00    +0.075 C 
ATOM     28  C   UNL     1       6.813  -8.329  -7.753  0.00  0.00    +0.013 C 
ATOM     29  C   UNL     1       7.907  -9.339  -7.367  0.00  0.00    +0.001 C 
ATOM     30  C   UNL     1       6.777 -10.358  -7.145  0.00  0.00    +0.013 C 
ENDBRANCH  24  27
ENDBRANCH  19  23
ENDBRANCH   1  16
TORSDOF 4
