REMARK  Name = ZINC15920098
REMARK  13 active torsions:
REMARK  status: ('A' for Active; 'I' for Inactive)
REMARK    1  A    between atoms: C_1  and  C_2
REMARK    2  A    between atoms: C_2  and  O_3
REMARK    3  A    between atoms: O_3  and  C_4
REMARK    4  A    between atoms: C_7  and  C_10
REMARK    5  A    between atoms: C_10  and  C_11
REMARK    6  A    between atoms: C_12  and  C_22
REMARK    7  A    between atoms: N_14  and  C_19
REMARK    8  A    between atoms: C_19  and  C_20
REMARK    9  A    between atoms: C_20  and  O_21
REMARK   10  A    between atoms: C_25  and  O_31
REMARK   11  A    between atoms: C_26  and  O_28
REMARK   12  A    between atoms: O_28  and  C_29
REMARK   13  A    between atoms: C_29  and  C_30
REMARK                            x       y       z     vdW  Elec       q    Type
REMARK                         _______ _______ _______ _____ _____    ______ ____
ROOT
ATOM      1  C   UNL     1       1.888  -6.482   2.990  0.00  0.00    +0.076 C 
ATOM      2  C   UNL     1       2.511  -5.630   4.070  0.00  0.00    +0.145 C 
ATOM      3  N   UNL     1       3.181  -6.559   4.989  0.00  0.00    -0.281 N 
ATOM      4  C   UNL     1       2.989  -7.808   4.527  0.00  0.00    +0.288 C 
ATOM      5  O   UNL     1       3.412  -8.818   5.052  0.00  0.00    -0.266 OA
ATOM      6  C   UNL     1       2.183  -7.769   3.288  0.00  0.00    +0.249 C 
ATOM      7  O   UNL     1       1.802  -8.848   2.566  0.00  0.00    -0.282 OA
ENDROOT
BRANCH   2   8
ATOM      8  C   UNL     1       3.517  -4.683   3.468  0.00  0.00    -0.019 A 
ATOM      9  C   UNL     1       4.742  -5.158   3.039  0.00  0.00    +0.009 A 
ATOM     10  C   UNL     1       5.667  -4.293   2.486  0.00  0.00    +0.049 A 
ATOM     11  C   UNL     1       5.368  -2.946   2.360  0.00  0.00    +0.158 A 
ATOM     12  C   UNL     1       4.135  -2.467   2.792  0.00  0.00    +0.162 A 
ATOM     13  C   UNL     1       3.210  -3.341   3.341  0.00  0.00    +0.055 A 
BRANCH  11  14
ATOM     14  O   UNL     1       6.277  -2.094   1.817  0.00  0.00    -0.503 OA
ATOM     15  H   UNL     1       6.202  -1.997   0.858  0.00  0.00    +0.292 HD
ENDBRANCH  11  14
BRANCH  12  16
ATOM     16  O   UNL     1       3.836  -1.146   2.671  0.00  0.00    -0.489 OA
BRANCH  16  17
ATOM     17  C   UNL     1       2.509  -0.746   3.019  0.00  0.00    +0.226 C 
ATOM     18  C   UNL     1       2.327   0.741   2.710  0.00  0.00    +0.048 C 
ENDBRANCH  16  17
ENDBRANCH  12  16
ENDBRANCH   2   8
BRANCH   1  19
ATOM     19  C   UNL     1       1.109  -6.007   1.842  0.00  0.00    +0.195 C 
ATOM     20  O   UNL     1       1.541  -6.149   0.713  0.00  0.00    -0.287 OA
BRANCH  19  24
ATOM     21  C   UNL     1      -2.655  -4.139   2.457  0.00  0.00    +0.121 A 
ATOM     22  C   UNL     1      -2.129  -4.233   1.173  0.00  0.00    +0.046 A 
ATOM     23  C   UNL     1      -0.909  -4.838   0.969  0.00  0.00    +0.015 A 
ATOM     24  C   UNL     1      -0.199  -5.358   2.055  0.00  0.00    +0.022 A 
ATOM     25  C   UNL     1      -0.731  -5.261   3.345  0.00  0.00    +0.015 A 
ATOM     26  C   UNL     1      -1.949  -4.650   3.541  0.00  0.00    +0.046 A 
BRANCH  21  27
ATOM     27  O   UNL     1      -3.857  -3.542   2.654  0.00  0.00    -0.492 OA
BRANCH  27  29
ATOM     28  C   UNL     1      -5.858  -2.405   1.913  0.00  0.00    +0.048 C 
ATOM     29  C   UNL     1      -4.529  -3.039   1.497  0.00  0.00    +0.225 C 
ENDBRANCH  27  29
ENDBRANCH  21  27
ENDBRANCH  19  24
ENDBRANCH   1  19
BRANCH   3  30
ATOM     30  C   UNL     1       3.926  -6.191   6.195  0.00  0.00    +0.137 C 
BRANCH  30  31
ATOM     31  C   UNL     1       2.975  -6.165   7.394  0.00  0.00    +0.175 C 
BRANCH  31  32
ATOM     32  O   UNL     1       2.483  -7.484   7.641  0.00  0.00    -0.393 OA
ATOM     33  H   UNL     1       1.873  -7.543   8.389  0.00  0.00    +0.209 HD
ENDBRANCH  31  32
ENDBRANCH  30  31
ENDBRANCH   3  30
TORSDOF 11
