REMARK  Name = ZINC14584948
REMARK  8 active torsions:
REMARK  status: ('A' for Active; 'I' for Inactive)
REMARK    1  A    between atoms: C_1  and  C_2
REMARK    2  A    between atoms: C_2  and  N_3
REMARK    3  A    between atoms: N_3  and  C_4
REMARK    4  A    between atoms: C_5  and  N_20
REMARK    5  A    between atoms: N_6  and  C_13
REMARK    6  A    between atoms: C_13  and  C_14
REMARK    7  A    between atoms: C_21  and  C_23
REMARK    8  A    between atoms: C_25  and  C_33
REMARK                            x       y       z     vdW  Elec       q    Type
REMARK                         _______ _______ _______ _____ _____    ______ ____
ROOT
ATOM      1  N   UNL     1       5.115   6.041   0.199  0.00  0.00    -0.260 N 
ATOM      2  C   UNL     1       4.244   7.053   0.382  0.00  0.00    +0.252 C 
ATOM      3  O   UNL     1       4.652   8.194   0.488  0.00  0.00    -0.270 OA
ENDROOT
BRANCH   2   4
ATOM      4  C   UNL     1       2.793   6.776   0.453  0.00  0.00    +0.048 A 
ATOM      5  C   UNL     1       2.280   5.851   1.349  0.00  0.00    +0.042 A 
ATOM      6  C   UNL     1       0.894   5.615   1.379  0.00  0.00    +0.079 A 
ATOM      7  N   UNL     1       0.055   6.254   0.586  0.00  0.00    -0.246 NA
ATOM      8  C   UNL     1       0.464   7.162  -0.301  0.00  0.00    +0.072 A 
ATOM      9  C   UNL     1       1.843   7.471  -0.416  0.00  0.00    +0.013 A 
ATOM     10  C   UNL     1       2.267   8.424  -1.348  0.00  0.00    +0.011 A 
ATOM     11  C   UNL     1       1.348   9.048  -2.139  0.00  0.00    +0.001 A 
ATOM     12  C   UNL     1      -0.008   8.749  -2.031  0.00  0.00    +0.002 A 
ATOM     13  C   UNL     1      -0.455   7.827  -1.134  0.00  0.00    +0.028 A 
BRANCH   6  14
ATOM     14  C   UNL     1       0.360   4.625   2.333  0.00  0.00    +0.038 A 
ATOM     15  C   UNL     1      -0.939   4.239   2.541  0.00  0.00    +0.017 A 
ATOM     16  C   UNL     1      -1.200   3.281   3.493  0.00  0.00    +0.008 A 
ATOM     17  C   UNL     1      -0.167   2.756   4.205  0.00  0.00    +0.046 A 
ATOM     18  S   UNL     1       1.237   3.616   3.517  0.00  0.00    -0.095 S 
ENDBRANCH   6  14
ENDBRANCH   2   4
BRANCH   1  19
ATOM     19  C   UNL     1       6.502   6.287   0.247  0.00  0.00    +0.140 A 
ATOM     20  C   UNL     1       7.107   7.086  -0.702  0.00  0.00    +0.128 A 
ATOM     21  N   UNL     1       8.461   7.313  -0.624  0.00  0.00    -0.276 N 
ATOM     22  C   UNL     1       9.190   6.752   0.358  0.00  0.00    +0.331 A 
ATOM     23  O   UNL     1      10.387   6.960   0.405  0.00  0.00    -0.246 OA
ATOM     24  N   UNL     1       8.620   5.966   1.288  0.00  0.00    -0.273 N 
ATOM     25  H   UNL     1       9.184   5.562   2.007  0.00  0.00    +0.173 HD
ATOM     26  C   UNL     1       7.296   5.717   1.261  0.00  0.00    +0.277 A 
ATOM     27  O   UNL     1       6.788   5.003   2.110  0.00  0.00    -0.266 OA
BRANCH  20  28
ATOM     28  N   UNL     1       6.363   7.654  -1.708  0.00  0.00    -0.343 N 
ATOM     29  H   UNL     1       5.404   7.517  -1.739  0.00  0.00    +0.144 HD
ATOM     30  H   UNL     1       6.798   8.192  -2.388  0.00  0.00    +0.144 HD
ENDBRANCH  20  28
BRANCH  21  31
ATOM     31  C   UNL     1       9.115   8.164  -1.622  0.00  0.00    +0.163 C 
BRANCH  31  32
ATOM     32  C   UNL     1       9.570   7.318  -2.783  0.00  0.00    -0.028 A 
ATOM     33  C   UNL     1      10.834   6.758  -2.778  0.00  0.00    +0.005 A 
ATOM     34  C   UNL     1      11.249   5.979  -3.841  0.00  0.00    +0.000 A 
ATOM     35  C   UNL     1      10.404   5.767  -4.914  0.00  0.00    +0.000 A 
ATOM     36  C   UNL     1       9.142   6.331  -4.922  0.00  0.00    +0.000 A 
ATOM     37  C   UNL     1       8.725   7.106  -3.856  0.00  0.00    +0.005 A 
ENDBRANCH  31  32
ENDBRANCH  21  31
ENDBRANCH   1  19
BRANCH   1  39
ATOM     38  C   UNL     1       4.324   4.515  -1.542  0.00  0.00    +0.025 C 
ATOM     39  C   UNL     1       4.620   4.684  -0.050  0.00  0.00    +0.111 C 
ENDBRANCH   1  39
TORSDOF 7
