REMARK  Name = ZINC35507053
REMARK  6 active torsions:
REMARK  status: ('A' for Active; 'I' for Inactive)
REMARK    1  A    between atoms: C_1  and  C_2
REMARK    2  A    between atoms: C_4  and  C_8
REMARK    3  A    between atoms: C_5  and  C_7
REMARK    4  A    between atoms: C_8  and  C_10
REMARK    5  A    between atoms: C_8  and  N_21
REMARK    6  A    between atoms: N_21  and  C_22
REMARK                            x       y       z     vdW  Elec       q    Type
REMARK                         _______ _______ _______ _____ _____    ______ ____
ROOT
ATOM      1  C   UNL     1      -1.435  -3.386  -0.009  0.00  0.00    -0.006 C 
ENDROOT
BRANCH   1   2
ATOM      2  C   UNL     1      -1.618  -3.865  -1.426  0.00  0.00    -0.038 A 
ATOM      3  C   UNL     1      -2.692  -3.418  -2.176  0.00  0.00    +0.009 A 
ATOM      4  C   UNL     1      -2.856  -3.857  -3.470  0.00  0.00    -0.017 A 
ATOM      5  C   UNL     1      -1.954  -4.748  -4.040  0.00  0.00    +0.038 A 
ATOM      6  C   UNL     1      -0.875  -5.194  -3.279  0.00  0.00    +0.043 A 
ATOM      7  C   UNL     1      -0.709  -4.747  -1.983  0.00  0.00    +0.045 A 
ATOM      8 CL   UNL     1       0.642  -5.302  -1.045  0.00  0.00    -0.083 Cl
ATOM      9  N   UNL     1      -2.329  -5.043  -5.351  0.00  0.00    -0.285 N 
ATOM     10  C   UNL     1      -3.449  -4.397  -5.716  0.00  0.00    +0.222 C 
ATOM     11  O   UNL     1      -4.000  -4.465  -6.795  0.00  0.00    -0.275 OA
ATOM     12  C   UNL     1      -3.894  -3.569  -4.530  0.00  0.00    +0.133 C 
ATOM     13  H   UNL     1      -1.837  -5.644  -5.932  0.00  0.00    +0.155 HD
ENDBRANCH   1   2
BRANCH   1  17
ATOM     14  C   UNL     1       1.253   0.683  -1.482  0.00  0.00    +0.086 C 
ATOM     15  C   UNL     1       0.633  -0.412  -0.652  0.00  0.00    +0.102 A 
ATOM     16  C   UNL     1      -0.192  -1.372  -1.107  0.00  0.00    +0.047 A 
ATOM     17  C   UNL     1      -0.531  -2.180   0.002  0.00  0.00    -0.016 A 
ATOM     18  C   UNL     1       0.107  -1.666   1.068  0.00  0.00    +0.104 A 
ATOM     19  O   UNL     1       0.815  -0.598   0.665  0.00  0.00    -0.465 OA
ATOM     20  C   UNL     1       0.042  -2.200   2.476  0.00  0.00    +0.086 C 
ENDBRANCH   1  17
BRANCH   1  21
ATOM     21  N   UNL     1      -2.741  -3.025   0.558  0.00  0.00    +0.385 N 
ATOM     22  C   UNL     1      -3.581  -4.226   0.659  0.00  0.00    -0.099 C 
ATOM     23  H   UNL     1      -2.611  -2.627   1.477  0.00  0.00    -0.085 HD
ATOM     24  H   UNL     1      -3.192  -2.348  -0.040  0.00  0.00    -0.085 HD
ENDBRANCH   1  21
TORSDOF 3
