REMARK  Name = ZINC21262811
REMARK  11 active torsions:
REMARK  status: ('A' for Active; 'I' for Inactive)
REMARK    1  A    between atoms: C_1  and  C_2
REMARK    2  A    between atoms: C_2  and  C_28
REMARK    3  A    between atoms: C_4  and  N_10
REMARK    4  A    between atoms: C_6  and  C_8
REMARK    5  A    between atoms: C_6  and  C_9
REMARK    6  A    between atoms: N_10  and  C_11
REMARK    7  A    between atoms: C_11  and  N_13
REMARK    8  A    between atoms: N_13  and  C_14
REMARK    9  A    between atoms: N_13  and  C_21
REMARK   10  A    between atoms: C_14  and  C_15
REMARK   11  A    between atoms: C_21  and  C_22
REMARK                            x       y       z     vdW  Elec       q    Type
REMARK                         _______ _______ _______ _____ _____    ______ ____
ROOT
ATOM      1  C   UNL     1      -0.159   1.756  -3.602  0.00  0.00    +0.133 C 
ATOM      2  S   UNL     1      -1.091   3.190  -3.688  0.00  0.00    -0.019 S 
ENDROOT
BRANCH   1   3
ATOM      3  N   UNL     1      -0.054   1.089  -2.435  0.00  0.00    -0.324 N 
ATOM      4  H   UNL     1       0.544   0.168  -2.380  0.00  0.00    +0.148 HD
BRANCH   3   8
ATOM      5  C   UNL     1      -0.116   0.812   2.468  0.00  0.00    -0.010 C 
ATOM      6  C   UNL     1      -0.718   1.580   1.270  0.00  0.00    -0.072 C 
ATOM      7  C   UNL     1      -0.013   1.088   0.008  0.00  0.00    +0.009 C 
ATOM      8  C   UNL     1      -0.740   1.593  -1.238  0.00  0.00    +0.069 C 
ATOM      9  C   UNL     1      -2.171   1.057  -1.215  0.00  0.00    +0.009 C 
ATOM     10  C   UNL     1      -2.903   1.546   0.033  0.00  0.00    -0.072 C 
ATOM     11  N   UNL     1      -2.145   1.340   1.249  0.00  0.00    +0.386 N 
ATOM     12  C   UNL     1      -3.281   3.022  -0.141  0.00  0.00    -0.010 C 
ATOM     13  C   UNL     1      -4.220   0.746   0.143  0.00  0.00    -0.010 C 
ATOM     14  C   UNL     1      -0.409   3.067   1.483  0.00  0.00    -0.010 C 
ATOM     15  H   UNL     1      -2.344   0.289   1.508  0.00  0.00    -0.084 HD
ATOM     16  H   UNL     1      -2.638   1.997   1.980  0.00  0.00    -0.084 HD
ENDBRANCH   3   8
ENDBRANCH   1   3
BRANCH   1  17
ATOM     17  N   UNL     1       0.470   1.294  -4.700  0.00  0.00    -0.306 N 
BRANCH  17  18
ATOM     18  C   UNL     1       0.357   2.019  -5.968  0.00  0.00    +0.142 C 
BRANCH  18  19
ATOM     19  C   UNL     1       1.466   3.034  -6.068  0.00  0.00    -0.030 A 
ATOM     20  C   UNL     1       1.274   4.317  -5.590  0.00  0.00    +0.005 A 
ATOM     21  C   UNL     1       2.293   5.247  -5.677  0.00  0.00    +0.000 A 
ATOM     22  C   UNL     1       3.501   4.897  -6.251  0.00  0.00    +0.000 A 
ATOM     23  C   UNL     1       3.692   3.616  -6.734  0.00  0.00    +0.000 A 
ATOM     24  C   UNL     1       2.674   2.684  -6.642  0.00  0.00    +0.005 A 
ENDBRANCH  18  19
ENDBRANCH  17  18
BRANCH  17  25
ATOM     25  C   UNL     1       1.268   0.068  -4.627  0.00  0.00    +0.138 C 
BRANCH  25  26
ATOM     26  C   UNL     1       0.380  -1.138  -4.941  0.00  0.00    +0.136 C 
ATOM     27  C   UNL     1       1.208  -2.435  -4.859  0.00  0.00    +0.035 C 
ATOM     28  C   UNL     1       0.483  -3.280  -3.784  0.00  0.00    +0.031 C 
ATOM     29  C   UNL     1      -0.931  -2.646  -3.771  0.00  0.00    +0.160 C 
ATOM     30  O   UNL     1      -0.673  -1.237  -3.968  0.00  0.00    -0.375 OA
ENDBRANCH  25  26
ENDBRANCH  17  25
ENDBRANCH   1  17
TORSDOF 7
