REMARK  Name = ZINC61496834
REMARK  7 active torsions:
REMARK  status: ('A' for Active; 'I' for Inactive)
REMARK    1  A    between atoms: C_1  and  C_2
REMARK    2  A    between atoms: C_2  and  C_3
REMARK    3  A    between atoms: C_3  and  C_5
REMARK    4  A    between atoms: C_3  and  N_20
REMARK    5  A    between atoms: C_8  and  C_10
REMARK    6  A    between atoms: C_11  and  C_19
REMARK    7  A    between atoms: C_15  and  N_16
REMARK                            x       y       z     vdW  Elec       q    Type
REMARK                         _______ _______ _______ _____ _____    ______ ____
ROOT
ATOM      1  C   UNL     1      -0.751  -2.437  -0.262  0.00  0.00    +0.204 A 
ATOM      2  N   UNL     1      -0.455  -3.412  -1.076  0.00  0.00    -0.114 NA
ATOM      3  N   UNL     1      -0.708  -4.538  -0.509  0.00  0.00    -0.107 NA
ATOM      4  C   UNL     1      -1.179  -4.320   0.696  0.00  0.00    +0.251 A 
ATOM      5  O   UNL     1      -1.211  -2.984   0.877  0.00  0.00    -0.422 OA
ENDROOT
BRANCH   4   6
ATOM      6  C   UNL     1      -1.594  -5.347   1.675  0.00  0.00    +0.071 A 
ATOM      7  C   UNL     1      -1.004  -5.389   2.940  0.00  0.00    -0.036 A 
ATOM      8  C   UNL     1      -1.395  -6.350   3.849  0.00  0.00    +0.004 A 
ATOM      9  C   UNL     1      -2.371  -7.271   3.509  0.00  0.00    +0.003 A 
ATOM     10  C   UNL     1      -2.959  -7.235   2.258  0.00  0.00    +0.033 A 
ATOM     11  C   UNL     1      -2.581  -6.276   1.341  0.00  0.00    +0.139 A 
ATOM     12  C   UNL     1       0.058  -4.387   3.311  0.00  0.00    +0.044 C 
BRANCH  11  13
ATOM     13  N   UNL     1      -3.216  -6.235   0.005  0.00  0.00    +0.057 N 
ATOM     14  O   UNL     1      -3.981  -7.110  -0.328  0.00  0.00    -0.126 OA
ATOM     15  O   UNL     1      -2.970  -5.326  -0.754  0.00  0.00    -0.126 OA
ENDBRANCH  11  13
ENDBRANCH   4   6
BRANCH   1  16
ATOM     16  C   UNL     1      -0.601  -0.965  -0.544  0.00  0.00    +0.014 C 
BRANCH  16  17
ATOM     17  N   UNL     1      -1.121  -0.667  -1.885  0.00  0.00    +0.386 N 
ATOM     18  H   UNL     1      -0.603  -1.196  -2.571  0.00  0.00    -0.089 HD
ATOM     19  H   UNL     1      -2.096  -0.920  -1.931  0.00  0.00    -0.089 HD
ATOM     20  H   UNL     1      -1.020   0.319  -2.074  0.00  0.00    -0.089 HD
ENDBRANCH  16  17
BRANCH  16  22
ATOM     21  C   UNL     1       1.021   0.934  -0.636  0.00  0.00    +0.002 C 
ATOM     22  C   UNL     1       0.879  -0.581  -0.474  0.00  0.00    -0.010 C 
ENDBRANCH  16  22
ENDBRANCH   1  16
TORSDOF 5
