REMARK  Name = ZINC39103361
REMARK  3 active torsions:
REMARK  status: ('A' for Active; 'I' for Inactive)
REMARK    1  A    between atoms: C_1  and  C_2
REMARK    2  A    between atoms: C_2  and  C_3
REMARK    3  A    between atoms: C_2  and  C_4
REMARK                            x       y       z     vdW  Elec       q    Type
REMARK                         _______ _______ _______ _____ _____    ______ ____
ROOT
ATOM      1  C   UNL     1      -1.433  -0.534   0.013  0.00  0.00    +0.227 C 
ATOM      2  N   UNL     1      -1.424  -1.994   0.130  0.00  0.00    -0.202 N 
ATOM      3  C   UNL     1      -2.678  -2.271   0.896  0.00  0.00    +0.146 C 
ATOM      4  C   UNL     1      -2.357  -3.648   1.490  0.00  0.00    +0.194 C 
ATOM      5  N   UNL     1      -1.235  -4.122   0.660  0.00  0.00    -0.170 NA
ATOM      6  N   UNL     1      -0.799  -3.217  -0.048  0.00  0.00    -0.081 NA
ATOM      7  C   UNL     1      -2.627  -1.131   1.929  0.00  0.00    +0.188 C 
ATOM      8  O   UNL     1      -2.139  -0.009   1.153  0.00  0.00    -0.355 OA
ENDROOT
BRANCH   1  10
ATOM      9  C   UNL     1      -0.019   1.526   0.010  0.00  0.00    +0.011 C 
ATOM     10  C   UNL     1       0.002  -0.004   0.002  0.00  0.00    +0.032 C 
ATOM     11  C   UNL     1       0.742  -0.511   1.242  0.00  0.00    +0.011 C 
ENDBRANCH   1  10
TORSDOF 1
