REMARK  Name = ZINC54441429
REMARK  4 active torsions:
REMARK  status: ('A' for Active; 'I' for Inactive)
REMARK    1  A    between atoms: C_1  and  C_2
REMARK    2  A    between atoms: C_2  and  C_3
REMARK    3  A    between atoms: C_2  and  N_4
REMARK    4  A    between atoms: C_7  and  C_10
REMARK                            x       y       z     vdW  Elec       q    Type
REMARK                         _______ _______ _______ _____ _____    ______ ____
ROOT
ATOM      1  N   UNL     1      -1.372  -0.511   0.012  0.00  0.00    -0.295 N 
ATOM      2  C   UNL     1      -1.648  -1.758  -0.494  0.00  0.00    +0.315 A 
ATOM      3  N   UNL     1      -2.833  -2.322  -0.548  0.00  0.00    -0.174 NA
ATOM      4  C   UNL     1      -2.735  -3.540  -1.105  0.00  0.00    +0.204 A 
ATOM      5  N   UNL     1      -1.480  -3.764  -1.413  0.00  0.00    -0.054 NA
ATOM      6  O   UNL     1      -0.754  -2.607  -1.026  0.00  0.00    -0.317 OA
ATOM      7  H   UNL     1      -2.087   0.033   0.377  0.00  0.00    +0.151 HD
ENDROOT
BRANCH   4   8
ATOM      8  C   UNL     1      -3.861  -4.479  -1.334  0.00  0.00    +0.023 A 
ATOM      9  C   UNL     1      -5.162  -4.109  -0.959  0.00  0.00    +0.012 A 
ATOM     10  C   UNL     1      -6.210  -4.949  -1.157  0.00  0.00    +0.009 A 
ATOM     11  C   UNL     1      -5.999  -6.209  -1.746  0.00  0.00    -0.018 A 
ATOM     12  C   UNL     1      -7.066  -7.097  -1.962  0.00  0.00    +0.008 A 
ATOM     13  C   UNL     1      -6.830  -8.309  -2.534  0.00  0.00    +0.001 A 
ATOM     14  C   UNL     1      -5.542  -8.687  -2.910  0.00  0.00    +0.001 A 
ATOM     15  C   UNL     1      -4.484  -7.854  -2.717  0.00  0.00    +0.008 A 
ATOM     16  C   UNL     1      -4.689  -6.593  -2.129  0.00  0.00    -0.017 A 
ATOM     17  C   UNL     1      -3.621  -5.707  -1.920  0.00  0.00    +0.020 A 
ENDBRANCH   4   8
BRANCH   1  19
ATOM     18  C   UNL     1      -0.019   1.526   0.010  0.00  0.00    +0.027 C 
ATOM     19  C   UNL     1       0.002  -0.004   0.002  0.00  0.00    +0.068 C 
ATOM     20  C   UNL     1       0.742  -0.511   1.242  0.00  0.00    +0.027 C 
ENDBRANCH   1  19
TORSDOF 2
