REMARK  Name = ZINC57846190
REMARK  11 active torsions:
REMARK  status: ('A' for Active; 'I' for Inactive)
REMARK    1  A    between atoms: C_1  and  C_2
REMARK    2  A    between atoms: C_2  and  C_3
REMARK    3  A    between atoms: C_3  and  C_5
REMARK    4  A    between atoms: C_3  and  N_24
REMARK    5  A    between atoms: C_5  and  N_6
REMARK    6  A    between atoms: C_9  and  C_13
REMARK    7  A    between atoms: C_9  and  C_15
REMARK    8  A    between atoms: C_13  and  C_14
REMARK    9  A    between atoms: C_18  and  C_21
REMARK   10  A    between atoms: C_21  and  C_22
REMARK   11  A    between atoms: C_21  and  C_23
REMARK                            x       y       z     vdW  Elec       q    Type
REMARK                         _______ _______ _______ _____ _____    ______ ____
ROOT
ATOM      1  N   UNL     1       1.427  -2.505  -2.462  0.00  0.00    -0.226 N 
ATOM      2  C   UNL     1       0.702  -2.852  -3.543  0.00  0.00    +0.251 C 
ATOM      3  O   UNL     1      -0.505  -2.825  -3.656  0.00  0.00    -0.272 OA
ATOM      4  C   UNL     1       1.710  -3.284  -4.590  0.00  0.00    +0.138 C 
ATOM      5  N   UNL     1       3.007  -3.113  -3.913  0.00  0.00    -0.281 N 
ATOM      6  C   UNL     1       2.739  -2.650  -2.679  0.00  0.00    +0.310 C 
ATOM      7  O   UNL     1       3.593  -2.396  -1.853  0.00  0.00    -0.252 OA
ATOM      8  H   UNL     1       3.883  -3.296  -4.286  0.00  0.00    +0.152 HD
ENDROOT
BRANCH   4   9
ATOM      9  C   UNL     1       1.495  -4.726  -4.970  0.00  0.00    -0.015 A 
ATOM     10  C   UNL     1       0.658  -5.047  -6.022  0.00  0.00    +0.006 A 
ATOM     11  C   UNL     1       0.462  -6.370  -6.371  0.00  0.00    +0.004 A 
ATOM     12  C   UNL     1       1.102  -7.373  -5.666  0.00  0.00    -0.045 A 
ATOM     13  C   UNL     1       1.939  -7.052  -4.614  0.00  0.00    +0.004 A 
ATOM     14  C   UNL     1       2.139  -5.728  -4.269  0.00  0.00    +0.006 A 
BRANCH  12  15
ATOM     15  C   UNL     1       0.887  -8.815  -6.045  0.00  0.00    +0.013 C 
ATOM     16  C   UNL     1       2.226  -9.446  -6.434  0.00  0.00    +0.012 C 
ATOM     17  C   UNL     1       0.293  -9.572  -4.856  0.00  0.00    +0.012 C 
ENDBRANCH  12  15
ENDBRANCH   4   9
BRANCH   4  18
ATOM     18  C   UNL     1       1.623  -2.382  -5.824  0.00  0.00    +0.037 C 
ATOM     19  C   UNL     1       2.021  -0.955  -5.442  0.00  0.00    +0.007 C 
ENDBRANCH   4  18
BRANCH   1  20
ATOM     20  C   UNL     1       0.849  -2.021  -1.205  0.00  0.00    +0.102 C 
BRANCH  20  21
ATOM     21  C   UNL     1       0.718  -0.497  -1.257  0.00  0.00    -0.057 C 
BRANCH  21  22
ATOM     22  N   UNL     1      -0.057  -0.113  -2.444  0.00  0.00    +0.381 N 
ATOM     23  H   UNL     1      -0.975  -0.528  -2.395  0.00  0.00    -0.090 HD
ATOM     24  H   UNL     1      -0.143   0.892  -2.478  0.00  0.00    -0.090 HD
ATOM     25  H   UNL     1       0.415  -0.438  -3.274  0.00  0.00    -0.090 HD
ENDBRANCH  21  22
BRANCH  21  27
ATOM     26  C   UNL     1      -0.019   1.526   0.010  0.00  0.00    +0.002 C 
ATOM     27  C   UNL     1       0.002  -0.004   0.002  0.00  0.00    -0.018 C 
ENDBRANCH  21  27
ENDBRANCH  20  21
ENDBRANCH   1  20
TORSDOF 7
