REMARK  Name = ZINC20034213
REMARK  5 active torsions:
REMARK  status: ('A' for Active; 'I' for Inactive)
REMARK    1  A    between atoms: C_1  and  C_2
REMARK    2  A    between atoms: C_9  and  C_13
REMARK    3  A    between atoms: C_9  and  O_17
REMARK    4  A    between atoms: C_18  and  C_20
REMARK    5  A    between atoms: C_24  and  N_26
REMARK                            x       y       z     vdW  Elec       q    Type
REMARK                         _______ _______ _______ _____ _____    ______ ____
ROOT
ATOM      1  C   UNL     1       5.224   8.955   1.000  0.00  0.00    +0.007 C 
ATOM      2  C   UNL     1       4.827   8.606  -0.436  0.00  0.00    -0.013 C 
ATOM      3  C   UNL     1       5.362   7.218  -0.780  0.00  0.00    +0.009 C 
ATOM      4  C   UNL     1       4.831   6.180   0.221  0.00  0.00    +0.053 C 
ATOM      5  C   UNL     1       3.327   6.354   0.265  0.00  0.00    +0.045 C 
ATOM      6  N   UNL     1       2.420   5.491   0.119  0.00  0.00    -0.183 NA
ATOM      7  N   UNL     1       1.125   6.010   0.110  0.00  0.00    -0.148 N 
ATOM      8  C   UNL     1       1.204   7.477   0.242  0.00  0.00    +0.259 C 
ATOM      9  C   UNL     1       2.699   7.723   0.489  0.00  0.00    +0.096 C 
ATOM     10  C   UNL     1       3.301   8.659  -0.560  0.00  0.00    +0.017 C 
ATOM     11  C   UNL     1      -0.010   5.292  -0.007  0.00  0.00    +0.269 C 
ATOM     12  O   UNL     1      -1.080   5.859  -0.112  0.00  0.00    -0.268 OA
ENDROOT
BRANCH  11  13
ATOM     13  C   UNL     1       0.048   3.815  -0.007  0.00  0.00    +0.041 A 
ATOM     14  C   UNL     1       1.255   3.160   0.245  0.00  0.00    +0.013 A 
ATOM     15  C   UNL     1       1.301   1.782   0.243  0.00  0.00    +0.003 A 
ATOM     16  C   UNL     1       0.155   1.048  -0.007  0.00  0.00    +0.033 A 
ATOM     17  C   UNL     1      -1.043   1.690  -0.263  0.00  0.00    +0.127 A 
ATOM     18  C   UNL     1      -1.105   3.069  -0.259  0.00  0.00    +0.045 A 
BRANCH  17  19
ATOM     19  N   UNL     1      -2.263   0.898  -0.536  0.00  0.00    +0.056 N 
ATOM     20  O   UNL     1      -2.211  -0.319  -0.536  0.00  0.00    -0.126 OA
ATOM     21  O   UNL     1      -3.318   1.462  -0.761  0.00  0.00    -0.126 OA
ENDBRANCH  17  19
ENDBRANCH  11  13
BRANCH   8  22
ATOM     22  C   UNL     1       0.747   8.162  -1.047  0.00  0.00    +0.438 C 
ATOM     23  F   UNL     1      -0.619   7.930  -1.239  0.00  0.00    -0.166 F 
ATOM     24  F   UNL     1       0.978   9.539  -0.952  0.00  0.00    -0.166 F 
ATOM     25  F   UNL     1       1.465   7.643  -2.131  0.00  0.00    -0.166 F 
ENDBRANCH   8  22
BRANCH   8  26
ATOM     26  O   UNL     1       0.430   7.926   1.356  0.00  0.00    -0.363 OA
ATOM     27  H   UNL     1       0.382   8.999   1.596  0.00  0.00    +0.212 HD
ENDBRANCH   8  26
TORSDOF 4
