REMARK  Name = ZINC06624570
REMARK  6 active torsions:
REMARK  status: ('A' for Active; 'I' for Inactive)
REMARK    1  A    between atoms: C_1  and  C_2
REMARK    2  A    between atoms: C_2  and  C_3
REMARK    3  A    between atoms: C_2  and  C_4
REMARK    4  A    between atoms: C_4  and  C_5
REMARK    5  A    between atoms: C_5  and  N_6
REMARK    6  A    between atoms: C_29  and  C_31
REMARK                            x       y       z     vdW  Elec       q    Type
REMARK                         _______ _______ _______ _____ _____    ______ ____
ROOT
ATOM      1  N   UNL     1       0.121   4.902  -0.977  0.00  0.00    -0.269 N 
ATOM      2  C   UNL     1      -0.978   4.761  -1.807  0.00  0.00    +0.042 A 
ATOM      3  C   UNL     1      -1.210   5.306  -3.070  0.00  0.00    +0.024 A 
ATOM      4  C   UNL     1      -2.413   4.995  -3.684  0.00  0.00    +0.002 A 
ATOM      5  C   UNL     1      -3.352   4.181  -3.082  0.00  0.00    +0.000 A 
ATOM      6  C   UNL     1      -3.133   3.632  -1.823  0.00  0.00    +0.008 A 
ATOM      7  C   UNL     1      -1.939   3.937  -1.206  0.00  0.00    +0.012 A 
ATOM      8  C   UNL     1      -1.374   3.538   0.118  0.00  0.00    +0.181 C 
ATOM      9  C   UNL     1      -0.025   4.216   0.177  0.00  0.00    +0.254 C 
ATOM     10  O   UNL     1       0.775   4.157   1.087  0.00  0.00    -0.272 OA
ATOM     11  C   UNL     1      -2.246   4.013   1.246  0.00  0.00    +0.058 A 
ATOM     12  C   UNL     1      -2.924   3.172   2.059  0.00  0.00    -0.015 A 
ATOM     13  C   UNL     1      -3.651   3.993   3.006  0.00  0.00    +0.003 A 
ATOM     14  C   UNL     1      -4.509   3.684   4.065  0.00  0.00    +0.010 A 
ATOM     15  C   UNL     1      -5.033   4.740   4.769  0.00  0.00    +0.001 A 
ATOM     16  C   UNL     1      -4.732   6.056   4.453  0.00  0.00    +0.002 A 
ATOM     17  C   UNL     1      -3.885   6.390   3.411  0.00  0.00    +0.026 A 
ATOM     18  C   UNL     1      -3.339   5.338   2.679  0.00  0.00    +0.047 A 
ATOM     19  N   UNL     1      -2.487   5.310   1.613  0.00  0.00    -0.355 N 
ATOM     20  H   UNL     1      -2.108   6.092   1.181  0.00  0.00    +0.166 HD
ATOM     21  C   UNL     1      -2.893   1.669   1.952  0.00  0.00    +0.056 C 
ATOM     22  C   UNL     1      -2.399   1.274   0.555  0.00  0.00    +0.114 C 
ATOM     23  N   UNL     1      -1.217   2.083   0.217  0.00  0.00    -0.279 N 
ATOM     24  C   UNL     1      -0.018   1.503   0.010  0.00  0.00    +0.214 C 
ATOM     25  O   UNL     1       0.961   2.189  -0.191  0.00  0.00    -0.276 OA
ATOM     26  C   UNL     1       0.103   0.001   0.022  0.00  0.00    +0.109 C 
ENDROOT
BRANCH   1  27
ATOM     27  C   UNL     1       1.303   5.701  -1.312  0.00  0.00    +0.114 C 
BRANCH  27  28
ATOM     28  C   UNL     1       2.323   4.822  -2.039  0.00  0.00    +0.022 C 
BRANCH  28  30
ATOM     29  C   UNL     1       4.252   6.103  -1.102  0.00  0.00    +0.007 C 
ATOM     30  C   UNL     1       3.557   5.656  -2.389  0.00  0.00    -0.016 C 
ATOM     31  C   UNL     1       4.522   4.813  -3.224  0.00  0.00    +0.007 C 
ENDBRANCH  28  30
ENDBRANCH  27  28
ENDBRANCH   1  27
TORSDOF 3
