REMARK  Name = ZINC07986473
REMARK  10 active torsions:
REMARK  status: ('A' for Active; 'I' for Inactive)
REMARK    1  A    between atoms: C_1  and  C_2
REMARK    2  A    between atoms: C_5  and  C_8
REMARK    3  A    between atoms: N_10  and  C_11
REMARK    4  A    between atoms: C_11  and  C_13
REMARK    5  A    between atoms: C_11  and  C_16
REMARK    6  A    between atoms: C_13  and  C_14
REMARK    7  A    between atoms: C_13  and  C_15
REMARK    8  A    between atoms: N_18  and  N_19
REMARK    9  A    between atoms: C_20  and  C_22
REMARK   10  A    between atoms: C_29  and  C_32
REMARK                            x       y       z     vdW  Elec       q    Type
REMARK                         _______ _______ _______ _____ _____    ______ ____
ROOT
ATOM      1  C   UNL     1       0.012   1.131   0.020  0.00  0.00    +0.250 C 
ATOM      2  O   UNL     1       0.037  -0.005   0.445  0.00  0.00    -0.272 OA
ATOM      3  N   UNL     1      -1.149   1.665  -0.408  0.00  0.00    -0.233 N 
ATOM      4  H   UNL     1      -1.157   2.545  -0.815  0.00  0.00    +0.173 HD
ENDROOT
BRANCH   3   5
ATOM      5  N   UNL     1      -2.344   0.948  -0.266  0.00  0.00    -0.230 N 
ATOM      6  C   UNL     1      -3.505   1.482  -0.694  0.00  0.00    +0.267 C 
ATOM      7  O   UNL     1      -3.515   2.586  -1.204  0.00  0.00    -0.268 OA
ATOM      8  H   UNL     1      -2.336   0.067   0.141  0.00  0.00    +0.173 HD
BRANCH   6   9
ATOM      9  C   UNL     1      -4.756   0.731  -0.545  0.00  0.00    +0.076 A 
ATOM     10  C   UNL     1      -6.039   1.095  -0.907  0.00  0.00    +0.024 A 
ATOM     11  C   UNL     1      -7.067   0.200  -0.662  0.00  0.00    -0.036 A 
ATOM     12  C   UNL     1      -6.726  -0.980  -0.065  0.00  0.00    -0.006 A 
ATOM     13  S   UNL     1      -5.020  -0.887   0.160  0.00  0.00    -0.088 S 
ATOM     14  C   UNL     1      -7.644  -2.102   0.310  0.00  0.00    +0.043 C 
ATOM     15  C   UNL     1      -9.088  -1.582   0.262  0.00  0.00    +0.009 C 
ATOM     16  C   UNL     1      -9.296  -0.826  -1.053  0.00  0.00    -0.009 C 
ATOM     17  C   UNL     1      -8.521   0.492  -1.025  0.00  0.00    +0.039 C 
ATOM     18  C   UNL     1     -10.786  -0.535  -1.242  0.00  0.00    +0.008 C 
ENDBRANCH   6   9
ENDBRANCH   3   5
BRANCH   1  19
ATOM     19  C   UNL     1       1.281   1.943  -0.035  0.00  0.00    +0.163 C 
BRANCH  19  22
ATOM     20  C   UNL     1       3.612   1.442  -0.532  0.00  0.00    +0.245 C 
ATOM     21  O   UNL     1       3.712   2.545  -1.033  0.00  0.00    -0.270 OA
ATOM     22  N   UNL     1       2.438   1.045  -0.005  0.00  0.00    -0.300 N 
ATOM     23  H   UNL     1       2.358   0.164   0.394  0.00  0.00    +0.150 HD
BRANCH  20  28
ATOM     24  C   UNL     1       8.157  -2.087  -0.414  0.00  0.00    +0.044 C 
ATOM     25  C   UNL     1       6.967  -1.163  -0.445  0.00  0.00    -0.050 A 
ATOM     26  C   UNL     1       7.084   0.092  -1.016  0.00  0.00    +0.004 A 
ATOM     27  C   UNL     1       5.998   0.943  -1.048  0.00  0.00    +0.013 A 
ATOM     28  C   UNL     1       4.780   0.535  -0.502  0.00  0.00    +0.037 A 
ATOM     29  C   UNL     1       4.670  -0.730   0.076  0.00  0.00    +0.013 A 
ATOM     30  C   UNL     1       5.762  -1.573   0.097  0.00  0.00    +0.004 A 
ENDBRANCH  20  28
ENDBRANCH  19  22
BRANCH  19  31
ATOM     31  C   UNL     1       1.335   2.885   1.170  0.00  0.00    +0.012 C 
ATOM     32  C   UNL     1       1.452   2.063   2.455  0.00  0.00    +0.009 C 
ATOM     33  C   UNL     1       2.550   3.806   1.042  0.00  0.00    +0.009 C 
ENDBRANCH  19  31
ENDBRANCH   1  19
TORSDOF 6
