REMARK  Name = ZINC18200721
REMARK  7 active torsions:
REMARK  status: ('A' for Active; 'I' for Inactive)
REMARK    1  A    between atoms: C_1  and  O_2
REMARK    2  A    between atoms: O_2  and  C_3
REMARK    3  A    between atoms: C_6  and  C_11
REMARK    4  A    between atoms: C_8  and  O_9
REMARK    5  A    between atoms: O_9  and  C_10
REMARK    6  A    between atoms: C_16  and  C_25
REMARK    7  A    between atoms: C_28  and  C_31
REMARK                            x       y       z     vdW  Elec       q    Type
REMARK                         _______ _______ _______ _____ _____    ______ ____
ROOT
ATOM      1  C   UNL     1      -0.013   1.086   0.008  0.00  0.00    +0.032 C 
ATOM      2  C   UNL     1      -0.740   1.585   1.258  0.00  0.00    +0.060 C 
ATOM      3  C   UNL     1      -2.168   1.092   1.246  0.00  0.00    +0.020 C 
ATOM      4  C   UNL     1      -2.824   0.894   0.082  0.00  0.00    +0.041 C 
ATOM      5  C   UNL     1      -4.254   0.402   0.038  0.00  0.00    +0.175 C 
ATOM      6  N   UNL     1      -4.858   0.507   1.360  0.00  0.00    -0.219 N 
ATOM      7  C   UNL     1      -4.144   0.719   2.493  0.00  0.00    +0.220 A 
ATOM      8  N   UNL     1      -4.976   0.750   3.498  0.00  0.00    -0.180 NA
ATOM      9  C   UNL     1      -6.226   0.570   3.050  0.00  0.00    +0.233 A 
ATOM     10  N   UNL     1      -6.196   0.419   1.744  0.00  0.00    -0.132 NA
ATOM     11  N   UNL     1      -7.375   0.546   3.842  0.00  0.00    -0.326 N 
ATOM     12  N   UNL     1      -2.766   0.862   2.462  0.00  0.00    -0.287 N 
ATOM     13  C   UNL     1      -2.193   1.137  -1.152  0.00  0.00    +0.164 C 
ATOM     14  O   UNL     1      -2.817   0.970  -2.181  0.00  0.00    -0.292 OA
ATOM     15  C   UNL     1      -0.765   1.599  -1.225  0.00  0.00    +0.088 C 
ATOM     16  H   UNL     1      -8.244   0.409   3.432  0.00  0.00    +0.145 HD
ATOM     17  H   UNL     1      -7.305   0.667   4.802  0.00  0.00    +0.145 HD
ATOM     18  H   UNL     1      -2.239   0.802   3.274  0.00  0.00    +0.155 HD
ENDROOT
BRANCH   1  22
ATOM     19  C   UNL     1       3.992   2.587  -0.022  0.00  0.00    +0.161 A 
ATOM     20  C   UNL     1       2.920   3.465  -0.007  0.00  0.00    +0.049 A 
ATOM     21  C   UNL     1       1.626   2.977  -0.003  0.00  0.00    +0.008 A 
ATOM     22  C   UNL     1       1.399   1.613  -0.003  0.00  0.00    -0.040 A 
ATOM     23  C   UNL     1       2.464   0.731  -0.018  0.00  0.00    +0.053 A 
ATOM     24  C   UNL     1       3.763   1.214  -0.027  0.00  0.00    +0.162 A 
BRANCH  19  26
ATOM     25  C   UNL     1       5.423   4.486  -0.026  0.00  0.00    +0.277 C 
ATOM     26  O   UNL     1       5.264   3.066  -0.032  0.00  0.00    -0.491 OA
ENDBRANCH  19  26
BRANCH  24  27
ATOM     27  O   UNL     1       4.812   0.349  -0.042  0.00  0.00    -0.491 OA
ATOM     28  C   UNL     1       4.502  -1.046  -0.046  0.00  0.00    +0.277 C 
ENDBRANCH  24  27
ENDBRANCH   1  22
BRANCH   5  29
ATOM     29  C   UNL     1      -4.274  -1.037  -0.408  0.00  0.00    -0.018 A 
ATOM     30  C   UNL     1      -3.606  -1.998   0.328  0.00  0.00    +0.006 A 
ATOM     31  C   UNL     1      -3.628  -3.319  -0.079  0.00  0.00    +0.013 A 
ATOM     32  C   UNL     1      -4.310  -3.678  -1.227  0.00  0.00    +0.055 A 
ATOM     33  C   UNL     1      -4.974  -2.716  -1.966  0.00  0.00    +0.013 A 
ATOM     34  C   UNL     1      -4.956  -1.395  -1.556  0.00  0.00    +0.006 A 
BRANCH  32  35
ATOM     35  C   UNL     1      -4.330  -5.117  -1.673  0.00  0.00    +0.417 C 
ATOM     36  F   UNL     1      -3.246  -5.357  -2.523  0.00  0.00    -0.166 F 
ATOM     37  F   UNL     1      -4.241  -5.953  -0.555  0.00  0.00    -0.166 F 
ATOM     38  F   UNL     1      -5.524  -5.377  -2.355  0.00  0.00    -0.166 F 
ENDBRANCH  32  35
ENDBRANCH   5  29
TORSDOF 5
