REMARK  Name = ZINC65216098
REMARK  4 active torsions:
REMARK  status: ('A' for Active; 'I' for Inactive)
REMARK    1  A    between atoms: C_1  and  C_2
REMARK    2  A    between atoms: C_12  and  C_15
REMARK    3  A    between atoms: C_17  and  C_20
REMARK    4  A    between atoms: C_20  and  N_21
REMARK                            x       y       z     vdW  Elec       q    Type
REMARK                         _______ _______ _______ _____ _____    ______ ____
ROOT
ATOM      1  C   UNL     1       5.158  -5.208   1.697  0.00  0.00    +0.203 A 
ATOM      2  N   UNL     1       5.137  -6.545   1.848  0.00  0.00    -0.190 NA
ATOM      3  C   UNL     1       6.354  -7.003   1.920  0.00  0.00    +0.242 A 
ATOM      4  O   UNL     1       7.204  -5.973   1.819  0.00  0.00    -0.336 OA
ATOM      5  N   UNL     1       6.406  -4.809   1.668  0.00  0.00    -0.056 NA
ENDROOT
BRANCH   1  16
ATOM      6  C   UNL     1      -0.117   1.483  -0.009  0.00  0.00    +0.009 C 
ATOM      7  C   UNL     1      -0.078  -0.047  -0.025  0.00  0.00    +0.003 C 
ATOM      8  C   UNL     1      -1.507  -0.594  -0.017  0.00  0.00    +0.006 C 
ATOM      9  C   UNL     1      -1.470  -2.123  -0.065  0.00  0.00    +0.019 C 
ATOM     10  C   UNL     1      -0.743  -2.652   1.175  0.00  0.00    +0.106 C 
ATOM     11  N   UNL     1       0.581  -2.018   1.254  0.00  0.00    -0.316 N 
ATOM     12  C   UNL     1       0.665  -0.551   1.216  0.00  0.00    +0.109 C 
ATOM     13  C   UNL     1       1.729  -2.790   1.362  0.00  0.00    +0.099 A 
ATOM     14  C   UNL     1       2.978  -2.175   1.309  0.00  0.00    +0.042 A 
ATOM     15  C   UNL     1       4.115  -2.950   1.417  0.00  0.00    +0.016 A 
ATOM     16  C   UNL     1       3.966  -4.332   1.577  0.00  0.00    +0.038 A 
ATOM     17  C   UNL     1       2.685  -4.875   1.621  0.00  0.00    +0.095 A 
ATOM     18  N   UNL     1       1.623  -4.101   1.519  0.00  0.00    -0.349 N 
ATOM     19  H   UNL     1       0.741  -4.502   1.557  0.00  0.00    +0.167 HD
ENDBRANCH   1  16
BRANCH   3  20
ATOM     20  C   UNL     1       6.741  -8.450   2.091  0.00  0.00    +0.183 C 
BRANCH  20  21
ATOM     21  N   UNL     1       6.890  -9.076   0.771  0.00  0.00    -0.291 NA
ATOM     22  C   UNL     1       8.018  -8.490   0.034  0.00  0.00    +0.104 C 
ATOM     23  C   UNL     1       8.029  -9.037  -1.397  0.00  0.00    +0.122 C 
ATOM     24  N   UNL     1       8.022 -10.507  -1.336  0.00  0.00    -0.314 N 
ATOM     25  C   UNL     1       7.003 -11.164  -0.504  0.00  0.00    +0.122 C 
ATOM     26  C   UNL     1       7.032 -10.533   0.892  0.00  0.00    +0.104 C 
ATOM     27  C   UNL     1       8.956 -11.254  -2.044  0.00  0.00    +0.099 A 
ATOM     28  C   UNL     1       8.847 -12.641  -2.077  0.00  0.00    +0.042 A 
ATOM     29  C   UNL     1       9.782 -13.372  -2.786  0.00  0.00    +0.005 A 
ATOM     30  C   UNL     1      10.800 -12.690  -3.441  0.00  0.00    +0.018 A 
ATOM     31  C   UNL     1      10.847 -11.313  -3.366  0.00  0.00    +0.084 A 
ATOM     32  N   UNL     1       9.937 -10.640  -2.686  0.00  0.00    -0.350 N 
ATOM     33  H   UNL     1       9.992  -9.672  -2.653  0.00  0.00    +0.166 HD
ENDBRANCH  20  21
ENDBRANCH   3  20
TORSDOF 3
