REMARK  Name = ZINC34982267
REMARK  6 active torsions:
REMARK  status: ('A' for Active; 'I' for Inactive)
REMARK    1  A    between atoms: C_1  and  C_2
REMARK    2  A    between atoms: C_2  and  O_3
REMARK    3  A    between atoms: O_3  and  C_4
REMARK    4  A    between atoms: C_7  and  C_10
REMARK    5  A    between atoms: N_25  and  C_28
REMARK    6  A    between atoms: C_28  and  C_29
REMARK                            x       y       z     vdW  Elec       q    Type
REMARK                         _______ _______ _______ _____ _____    ______ ____
ROOT
ATOM      1  C   UNL     1      -1.980  -6.079   0.155  0.00  0.00    +0.183 A 
ATOM      2  N   UNL     1      -1.016  -6.968  -0.134  0.00  0.00    -0.200 NA
ATOM      3  C   UNL     1      -1.522  -8.168  -0.125  0.00  0.00    +0.200 A 
ATOM      4  N   UNL     1      -2.853  -8.105   0.174  0.00  0.00    -0.169 N 
ATOM      5  N   UNL     1      -3.106  -6.717   0.354  0.00  0.00    -0.141 NA
ATOM      6  C   UNL     1      -3.561  -9.242   0.233  0.00  0.00    +0.288 A 
ATOM      7  O   UNL     1      -4.747  -9.234   0.495  0.00  0.00    -0.265 OA
ATOM      8  C   UNL     1      -2.839 -10.509  -0.034  0.00  0.00    +0.095 A 
ATOM      9  C   UNL     1      -3.313 -11.806  -0.040  0.00  0.00    +0.065 C 
ATOM     10  C   UNL     1      -4.719 -12.250   0.053  0.00  0.00    +0.010 A 
ATOM     11  C   UNL     1      -5.929 -11.569   0.168  0.00  0.00    +0.010 A 
ATOM     12  C   UNL     1      -7.110 -12.280   0.234  0.00  0.00    +0.001 A 
ATOM     13  C   UNL     1      -7.091 -13.664   0.187  0.00  0.00    +0.002 A 
ATOM     14  C   UNL     1      -5.897 -14.349   0.074  0.00  0.00    +0.024 A 
ATOM     15  C   UNL     1      -4.697 -13.652   0.005  0.00  0.00    +0.045 A 
ATOM     16  N   UNL     1      -3.381 -14.087  -0.110  0.00  0.00    -0.258 N 
ATOM     17  C   UNL     1      -2.525 -13.052  -0.147  0.00  0.00    +0.253 C 
ATOM     18  O   UNL     1      -1.315 -13.127  -0.248  0.00  0.00    -0.270 OA
ATOM     19  S   UNL     1      -1.188  -9.900  -0.346  0.00  0.00    -0.044 S 
ENDROOT
BRANCH   1  23
ATOM     20  C   UNL     1      -1.456  -1.865   0.398  0.00  0.00    +0.121 A 
ATOM     21  C   UNL     1      -0.377  -2.681   0.085  0.00  0.00    +0.046 A 
ATOM     22  C   UNL     1      -0.544  -4.047   0.005  0.00  0.00    +0.015 A 
ATOM     23  C   UNL     1      -1.798  -4.610   0.240  0.00  0.00    +0.021 A 
ATOM     24  C   UNL     1      -2.879  -3.788   0.555  0.00  0.00    +0.015 A 
ATOM     25  C   UNL     1      -2.705  -2.423   0.638  0.00  0.00    +0.046 A 
BRANCH  20  26
ATOM     26  O   UNL     1      -1.289  -0.519   0.476  0.00  0.00    -0.492 OA
BRANCH  26  28
ATOM     27  C   UNL     1       0.015   1.512   0.350  0.00  0.00    +0.048 C 
ATOM     28  C   UNL     1       0.022  -0.012   0.217  0.00  0.00    +0.225 C 
ENDBRANCH  26  28
ENDBRANCH  20  26
ENDBRANCH   1  23
BRANCH  16  29
ATOM     29  C   UNL     1      -2.981 -15.494  -0.188  0.00  0.00    +0.209 C 
BRANCH  29  30
ATOM     30  C   UNL     1      -2.951 -15.930  -1.630  0.00  0.00    +0.228 C 
ATOM     31  O   UNL     1      -3.237 -15.142  -2.507  0.00  0.00    -0.274 OA
ATOM     32  N   UNL     1      -2.608 -17.194  -1.945  0.00  0.00    -0.328 N 
ATOM     33  H   UNL     1      -2.379 -17.824  -1.244  0.00  0.00    +0.145 HD
ATOM     34  H   UNL     1      -2.589 -17.474  -2.874  0.00  0.00    +0.145 HD
ENDBRANCH  29  30
ENDBRANCH  16  29
TORSDOF 5
