REMARK  Name = ZINC41151289
REMARK  4 active torsions:
REMARK  status: ('A' for Active; 'I' for Inactive)
REMARK    1  A    between atoms: C_7  and  N_24
REMARK    2  A    between atoms: N_14  and  C_17
REMARK    3  A    between atoms: N_24  and  C_25
REMARK    4  A    between atoms: C_25  and  C_26
REMARK                            x       y       z     vdW  Elec       q    Type
REMARK                         _______ _______ _______ _____ _____    ______ ____
ROOT
ATOM      1  C   UNL     1      -0.025   1.344   0.000  0.00  0.00    +0.001 A 
ATOM      2  C   UNL     1       1.159   2.075  -0.018  0.00  0.00    +0.002 A 
ATOM      3  C   UNL     1       2.371   1.449  -0.033  0.00  0.00    +0.026 A 
ATOM      4  C   UNL     1       2.426   0.049  -0.030  0.00  0.00    +0.052 A 
ATOM      5  C   UNL     1       1.220  -0.693  -0.011  0.00  0.00    +0.038 A 
ATOM      6  C   UNL     1      -0.006  -0.020   0.004  0.00  0.00    +0.013 A 
ATOM      7  C   UNL     1       1.301  -2.108  -0.008  0.00  0.00    +0.132 A 
ATOM      8  N   UNL     1       2.502  -2.668  -0.023  0.00  0.00    -0.201 NA
ATOM      9  C   UNL     1       3.610  -1.933  -0.041  0.00  0.00    +0.198 A 
ATOM     10  N   UNL     1       3.592  -0.614  -0.044  0.00  0.00    -0.327 N 
ATOM     11  N   UNL     1       4.833  -2.579  -0.056  0.00  0.00    -0.298 N 
ATOM     12  C   UNL     1       6.081  -1.815  -0.187  0.00  0.00    +0.127 C 
ATOM     13  C   UNL     1       6.998  -2.167   0.991  0.00  0.00    +0.124 C 
ATOM     14  N   UNL     1       7.072  -3.630   1.107  0.00  0.00    -0.327 N 
ATOM     15  C   UNL     1       5.824  -4.395   1.239  0.00  0.00    +0.124 C 
ATOM     16  C   UNL     1       4.908  -4.042   0.066  0.00  0.00    +0.127 C 
ATOM     17  H   UNL     1       4.427  -0.121  -0.058  0.00  0.00    +0.169 HD
ENDROOT
BRANCH  14  18
ATOM     18  C   UNL     1       8.307  -4.282   1.093  0.00  0.00    +0.031 A 
ATOM     19  C   UNL     1       9.485  -3.544   1.096  0.00  0.00    +0.023 A 
ATOM     20  C   UNL     1      10.704  -4.192   1.082  0.00  0.00    +0.003 A 
ATOM     21  C   UNL     1      10.755  -5.574   1.064  0.00  0.00    +0.020 A 
ATOM     22  C   UNL     1       9.585  -6.312   1.060  0.00  0.00    +0.043 A 
ATOM     23  C   UNL     1       8.361  -5.670   1.080  0.00  0.00    +0.043 A 
ATOM     24 CL   UNL     1       9.654  -8.047   1.037  0.00  0.00    -0.083 Cl
ENDBRANCH  14  18
BRANCH   7  25
ATOM     25  N   UNL     1       0.160  -2.881   0.010  0.00  0.00    -0.321 N 
ATOM     26  H   UNL     1      -0.712  -2.458   0.021  0.00  0.00    +0.148 HD
BRANCH  25  27
ATOM     27  C   UNL     1       0.266  -4.342   0.013  0.00  0.00    +0.177 C 
BRANCH  27  28
ATOM     28  C   UNL     1      -1.115  -4.945   0.035  0.00  0.00    +0.122 A 
ATOM     29  C   UNL     1      -1.849  -5.268  -1.045  0.00  0.00    +0.046 A 
ATOM     30  C   UNL     1      -3.069  -5.800  -0.567  0.00  0.00    +0.041 A 
ATOM     31  C   UNL     1      -3.007  -5.770   0.776  0.00  0.00    +0.195 A 
ATOM     32  O   UNL     1      -1.819  -5.257   1.135  0.00  0.00    -0.466 OA
ENDBRANCH  27  28
ENDBRANCH  25  27
ENDBRANCH   7  25
TORSDOF 4
