REMARK  Name = ZINC36557582
REMARK  7 active torsions:
REMARK  status: ('A' for Active; 'I' for Inactive)
REMARK    1  A    between atoms: C_4  and  N_7
REMARK    2  A    between atoms: N_7  and  C_8
REMARK    3  A    between atoms: C_11  and  N_14
REMARK    4  A    between atoms: C_15  and  C_17
REMARK    5  A    between atoms: C_24  and  C_33
REMARK    6  A    between atoms: C_35  and  N_40
REMARK    7  A    between atoms: C_38  and  O_39
REMARK                            x       y       z     vdW  Elec       q    Type
REMARK                         _______ _______ _______ _____ _____    ______ ____
ROOT
ATOM      1  C   UNL     1       5.387  -8.232   0.455  0.00  0.00    +0.058 A 
ATOM      2  C   UNL     1       4.252  -9.034   0.320  0.00  0.00    +0.015 A 
ATOM      3  C   UNL     1       4.353 -10.400   0.467  0.00  0.00    +0.001 A 
ATOM      4  C   UNL     1       5.577 -10.982   0.756  0.00  0.00    +0.006 A 
ATOM      5  C   UNL     1       6.706 -10.207   0.897  0.00  0.00    -0.019 A 
ATOM      6  C   UNL     1       6.632  -8.819   0.732  0.00  0.00    +0.044 A 
ATOM      7  N   UNL     1       7.762  -8.012   0.821  0.00  0.00    -0.336 N 
ATOM      8  C   UNL     1       9.093  -8.582   1.124  0.00  0.00    +0.108 C 
ATOM      9  C   UNL     1       9.112  -9.950   0.466  0.00  0.00    +0.029 C 
ATOM     10  C   UNL     1       8.028 -10.784   1.228  0.00  0.00    +0.049 C 
ATOM     11  C   UNL     1       8.384 -12.184   0.886  0.00  0.00    -0.023 C 
ATOM     12  C   UNL     1       9.690 -12.245   0.656  0.00  0.00    -0.030 C 
ATOM     13  C   UNL     1      10.325 -10.846   0.749  0.00  0.00    +0.033 C 
ATOM     14  H   UNL     1       7.675  -7.056   0.681  0.00  0.00    +0.147 HD
ENDROOT
BRANCH   8  15
ATOM     15  C   UNL     1       9.275  -8.715   2.614  0.00  0.00    +0.017 A 
ATOM     16  C   UNL     1       8.172  -8.838   3.437  0.00  0.00    +0.041 A 
ATOM     17  C   UNL     1       8.339  -8.960   4.804  0.00  0.00    +0.127 A 
ATOM     18  C   UNL     1       9.610  -8.960   5.351  0.00  0.00    +0.036 A 
ATOM     19  C   UNL     1      10.715  -8.837   4.532  0.00  0.00    +0.048 A 
ATOM     20  C   UNL     1      10.551  -8.720   3.159  0.00  0.00    +0.122 A 
BRANCH  17  21
ATOM     21  N   UNL     1       7.156  -9.091   5.684  0.00  0.00    +0.056 N 
ATOM     22  O   UNL     1       6.045  -9.091   5.207  0.00  0.00    -0.126 OA
ATOM     23  O   UNL     1       7.301  -9.198   6.879  0.00  0.00    -0.126 OA
ENDBRANCH  17  21
BRANCH  20  24
ATOM     24  O   UNL     1      11.637  -8.605   2.351  0.00  0.00    -0.506 OA
ATOM     25  H   UNL     1      11.920  -7.692   2.200  0.00  0.00    +0.292 HD
ENDBRANCH  20  24
ENDBRANCH   8  15
BRANCH   1  27
ATOM     26  N   UNL     1       4.071  -6.196   0.143  0.00  0.00    -0.281 N 
ATOM     27  C   UNL     1       5.280  -6.770   0.299  0.00  0.00    +0.250 C 
ATOM     28  O   UNL     1       6.283  -6.082   0.312  0.00  0.00    -0.270 OA
ATOM     29  H   UNL     1       3.277  -6.749   0.071  0.00  0.00    +0.155 HD
BRANCH  26  33
ATOM     30  C   UNL     1       3.742  -2.042  -0.032  0.00  0.00    +0.031 A 
ATOM     31  C   UNL     1       2.745  -2.793   0.578  0.00  0.00    +0.025 A 
ATOM     32  C   UNL     1       2.854  -4.168   0.636  0.00  0.00    +0.025 A 
ATOM     33  C   UNL     1       3.960  -4.801   0.084  0.00  0.00    +0.034 A 
ATOM     34  C   UNL     1       4.957  -4.050  -0.525  0.00  0.00    +0.025 A 
ATOM     35  C   UNL     1       4.846  -2.676  -0.588  0.00  0.00    +0.025 A 
BRANCH  30  36
ATOM     36  N   UNL     1       3.632  -0.649  -0.090  0.00  0.00    -0.314 N 
ATOM     37  H   UNL     1       3.970  -0.167  -0.861  0.00  0.00    +0.152 HD
BRANCH  36  41
ATOM     38  C   UNL     1       1.850   1.433   3.045  0.00  0.00    +0.000 A 
ATOM     39  C   UNL     1       2.427   0.197   3.277  0.00  0.00    +0.002 A 
ATOM     40  C   UNL     1       3.018  -0.496   2.239  0.00  0.00    +0.023 A 
ATOM     41  C   UNL     1       3.034   0.049   0.962  0.00  0.00    +0.031 A 
ATOM     42  C   UNL     1       2.453   1.291   0.732  0.00  0.00    +0.023 A 
ATOM     43  C   UNL     1       1.863   1.978   1.774  0.00  0.00    +0.002 A 
ENDBRANCH  36  41
ENDBRANCH  30  36
ENDBRANCH  26  33
ENDBRANCH   1  27
TORSDOF 7
