REMARK  Name = ZINC44164153
REMARK  6 active torsions:
REMARK  status: ('A' for Active; 'I' for Inactive)
REMARK    1  A    between atoms: C_4  and  C_7
REMARK    2  A    between atoms: C_9  and  C_12
REMARK    3  A    between atoms: C_17  and  C_20
REMARK    4  A    between atoms: N_22  and  C_23
REMARK    5  A    between atoms: C_23  and  C_24
REMARK    6  A    between atoms: C_24  and  C_25
REMARK                            x       y       z     vdW  Elec       q    Type
REMARK                         _______ _______ _______ _____ _____    ______ ____
ROOT
ATOM      1  C   UNL     1       5.824  -3.720  -0.082  0.00  0.00    +0.010 C 
ATOM      2  C   UNL     1       6.384  -4.039   1.309  0.00  0.00    +0.061 C 
ATOM      3  S   UNL     1       7.586  -2.745   1.751  0.00  0.00    -0.163 S 
ATOM      4  C   UNL     1       8.650  -2.670   0.276  0.00  0.00    +0.062 C 
ATOM      5  C   UNL     1       7.750  -2.554  -0.960  0.00  0.00    +0.027 C 
ATOM      6  N   UNL     1       6.904  -3.743  -1.070  0.00  0.00    +0.394 N 
ATOM      7  H   UNL     1       7.469  -4.566  -0.923  0.00  0.00    -0.084 HD
ATOM      8  H   UNL     1       6.505  -3.778  -1.996  0.00  0.00    -0.084 HD
ENDROOT
BRANCH   1  11
ATOM      9  C   UNL     1       4.231  -0.452   0.612  0.00  0.00    +0.114 A 
ATOM     10  C   UNL     1       4.754  -1.700   1.027  0.00  0.00    +0.074 A 
ATOM     11  C   UNL     1       5.191  -2.352  -0.065  0.00  0.00    +0.125 A 
ATOM     12  O   UNL     1       4.967  -1.575  -1.136  0.00  0.00    -0.361 OA
ATOM     13  N   UNL     1       4.354  -0.379  -0.691  0.00  0.00    -0.078 NA
BRANCH   9  17
ATOM     14  C   UNL     1       2.543   2.523   3.140  0.00  0.00    +0.000 A 
ATOM     15  C   UNL     1       2.610   2.736   1.775  0.00  0.00    +0.001 A 
ATOM     16  C   UNL     1       3.157   1.774   0.950  0.00  0.00    +0.010 A 
ATOM     17  C   UNL     1       3.642   0.587   1.495  0.00  0.00    +0.004 A 
ATOM     18  C   UNL     1       3.572   0.378   2.870  0.00  0.00    +0.010 A 
ATOM     19  C   UNL     1       3.023   1.346   3.686  0.00  0.00    +0.001 A 
ENDBRANCH   9  17
ENDBRANCH   1  11
BRANCH   5  20
ATOM     20  C   UNL     1       8.608  -2.436  -2.194  0.00  0.00    +0.200 C 
ATOM     21  O   UNL     1       8.523  -3.266  -3.074  0.00  0.00    -0.278 OA
ATOM     22  N   UNL     1       9.468  -1.406  -2.320  0.00  0.00    -0.316 N 
ATOM     23  H   UNL     1       9.536  -0.742  -1.616  0.00  0.00    +0.149 HD
BRANCH  22  24
ATOM     24  C   UNL     1      10.302  -1.290  -3.519  0.00  0.00    +0.109 C 
BRANCH  24  25
ATOM     25  C   UNL     1      11.182  -0.044  -3.410  0.00  0.00    +0.054 C 
BRANCH  25  26
ATOM     26  C   UNL     1      12.039   0.075  -4.644  0.00  0.00    -0.046 A 
ATOM     27  C   UNL     1      13.284  -0.524  -4.680  0.00  0.00    +0.005 A 
ATOM     28  C   UNL     1      14.071  -0.416  -5.812  0.00  0.00    +0.020 A 
ATOM     29  C   UNL     1      13.612   0.294  -6.907  0.00  0.00    +0.041 A 
ATOM     30  C   UNL     1      12.366   0.894  -6.870  0.00  0.00    +0.020 A 
ATOM     31  C   UNL     1      11.578   0.779  -5.740  0.00  0.00    +0.005 A 
ATOM     32 CL   UNL     1      14.600   0.431  -8.328  0.00  0.00    -0.084 Cl
ENDBRANCH  25  26
ENDBRANCH  24  25
ENDBRANCH  22  24
ENDBRANCH   5  20
TORSDOF 6
