REMARK  Name = ZINC50633242
REMARK  3 active torsions:
REMARK  status: ('A' for Active; 'I' for Inactive)
REMARK    1  A    between atoms: C_3  and  N_9
REMARK    2  A    between atoms: N_9  and  S_10
REMARK    3  A    between atoms: S_10  and  C_13
REMARK                            x       y       z     vdW  Elec       q    Type
REMARK                         _______ _______ _______ _____ _____    ______ ____
ROOT
ATOM      1  S   UNL     1       5.026   1.321   0.086  0.00  0.00    +0.095 S 
ATOM      2  O   UNL     1       5.017   0.634   1.330  0.00  0.00    -0.148 OA
ATOM      3  O   UNL     1       5.210   0.650  -1.153  0.00  0.00    -0.148 OA
ENDROOT
BRANCH   1   4
ATOM      4  C   UNL     1       6.295   2.538   0.192  0.00  0.00    +0.146 A 
ATOM      5  C   UNL     1       6.894   3.039  -0.954  0.00  0.00    +0.144 A 
ATOM      6  N   UNL     1       7.843   3.952  -0.839  0.00  0.00    -0.221 NA
ATOM      7  C   UNL     1       8.224   4.388   0.353  0.00  0.00    +0.213 A 
ATOM      8  N   UNL     1       7.673   3.929   1.467  0.00  0.00    -0.221 NA
ATOM      9  C   UNL     1       6.713   3.020   1.423  0.00  0.00    +0.144 A 
ATOM     10  N   UNL     1       9.221   5.344   0.437  0.00  0.00    -0.327 N 
ATOM     11  H   UNL     1       9.632   5.688  -0.372  0.00  0.00    +0.145 HD
ATOM     12  H   UNL     1       9.508   5.671   1.304  0.00  0.00    +0.145 HD
ENDBRANCH   1   4
BRANCH   1  13
ATOM     13  N   UNL     1       3.583   2.126  -0.021  0.00  0.00    -0.096 NA
BRANCH  13  16
ATOM     14  C   UNL     1       1.211  -0.682  -0.089  0.00  0.00    +0.022 A 
ATOM     15  C   UNL     1       2.399   0.023  -0.082  0.00  0.00    +0.029 A 
ATOM     16  C   UNL     1       2.382   1.410  -0.029  0.00  0.00    +0.093 A 
ATOM     17  C   UNL     1       1.168   2.086   0.017  0.00  0.00    +0.067 A 
ATOM     18  C   UNL     1      -0.017   1.375   0.009  0.00  0.00    +0.042 A 
ATOM     19  C   UNL     1       0.004  -0.008  -0.044  0.00  0.00    +0.042 A 
ATOM     20 CL   UNL     1      -1.486  -0.897  -0.054  0.00  0.00    -0.083 Cl
ATOM     21 CL   UNL     1       1.141   3.820   0.084  0.00  0.00    -0.081 Cl
ENDBRANCH  13  16
ENDBRANCH   1  13
TORSDOF 3
