REMARK  Name = ZINC45565217
REMARK  6 active torsions:
REMARK  status: ('A' for Active; 'I' for Inactive)
REMARK    1  A    between atoms: C_1  and  N_2
REMARK    2  A    between atoms: N_2  and  C_3
REMARK    3  A    between atoms: N_2  and  C_17
REMARK    4  A    between atoms: C_3  and  C_4
REMARK    5  A    between atoms: N_6  and  N_7
REMARK    6  A    between atoms: C_8  and  C_10
REMARK                            x       y       z     vdW  Elec       q    Type
REMARK                         _______ _______ _______ _____ _____    ______ ____
ROOT
ATOM      1  C   UNL     1      -2.067  -0.116  -1.267  0.00  0.00    +0.213 C 
ATOM      2  O   UNL     1      -1.471   0.527  -2.104  0.00  0.00    -0.276 OA
ATOM      3  N   UNL     1      -3.349  -0.476  -1.480  0.00  0.00    -0.236 N 
ATOM      4  H   UNL     1      -3.826  -0.990  -0.809  0.00  0.00    +0.173 HD
ENDROOT
BRANCH   3   5
ATOM      5  N   UNL     1      -3.991  -0.107  -2.669  0.00  0.00    -0.229 N 
ATOM      6  C   UNL     1      -5.273  -0.467  -2.881  0.00  0.00    +0.276 C 
ATOM      7  O   UNL     1      -5.871  -1.112  -2.041  0.00  0.00    -0.267 OA
ATOM      8  H   UNL     1      -3.514   0.407  -3.339  0.00  0.00    +0.173 HD
BRANCH   6   9
ATOM      9  C   UNL     1      -5.946  -0.082  -4.126  0.00  0.00    +0.104 A 
ATOM     10  C   UNL     1      -7.248  -0.374  -4.473  0.00  0.00    +0.047 A 
ATOM     11  C   UNL     1      -7.471   0.183  -5.737  0.00  0.00    +0.036 A 
ATOM     12  C   UNL     1      -6.327   0.792  -6.131  0.00  0.00    +0.098 A 
ATOM     13  N   UNL     1      -5.394   0.643  -5.158  0.00  0.00    -0.356 N 
ATOM     14  H   UNL     1      -4.488   0.989  -5.186  0.00  0.00    +0.166 HD
ATOM     15 BR   UNL     1      -9.084   0.100  -6.720  0.00  0.00    -0.049 Br
ENDBRANCH   6   9
ENDBRANCH   3   5
BRANCH   1  16
ATOM     16  C   UNL     1      -1.376  -0.512   0.012  0.00  0.00    +0.020 C 
BRANCH  16  18
ATOM     17  C   UNL     1      -0.018   1.465   0.010  0.00  0.00    -0.095 C 
ATOM     18  N   UNL     1       0.002  -0.004   0.002  0.00  0.00    +0.387 N 
ATOM     19  H   UNL     1       0.474  -0.330  -0.828  0.00  0.00    -0.081 HD
BRANCH  18  20
ATOM     20  C   UNL     1       0.713  -0.491   1.192  0.00  0.00    -0.046 C 
ATOM     21  C   UNL     1       2.166   0.010   1.170  0.00  0.00    +0.009 C 
ATOM     22  C   UNL     1       3.001  -0.747   2.231  0.00  0.00    +0.164 C 
ATOM     23  S   UNL     1       2.132  -2.363   2.351  0.00  0.00    -0.033 S 
ATOM     24  O   UNL     1       1.615  -2.513   3.666  0.00  0.00    -0.174 OA
ATOM     25  O   UNL     1       2.965  -3.378   1.807  0.00  0.00    -0.174 OA
ATOM     26  C   UNL     1       0.736  -2.046   1.190  0.00  0.00    +0.151 C 
ENDBRANCH  18  20
ENDBRANCH  16  18
ENDBRANCH   1  16
TORSDOF 5
