REMARK  Name = ZINC00978333
REMARK  8 active torsions:
REMARK  status: ('A' for Active; 'I' for Inactive)
REMARK    1  A    between atoms: C_1  and  O_2
REMARK    2  A    between atoms: O_2  and  C_3
REMARK    3  A    between atoms: N_5  and  C_6
REMARK    4  A    between atoms: C_6  and  C_7
REMARK    5  A    between atoms: C_6  and  C_11
REMARK    6  A    between atoms: C_6  and  N_15
REMARK    7  A    between atoms: N_15  and  C_16
REMARK    8  A    between atoms: C_17  and  C_25
REMARK                            x       y       z     vdW  Elec       q    Type
REMARK                         _______ _______ _______ _____ _____    ______ ____
ROOT
ATOM      1  N   UNL     1      -2.097   6.824  -1.676  0.00  0.00    -0.303 N 
ATOM      2  H   UNL     1      -2.195   7.475  -0.963  0.00  0.00    +0.149 HD
ENDROOT
BRANCH   1   3
ATOM      3  C   UNL     1      -1.870   5.495  -1.371  0.00  0.00    +0.080 A 
ATOM      4  C   UNL     1      -1.669   4.917  -0.124  0.00  0.00    +0.068 A 
ATOM      5  C   UNL     1      -1.450   3.481  -0.077  0.00  0.00    -0.023 A 
ATOM      6  C   UNL     1      -1.467   2.857  -1.274  0.00  0.00    -0.005 A 
ATOM      7  S   UNL     1      -1.767   4.145  -2.452  0.00  0.00    -0.078 S 
ATOM      8  C   UNL     1      -1.272   1.395  -1.534  0.00  0.00    +0.043 C 
ATOM      9  C   UNL     1      -0.677   0.754  -0.272  0.00  0.00    +0.005 C 
ATOM     10  C   UNL     1      -1.481   1.218   0.946  0.00  0.00    +0.005 C 
ATOM     11  C   UNL     1      -1.217   2.700   1.211  0.00  0.00    +0.037 C 
BRANCH   4  12
ATOM     12  C   UNL     1      -1.678   5.725   1.098  0.00  0.00    +0.244 C 
ATOM     13  O   UNL     1      -2.720   5.906   1.701  0.00  0.00    -0.270 OA
ATOM     14  N   UNL     1      -0.532   6.268   1.555  0.00  0.00    -0.325 N 
ATOM     15  H   UNL     1       0.299   6.123   1.075  0.00  0.00    +0.145 HD
ATOM     16  H   UNL     1      -0.537   6.802   2.364  0.00  0.00    +0.145 HD
ENDBRANCH   4  12
ENDBRANCH   1   3
BRANCH   1  17
ATOM     17  C   UNL     1      -2.188   7.249  -3.075  0.00  0.00    +0.296 C 
BRANCH  17  20
ATOM     18  C   UNL     1       0.136   6.580  -3.366  0.00  0.00    +0.402 C 
ATOM     19  O   UNL     1       0.369   6.999  -2.250  0.00  0.00    -0.226 OA
ATOM     20  N   UNL     1      -1.121   6.612  -3.850  0.00  0.00    -0.245 N 
ATOM     21  H   UNL     1      -1.320   6.212  -4.711  0.00  0.00    +0.155 HD
BRANCH  18  23
ATOM     22  C   UNL     1       2.464   6.083  -3.536  0.00  0.00    +0.282 C 
ATOM     23  O   UNL     1       1.135   6.085  -4.121  0.00  0.00    -0.454 OA
ENDBRANCH  18  23
ENDBRANCH  17  20
BRANCH  17  24
ATOM     24  C   UNL     1      -3.548   6.839  -3.644  0.00  0.00    +0.436 C 
ATOM     25  F   UNL     1      -4.562   7.530  -2.974  0.00  0.00    -0.166 F 
ATOM     26  F   UNL     1      -3.595   7.149  -5.008  0.00  0.00    -0.166 F 
ATOM     27  F   UNL     1      -3.729   5.462  -3.473  0.00  0.00    -0.166 F 
ENDBRANCH  17  24
BRANCH  17  28
ATOM     28  C   UNL     1      -2.039   8.770  -3.156  0.00  0.00    +0.436 C 
ATOM     29  F   UNL     1      -0.847   9.155  -2.534  0.00  0.00    -0.166 F 
ATOM     30  F   UNL     1      -2.014   9.165  -4.498  0.00  0.00    -0.166 F 
ATOM     31  F   UNL     1      -3.120   9.380  -2.510  0.00  0.00    -0.166 F 
ENDBRANCH  17  28
ENDBRANCH   1  17
TORSDOF 7
