REMARK  Name = ZINC09379405
REMARK  8 active torsions:
REMARK  status: ('A' for Active; 'I' for Inactive)
REMARK    1  A    between atoms: C_4  and  C_7
REMARK    2  A    between atoms: C_7  and  N_8
REMARK    3  A    between atoms: C_9  and  N_38
REMARK    4  A    between atoms: C_10  and  C_17
REMARK    5  A    between atoms: C_17  and  C_19
REMARK    6  A    between atoms: C_17  and  N_65
REMARK    7  A    between atoms: C_22  and  C_25
REMARK    8  A    between atoms: N_29  and  C_32
REMARK                            x       y       z     vdW  Elec       q    Type
REMARK                         _______ _______ _______ _____ _____    ______ ____
ROOT
ATOM      1  C   UNL     1       1.193  -2.167  -0.025  0.00  0.00    +0.002 C 
ENDROOT
BRANCH   1   4
ATOM      2  N   UNL     1      -0.003   1.393  -0.007  0.00  0.00    -0.277 N 
ATOM      3  C   UNL     1      -0.012   0.019  -0.017  0.00  0.00    +0.107 A 
ATOM      4  C   UNL     1       1.175  -0.660  -0.015  0.00  0.00    +0.046 A 
ATOM      5  C   UNL     1       2.376   0.067  -0.003  0.00  0.00    +0.258 A 
ATOM      6  O   UNL     1       3.446  -0.518  -0.001  0.00  0.00    -0.267 OA
ATOM      7  N   UNL     1       2.339   1.413   0.006  0.00  0.00    -0.275 N 
ATOM      8  H   UNL     1       3.194   1.933   0.015  0.00  0.00    +0.173 HD
ATOM      9  C   UNL     1       1.163   2.066   0.004  0.00  0.00    +0.331 A 
ATOM     10  O   UNL     1       1.152   3.282   0.012  0.00  0.00    -0.246 OA
BRANCH   3  11
ATOM     11  N   UNL     1      -1.200  -0.664  -0.028  0.00  0.00    -0.344 N 
ATOM     12  H   UNL     1      -2.039  -0.181   0.042  0.00  0.00    +0.144 HD
ATOM     13  H   UNL     1      -1.203  -1.631  -0.106  0.00  0.00    +0.144 HD
ENDBRANCH   3  11
BRANCH   2  14
ATOM     14  C   UNL     1      -1.269   2.130  -0.015  0.00  0.00    +0.163 C 
BRANCH  14  18
ATOM     15  C   UNL     1      -2.542   2.819   4.004  0.00  0.00    +0.000 A 
ATOM     16  C   UNL     1      -1.734   3.742   3.367  0.00  0.00    +0.000 A 
ATOM     17  C   UNL     1      -1.322   3.519   2.066  0.00  0.00    +0.005 A 
ATOM     18  C   UNL     1      -1.718   2.373   1.403  0.00  0.00    -0.028 A 
ATOM     19  C   UNL     1      -2.530   1.452   2.038  0.00  0.00    +0.005 A 
ATOM     20  C   UNL     1      -2.938   1.673   3.340  0.00  0.00    +0.000 A 
ENDBRANCH  14  18
ENDBRANCH   2  14
ENDBRANCH   1   4
BRANCH   1  26
ATOM     21  C   UNL     1       1.667  -2.090  -2.399  0.00  0.00    -0.058 C 
ATOM     22  C   UNL     1       2.659  -2.539  -3.475  0.00  0.00    +0.086 C 
ATOM     23  N   UNL     1       2.701  -4.007  -3.516  0.00  0.00    -0.333 N 
ATOM     24  C   UNL     1       3.111  -4.556  -2.216  0.00  0.00    +0.086 C 
ATOM     25  C   UNL     1       2.120  -4.106  -1.139  0.00  0.00    -0.058 C 
ATOM     26  N   UNL     1       2.104  -2.629  -1.094  0.00  0.00    +0.389 N 
ATOM     27  H   UNL     1       3.052  -2.291  -0.893  0.00  0.00    -0.080 HD
BRANCH  23  28
ATOM     28  C   UNL     1       3.543  -4.456  -4.536  0.00  0.00    +0.030 A 
ATOM     29  C   UNL     1       4.603  -5.303  -4.242  0.00  0.00    +0.023 A 
ATOM     30  C   UNL     1       5.431  -5.748  -5.254  0.00  0.00    +0.002 A 
ATOM     31  C   UNL     1       5.210  -5.343  -6.558  0.00  0.00    +0.000 A 
ATOM     32  C   UNL     1       4.159  -4.495  -6.854  0.00  0.00    +0.002 A 
ATOM     33  C   UNL     1       3.324  -4.050  -5.847  0.00  0.00    +0.023 A 
ENDBRANCH  23  28
ENDBRANCH   1  26
BRANCH   1  34
ATOM     34  C   UNL     1       1.698  -2.672   1.301  0.00  0.00    -0.056 A 
ATOM     35  C   UNL     1       3.058  -2.696   1.556  0.00  0.00    +0.003 A 
ATOM     36  C   UNL     1       3.527  -3.154   2.770  0.00  0.00    +0.019 A 
ATOM     37  C   UNL     1       2.627  -3.603   3.738  0.00  0.00    +0.052 A 
ATOM     38  C   UNL     1       1.257  -3.581   3.472  0.00  0.00    +0.019 A 
ATOM     39  C   UNL     1       0.801  -3.116   2.256  0.00  0.00    +0.003 A 
BRANCH  37  40
ATOM     40  C   UNL     1       3.108  -4.085   4.998  0.00  0.00    +0.099 C 
ATOM     41  N   UNL     1       3.489  -4.468   5.998  0.00  0.00    -0.191 NA
ENDBRANCH  37  40
ENDBRANCH   1  34
TORSDOF 8
