REMARK  Name = ZINC25401842
REMARK  8 active torsions:
REMARK  status: ('A' for Active; 'I' for Inactive)
REMARK    1  A    between atoms: C_1  and  C_2
REMARK    2  A    between atoms: C_2  and  C_4
REMARK    3  A    between atoms: C_2  and  N_15
REMARK    4  A    between atoms: C_7  and  N_10
REMARK    5  A    between atoms: C_16  and  C_18
REMARK    6  A    between atoms: C_18  and  C_19
REMARK    7  A    between atoms: C_19  and  C_21
REMARK    8  A    between atoms: C_19  and  N_28
REMARK                            x       y       z     vdW  Elec       q    Type
REMARK                         _______ _______ _______ _____ _____    ______ ____
ROOT
ATOM      1  N   UNL     1      -0.190   1.279   0.015  0.00  0.00    -0.309 N 
ATOM      2  C   UNL     1      -0.104  -0.066   0.005  0.00  0.00    +0.216 C 
ATOM      3  O   UNL     1      -1.113  -0.739   0.011  0.00  0.00    -0.276 OA
ATOM      4  H   UNL     1       0.726   1.889   0.013  0.00  0.00    +0.149 HD
ENDROOT
BRANCH   1   6
ATOM      5  C   UNL     1      -2.006   2.032   1.469  0.00  0.00    +0.033 C 
ATOM      6  C   UNL     1      -1.503   1.929   0.028  0.00  0.00    +0.100 C 
BRANCH   6   7
ATOM      7  C   UNL     1      -1.385   3.310  -0.564  0.00  0.00    -0.027 A 
ATOM      8  C   UNL     1      -0.288   4.097  -0.267  0.00  0.00    +0.007 A 
ATOM      9  C   UNL     1      -0.174   5.361  -0.811  0.00  0.00    +0.028 A 
ATOM     10  C   UNL     1      -1.170   5.846  -1.649  0.00  0.00    +0.067 A 
ATOM     11  C   UNL     1      -2.274   5.056  -1.941  0.00  0.00    +0.028 A 
ATOM     12  C   UNL     1      -2.378   3.790  -1.398  0.00  0.00    +0.007 A 
BRANCH  10  13
ATOM     13  N   UNL     1      -1.061   7.131  -2.199  0.00  0.00    -0.220 N 
ATOM     14  C   UNL     1      -0.059   8.010  -2.005  0.00  0.00    +0.225 A 
ATOM     15  N   UNL     1      -0.329   9.090  -2.693  0.00  0.00    -0.222 NA
ATOM     16  C   UNL     1      -1.490   8.943  -3.329  0.00  0.00    +0.245 A 
ATOM     17  N   UNL     1      -1.977   7.760  -3.058  0.00  0.00    -0.154 NA
ENDBRANCH  10  13
ENDBRANCH   6   7
ENDBRANCH   1   6
BRANCH   2  18
ATOM     18  C   UNL     1       1.247  -0.735  -0.015  0.00  0.00    +0.123 C 
BRANCH  18  19
ATOM     19  C   UNL     1       1.064  -2.254  -0.023  0.00  0.00    +0.113 C 
BRANCH  19  20
ATOM     20  C   UNL     1       2.410  -2.922   0.081  0.00  0.00    -0.026 A 
ATOM     21  C   UNL     1       3.254  -2.952  -1.013  0.00  0.00    +0.005 A 
ATOM     22  C   UNL     1       4.492  -3.560  -0.917  0.00  0.00    +0.001 A 
ATOM     23  C   UNL     1       4.881  -4.149   0.272  0.00  0.00    +0.015 A 
ATOM     24  C   UNL     1       4.035  -4.125   1.365  0.00  0.00    +0.018 A 
ATOM     25  C   UNL     1       2.799  -3.511   1.270  0.00  0.00    +0.020 A 
ATOM     26 BR   UNL     1       4.567  -4.931   2.991  0.00  0.00    -0.050 Br
ENDBRANCH  19  20
BRANCH  19  27
ATOM     27  N   UNL     1       0.412  -2.660  -1.271  0.00  0.00    -0.292 N 
ATOM     28  C   UNL     1      -0.258  -3.828  -1.331  0.00  0.00    +0.298 C 
ATOM     29  O   UNL     1      -0.406  -4.497  -0.327  0.00  0.00    -0.253 OA
ATOM     30  N   UNL     1      -0.765  -4.254  -2.505  0.00  0.00    -0.313 N 
ATOM     31  H   UNL     1       0.470  -2.012  -2.158  0.00  0.00    +0.151 HD
ATOM     32  H   UNL     1      -1.312  -5.207  -2.555  0.00  0.00    +0.146 HD
ATOM     33  H   UNL     1      -0.631  -3.648  -3.414  0.00  0.00    +0.146 HD
ENDBRANCH  19  27
ENDBRANCH  18  19
ENDBRANCH   2  18
TORSDOF 7
