REMARK  Name = ZINC36159617
REMARK  11 active torsions:
REMARK  status: ('A' for Active; 'I' for Inactive)
REMARK    1  A    between atoms: C_2  and  C_3
REMARK    2  A    between atoms: C_3  and  O_4
REMARK    3  A    between atoms: O_4  and  C_5
REMARK    4  A    between atoms: C_5  and  C_6
REMARK    5  A    between atoms: C_6  and  C_8
REMARK    6  A    between atoms: C_6  and  O_31
REMARK    7  A    between atoms: C_8  and  N_9
REMARK    8  A    between atoms: N_9  and  C_10
REMARK    9  A    between atoms: N_9  and  C_16
REMARK   10  A    between atoms: C_10  and  C_11
REMARK   11  A    between atoms: C_16  and  C_17
REMARK                            x       y       z     vdW  Elec       q    Type
REMARK                         _______ _______ _______ _____ _____    ______ ____
ROOT
ATOM      1  N   UNL     1       4.347   5.605   0.209  0.00  0.00    +0.391 N 
ATOM      2  H   UNL     1       4.568   4.911   0.908  0.00  0.00    -0.080 HD
ENDROOT
BRANCH   1   3
ATOM      3  C   UNL     1       2.917   5.532  -0.118  0.00  0.00    -0.044 C 
BRANCH   3   4
ATOM      4  C   UNL     1       2.550   4.092  -0.483  0.00  0.00    +0.124 C 
BRANCH   4   5
ATOM      5  O   UNL     1       3.172   3.742  -1.722  0.00  0.00    -0.391 OA
ATOM      6  H   UNL     1       2.909   4.301  -2.466  0.00  0.00    +0.210 HD
ENDBRANCH   4   5
BRANCH   4   7
ATOM      7  C   UNL     1       1.031   3.972  -0.623  0.00  0.00    +0.190 C 
BRANCH   7   8
ATOM      8  O   UNL     1       0.680   2.606  -0.849  0.00  0.00    -0.365 OA
BRANCH   8   9
ATOM      9  C   UNL     1      -0.724   2.383  -0.994  0.00  0.00    +0.248 C 
BRANCH   9  11
ATOM     10  C   UNL     1      -1.171  -0.193  -1.403  0.00  0.00    +0.006 C 
ATOM     11  C   UNL     1      -0.972   0.950  -1.222  0.00  0.00    -0.077 C 
ENDBRANCH   9  11
ENDBRANCH   8   9
ENDBRANCH   7   8
ENDBRANCH   4   7
ENDBRANCH   3   4
ENDBRANCH   1   3
BRANCH   1  12
ATOM     12  C   UNL     1       5.140   5.351  -1.001  0.00  0.00    -0.002 C 
BRANCH  12  13
ATOM     13  C   UNL     1       6.607   5.372  -0.654  0.00  0.00    +0.089 A 
ATOM     14  C   UNL     1       7.360   4.299  -0.356  0.00  0.00    +0.042 A 
ATOM     15  C   UNL     1       8.666   4.774  -0.097  0.00  0.00    +0.041 A 
ATOM     16  C   UNL     1       8.633   6.110  -0.253  0.00  0.00    +0.195 A 
ATOM     17  O   UNL     1       7.384   6.466  -0.596  0.00  0.00    -0.470 OA
ENDBRANCH  12  13
ENDBRANCH   1  12
BRANCH   1  18
ATOM     18  C   UNL     1       4.662   6.942   0.730  0.00  0.00    -0.003 C 
BRANCH  18  19
ATOM     19  C   UNL     1       3.976   7.139   2.057  0.00  0.00    +0.094 A 
ATOM     20  N   UNL     1       4.026   8.355   2.659  0.00  0.00    -0.312 N 
ATOM     21  H   UNL     1       4.503   9.081   2.226  0.00  0.00    +0.170 HD
ATOM     22  C   UNL     1       3.427   8.575   3.844  0.00  0.00    +0.260 A 
ATOM     23  O   UNL     1       3.480   9.672   4.373  0.00  0.00    -0.267 OA
ATOM     24  C   UNL     1       2.725   7.495   4.472  0.00  0.00    +0.075 A 
ATOM     25  C   UNL     1       2.004   7.507   5.754  0.00  0.00    -0.023 A 
ATOM     26  C   UNL     1       1.421   6.356   6.133  0.00  0.00    -0.004 A 
ATOM     27  S   UNL     1       1.786   5.205   4.828  0.00  0.00    -0.073 S 
ATOM     28  C   UNL     1       2.727   6.279   3.777  0.00  0.00    +0.116 A 
ATOM     29  N   UNL     1       3.338   6.138   2.604  0.00  0.00    -0.229 NA
ATOM     30  C   UNL     1       0.719   6.484   7.458  0.00  0.00    +0.043 C 
ATOM     31  C   UNL     1       1.301   7.772   8.082  0.00  0.00    +0.010 C 
ATOM     32  C   UNL     1       1.729   8.562   6.830  0.00  0.00    +0.037 C 
ENDBRANCH  18  19
ENDBRANCH   1  18
TORSDOF 11
