REMARK  Name = ZINC06557125
REMARK  4 active torsions:
REMARK  status: ('A' for Active; 'I' for Inactive)
REMARK    1  A    between atoms: C_1  and  C_2
REMARK    2  A    between atoms: N_6  and  N_7
REMARK    3  A    between atoms: C_8  and  C_9
REMARK    4  A    between atoms: C_14  and  O_15
REMARK                            x       y       z     vdW  Elec       q    Type
REMARK                         _______ _______ _______ _____ _____    ______ ____
ROOT
ATOM      1  N   UNL     1       0.030  -0.371   2.446  0.00  0.00    -0.171 NA
ATOM      2  C   UNL     1      -0.047  -1.233   3.414  0.00  0.00    +0.145 C 
ENDROOT
BRANCH   1   8
ATOM      3  C   UNL     1       0.469   1.466   0.021  0.00  0.00    +0.090 C 
ATOM      4  C   UNL     1       0.224  -0.021   0.007  0.00  0.00    +0.150 A 
ATOM      5  N   UNL     1       0.165  -0.765  -1.051  0.00  0.00    -0.157 NA
ATOM      6  N   UNL     1      -0.078  -2.084  -0.644  0.00  0.00    -0.253 N 
ATOM      7  C   UNL     1      -0.159  -2.080   0.703  0.00  0.00    +0.196 A 
ATOM      8  N   UNL     1       0.031  -0.811   1.115  0.00  0.00    -0.193 N 
ATOM      9  S   UNL     1      -0.446  -3.438   1.705  0.00  0.00    -0.010 S 
ATOM     10  H   UNL     1      -0.171  -2.856  -1.223  0.00  0.00    +0.191 HD
ENDBRANCH   1   8
BRANCH   2  11
ATOM     11  C   UNL     1      -0.151  -0.767   4.808  0.00  0.00    +0.036 A 
ATOM     12  C   UNL     1      -0.228  -1.691   5.853  0.00  0.00    +0.013 A 
ATOM     13  C   UNL     1      -0.325  -1.248   7.155  0.00  0.00    +0.001 A 
ATOM     14  C   UNL     1      -0.347   0.108   7.432  0.00  0.00    +0.004 A 
ATOM     15  C   UNL     1      -0.271   1.032   6.407  0.00  0.00    +0.046 A 
ATOM     16  C   UNL     1      -0.167   0.605   5.093  0.00  0.00    +0.125 A 
BRANCH  16  17
ATOM     17  O   UNL     1      -0.087   1.512   4.086  0.00  0.00    -0.506 OA
ATOM     18  H   UNL     1      -0.945   1.778   3.727  0.00  0.00    +0.292 HD
ENDBRANCH  16  17
ENDBRANCH   2  11
TORSDOF 3
