REMARK  Name = ZINC44169060
REMARK  5 active torsions:
REMARK  status: ('A' for Active; 'I' for Inactive)
REMARK    1  A    between atoms: C_5  and  C_7
REMARK    2  A    between atoms: C_12  and  C_15
REMARK    3  A    between atoms: N_17  and  C_18
REMARK    4  A    between atoms: C_18  and  C_19
REMARK    5  A    between atoms: C_19  and  C_20
REMARK                            x       y       z     vdW  Elec       q    Type
REMARK                         _______ _______ _______ _____ _____    ______ ____
ROOT
ATOM      1  C   UNL     1       1.229  -2.186  -0.022  0.00  0.00    -0.028 C 
ATOM      2  C   UNL     1       1.380  -2.702   1.414  0.00  0.00    +0.058 C 
ATOM      3  S   UNL     1       1.469  -4.519   1.361  0.00  0.00    -0.163 S 
ATOM      4  C   UNL     1       0.038  -4.958   0.325  0.00  0.00    +0.062 C 
ATOM      5  C   UNL     1       0.088  -4.104  -0.948  0.00  0.00    +0.027 C 
ATOM      6  N   UNL     1      -0.021  -2.686  -0.599  0.00  0.00    +0.392 N 
ATOM      7  H   UNL     1      -0.766  -2.565   0.070  0.00  0.00    -0.084 HD
ATOM      8  H   UNL     1      -0.236  -2.157  -1.431  0.00  0.00    -0.084 HD
ENDROOT
BRANCH   1  13
ATOM      9  C   UNL     1      -0.017   1.378   0.010  0.00  0.00    +0.000 A 
ATOM     10  C   UNL     1       1.171   2.086   0.002  0.00  0.00    +0.001 A 
ATOM     11  C   UNL     1       2.377   1.412  -0.013  0.00  0.00    +0.020 A 
ATOM     12  C   UNL     1       2.397   0.029  -0.021  0.00  0.00    +0.043 A 
ATOM     13  C   UNL     1       1.208  -0.679  -0.013  0.00  0.00    -0.042 A 
ATOM     14  C   UNL     1       0.002  -0.004   0.002  0.00  0.00    +0.003 A 
ATOM     15 CL   UNL     1       3.912  -0.818  -0.041  0.00  0.00    -0.083 Cl
ENDBRANCH   1  13
BRANCH   5  16
ATOM     16  C   UNL     1      -1.057  -4.485  -1.851  0.00  0.00    +0.200 C 
ATOM     17  O   UNL     1      -1.883  -3.655  -2.166  0.00  0.00    -0.278 OA
ATOM     18  N   UNL     1      -1.163  -5.749  -2.309  0.00  0.00    -0.316 N 
ATOM     19  H   UNL     1      -0.502  -6.413  -2.057  0.00  0.00    +0.149 HD
BRANCH  18  20
ATOM     20  C   UNL     1      -2.276  -6.119  -3.186  0.00  0.00    +0.109 C 
BRANCH  20  21
ATOM     21  C   UNL     1      -2.162  -7.599  -3.558  0.00  0.00    +0.054 C 
BRANCH  21  22
ATOM     22  C   UNL     1      -3.307  -7.980  -4.461  0.00  0.00    -0.046 A 
ATOM     23  C   UNL     1      -4.491  -8.440  -3.918  0.00  0.00    +0.006 A 
ATOM     24  C   UNL     1      -5.542  -8.790  -4.745  0.00  0.00    +0.038 A 
ATOM     25  C   UNL     1      -5.408  -8.678  -6.118  0.00  0.00    +0.123 A 
ATOM     26  C   UNL     1      -4.221  -8.216  -6.662  0.00  0.00    +0.038 A 
ATOM     27  C   UNL     1      -3.174  -7.863  -5.832  0.00  0.00    +0.006 A 
ATOM     28  F   UNL     1      -6.434  -9.019  -6.928  0.00  0.00    -0.205 F 
ENDBRANCH  21  22
ENDBRANCH  20  21
ENDBRANCH  18  20
ENDBRANCH   5  16
TORSDOF 5
