REMARK  Name = ZINC64391301
REMARK  3 active torsions:
REMARK  status: ('A' for Active; 'I' for Inactive)
REMARK    1  A    between atoms: C_4  and  C_7
REMARK    2  A    between atoms: C_11  and  C_13
REMARK    3  A    between atoms: C_16  and  C_20
REMARK                            x       y       z     vdW  Elec       q    Type
REMARK                         _______ _______ _______ _____ _____    ______ ____
ROOT
ATOM      1  C   UNL     1       3.374  -2.715   1.387  0.00  0.00    +0.225 C 
ATOM      2  N   UNL     1       3.797  -4.122   1.566  0.00  0.00    -0.268 NA
ATOM      3  C   UNL     1       2.625  -4.772   2.213  0.00  0.00    +0.180 C 
ATOM      4  N   UNL     1       1.481  -4.089   1.552  0.00  0.00    -0.178 NA
ATOM      5  O   UNL     1       1.939  -2.695   1.381  0.00  0.00    -0.278 OA
ATOM      6  H   UNL     1       4.004  -4.554   0.677  0.00  0.00    +0.126 HD
ATOM      7  H   UNL     1       1.273  -4.514   0.660  0.00  0.00    +0.156 HD
ENDROOT
BRANCH   3   8
ATOM      8  C   UNL     1       2.608  -6.252   1.930  0.00  0.00    -0.014 A 
ATOM      9  C   UNL     1       3.797  -6.933   1.742  0.00  0.00    +0.009 A 
ATOM     10  C   UNL     1       3.783  -8.290   1.483  0.00  0.00    +0.039 A 
ATOM     11  C   UNL     1       2.578  -8.968   1.412  0.00  0.00    +0.123 A 
ATOM     12  C   UNL     1       1.388  -8.286   1.601  0.00  0.00    +0.039 A 
ATOM     13  C   UNL     1       1.405  -6.929   1.865  0.00  0.00    +0.009 A 
ATOM     14  F   UNL     1       2.563 -10.295   1.159  0.00  0.00    -0.205 F 
ENDBRANCH   3   8
BRANCH   1  19
ATOM     15  C   UNL     1       3.557  -0.711  -0.104  0.00  0.00    +0.083 C 
ATOM     16  N   UNL     1       4.697  -0.080  -0.176  0.00  0.00    -0.153 NA
ATOM     17  N   UNL     1       5.783  -0.945  -0.088  0.00  0.00    -0.161 NA
ATOM     18  C   UNL     1       5.423  -2.180   0.046  0.00  0.00    +0.121 C 
ATOM     19  C   UNL     1       3.907  -2.177   0.057  0.00  0.00    +0.128 C 
BRANCH  15  23
ATOM     20  C   UNL     1      -0.325   0.990  -0.269  0.00  0.00    +0.000 A 
ATOM     21  C   UNL     1      -0.145  -0.345  -0.586  0.00  0.00    +0.001 A 
ATOM     22  C   UNL     1       1.114  -0.905  -0.534  0.00  0.00    +0.010 A 
ATOM     23  C   UNL     1       2.210  -0.121  -0.162  0.00  0.00    -0.001 A 
ATOM     24  C   UNL     1       2.020   1.228   0.156  0.00  0.00    +0.010 A 
ATOM     25  C   UNL     1       0.754   1.773   0.101  0.00  0.00    +0.001 A 
ENDBRANCH  15  23
ENDBRANCH   1  19
TORSDOF 3
