REMARK  Name = ZINC36504758
REMARK  9 active torsions:
REMARK  status: ('A' for Active; 'I' for Inactive)
REMARK    1  A    between atoms: C_3  and  C_10
REMARK    2  A    between atoms: C_5  and  N_7
REMARK    3  A    between atoms: N_12  and  C_13
REMARK    4  A    between atoms: N_12  and  C_19
REMARK    5  A    between atoms: C_13  and  C_14
REMARK    6  A    between atoms: C_19  and  C_21
REMARK    7  A    between atoms: C_19  and  C_28
REMARK    8  A    between atoms: C_24  and  O_27
REMARK    9  A    between atoms: N_30  and  C_31
REMARK                            x       y       z     vdW  Elec       q    Type
REMARK                         _______ _______ _______ _____ _____    ______ ____
ROOT
ATOM      1  C   UNL     1       4.596   4.459   1.070  0.00  0.00    +0.193 C 
ENDROOT
BRANCH   1   2
ATOM      2  C   UNL     1       3.545   4.856   2.074  0.00  0.00    -0.018 A 
ATOM      3  C   UNL     1       2.218   4.927   1.693  0.00  0.00    +0.009 A 
ATOM      4  C   UNL     1       1.253   5.291   2.612  0.00  0.00    +0.046 A 
ATOM      5  C   UNL     1       1.616   5.585   3.918  0.00  0.00    +0.117 A 
ATOM      6  C   UNL     1       2.948   5.512   4.298  0.00  0.00    +0.046 A 
ATOM      7  C   UNL     1       3.909   5.142   3.377  0.00  0.00    +0.009 A 
BRANCH   5   8
ATOM      8  O   UNL     1       0.668   5.943   4.824  0.00  0.00    -0.507 OA
ATOM      9  H   UNL     1       0.284   5.199   5.307  0.00  0.00    +0.292 HD
ENDBRANCH   5   8
ENDBRANCH   1   2
BRANCH   1  10
ATOM     10  C   UNL     1       5.957   4.519   1.716  0.00  0.00    +0.238 C 
ATOM     11  O   UNL     1       6.707   5.438   1.465  0.00  0.00    -0.273 OA
ATOM     12  N   UNL     1       6.339   3.551   2.573  0.00  0.00    -0.311 N 
ATOM     13  H   UNL     1       5.738   2.816   2.774  0.00  0.00    +0.149 HD
BRANCH  12  14
ATOM     14  C   UNL     1       7.661   3.609   3.201  0.00  0.00    +0.073 C 
ATOM     15  C   UNL     1       8.698   2.986   2.264  0.00  0.00    +0.022 C 
ATOM     16  C   UNL     1      10.079   3.046   2.920  0.00  0.00    +0.002 C 
ATOM     17  C   UNL     1      10.052   2.272   4.239  0.00  0.00    +0.000 C 
ATOM     18  C   UNL     1       9.014   2.895   5.176  0.00  0.00    +0.002 C 
ATOM     19  C   UNL     1       7.634   2.834   4.520  0.00  0.00    +0.022 C 
ENDBRANCH  12  14
ENDBRANCH   1  10
BRANCH   1  22
ATOM     20  C   UNL     1       4.376   4.902  -1.316  0.00  0.00    +0.248 C 
ATOM     21  O   UNL     1       4.604   5.610  -2.277  0.00  0.00    -0.270 OA
ATOM     22  N   UNL     1       4.556   5.380  -0.069  0.00  0.00    -0.275 N 
BRANCH  20  25
ATOM     23  C   UNL     1       2.591   1.640  -0.784  0.00  0.00    +0.003 A 
ATOM     24  C   UNL     1       3.031   2.934  -0.592  0.00  0.00    +0.013 A 
ATOM     25  C   UNL     1       3.901   3.516  -1.515  0.00  0.00    +0.039 A 
ATOM     26  C   UNL     1       4.320   2.784  -2.627  0.00  0.00    +0.045 A 
ATOM     27  C   UNL     1       3.872   1.492  -2.807  0.00  0.00    +0.127 A 
ATOM     28  C   UNL     1       3.010   0.921  -1.888  0.00  0.00    +0.033 A 
BRANCH  27  29
ATOM     29  N   UNL     1       4.315   0.714  -3.986  0.00  0.00    +0.056 N 
ATOM     30  O   UNL     1       5.069   1.212  -4.790  0.00  0.00    -0.126 OA
ATOM     31  O   UNL     1       3.924  -0.418  -4.145  0.00  0.00    -0.126 OA
ENDBRANCH  27  29
ENDBRANCH  20  25
BRANCH  22  32
ATOM     32  C   UNL     1       4.711   6.821   0.148  0.00  0.00    +0.183 C 
BRANCH  32  33
ATOM     33  C   UNL     1       5.700   7.374  -0.845  0.00  0.00    +0.122 A 
ATOM     34  C   UNL     1       5.394   7.965  -2.014  0.00  0.00    +0.046 A 
ATOM     35  C   UNL     1       6.617   8.329  -2.622  0.00  0.00    +0.041 A 
ATOM     36  C   UNL     1       7.598   7.941  -1.787  0.00  0.00    +0.195 A 
ATOM     37  O   UNL     1       7.036   7.368  -0.710  0.00  0.00    -0.466 OA
ENDBRANCH  32  33
ENDBRANCH  22  32
ENDBRANCH   1  22
TORSDOF 9
