REMARK  Name = ZINC35331812
REMARK  5 active torsions:
REMARK  status: ('A' for Active; 'I' for Inactive)
REMARK    1  A    between atoms: C_4  and  O_9
REMARK    2  A    between atoms: C_5  and  C_7
REMARK    3  A    between atoms: O_9  and  C_10
REMARK    4  A    between atoms: C_13  and  C_17
REMARK    5  A    between atoms: C_15  and  N_16
REMARK                            x       y       z     vdW  Elec       q    Type
REMARK                         _______ _______ _______ _____ _____    ______ ____
ROOT
ATOM      1  C   UNL     1       4.685   0.227  -0.035  0.00  0.00    +0.149 A 
ATOM      2  C   UNL     1       4.496   1.600   0.040  0.00  0.00    +0.049 A 
ATOM      3  C   UNL     1       5.581   2.449   0.041  0.00  0.00    +0.017 A 
ATOM      4  C   UNL     1       6.876   1.930  -0.032  0.00  0.00    +0.038 A 
ATOM      5  C   UNL     1       7.068   0.548  -0.106  0.00  0.00    +0.039 A 
ATOM      6  C   UNL     1       5.976  -0.300  -0.102  0.00  0.00    +0.068 A 
ENDROOT
BRANCH   4   7
ATOM      7  C   UNL     1       8.039   2.839  -0.031  0.00  0.00    +0.242 C 
ATOM      8  O   UNL     1       9.165   2.386  -0.095  0.00  0.00    -0.270 OA
ATOM      9  N   UNL     1       7.852   4.172   0.040  0.00  0.00    -0.325 N 
ATOM     10  H   UNL     1       6.953   4.534   0.091  0.00  0.00    +0.145 HD
ATOM     11  H   UNL     1       8.616   4.770   0.041  0.00  0.00    +0.145 HD
ENDBRANCH   4   7
BRANCH   6  12
ATOM     12  N   UNL     1       6.164  -1.685  -0.171  0.00  0.00    -0.355 N 
ATOM     13  H   UNL     1       5.397  -2.279  -0.172  0.00  0.00    +0.142 HD
ATOM     14  H   UNL     1       7.061  -2.051  -0.218  0.00  0.00    +0.142 HD
ENDBRANCH   6  12
BRANCH   1  15
ATOM     15  O   UNL     1       3.612  -0.606  -0.036  0.00  0.00    -0.453 OA
BRANCH  15  19
ATOM     16  C   UNL     1       2.378  -2.184   3.580  0.00  0.00    +0.001 A 
ATOM     17  C   UNL     1       3.396  -1.246   3.538  0.00  0.00    +0.004 A 
ATOM     18  C   UNL     1       3.810  -0.717   2.331  0.00  0.00    +0.047 A 
ATOM     19  C   UNL     1       3.207  -1.124   1.151  0.00  0.00    +0.146 A 
ATOM     20  C   UNL     1       2.176  -2.073   1.189  0.00  0.00    +0.094 A 
ATOM     21  C   UNL     1       1.767  -2.599   2.417  0.00  0.00    +0.022 A 
BRANCH  20  22
ATOM     22  C   UNL     1       1.545  -2.501  -0.024  0.00  0.00    +0.103 C 
ATOM     23  N   UNL     1       1.044  -2.840  -0.986  0.00  0.00    -0.191 NA
ENDBRANCH  20  22
ENDBRANCH  15  19
ENDBRANCH   1  15
TORSDOF 5
