REMARK  Name = ZINC40670377
REMARK  5 active torsions:
REMARK  status: ('A' for Active; 'I' for Inactive)
REMARK    1  A    between atoms: C_4  and  N_21
REMARK    2  A    between atoms: N_7  and  C1*_10
REMARK    3  A    between atoms: C3*_13  and  O3*_20
REMARK    4  A    between atoms: C4*_15  and  C5*_18
REMARK    5  A    between atoms: C5*_18  and  O5*_19
REMARK                            x       y       z     vdW  Elec       q    Type
REMARK                         _______ _______ _______ _____ _____    ______ ____
ROOT
ATOM      1  C   UNL     1      -0.017   1.389   0.010  0.00  0.00    +0.048 A 
ATOM      2  C   UNL     1       1.168   2.069   0.002  0.00  0.00    +0.115 A 
ATOM      3  N   UNL     1       2.330   1.435  -0.013  0.00  0.00    -0.238 NA
ATOM      4  C   UNL     1       2.413   0.115  -0.021  0.00  0.00    +0.144 A 
ATOM      5  C   UNL     1       1.245  -0.661  -0.013  0.00  0.00    +0.128 A 
ATOM      6  C   UNL     1       0.002  -0.004   0.002  0.00  0.00    +0.076 A 
ATOM      7  N   UNL     1      -0.953  -0.992   0.005  0.00  0.00    -0.303 N 
ATOM      8  C   UNL     1      -0.299  -2.188  -0.007  0.00  0.00    +0.202 A 
ATOM      9  N   UNL     1       0.987  -1.992  -0.018  0.00  0.00    -0.232 NA
ENDROOT
BRANCH   7  10
ATOM     10  C1* UNL     1      -2.405  -0.797   0.021  0.00  0.00    +0.223 C 
ATOM     11  C2* UNL     1      -2.940  -0.625  -1.423  0.00  0.00    +0.088 C 
ATOM     12  C3* UNL     1      -4.414  -1.081  -1.247  0.00  0.00    +0.150 C 
ATOM     13  C4* UNL     1      -4.290  -2.185  -0.175  0.00  0.00    +0.175 C 
ATOM     14  O4* UNL     1      -3.060  -1.969   0.529  0.00  0.00    -0.348 OA
BRANCH  12  15
ATOM     15  O3* UNL     1      -5.227  -0.002  -0.781  0.00  0.00    -0.389 OA
ATOM     16  H3* UNL     1      -5.264   0.752  -1.385  0.00  0.00    +0.210 HD
ENDBRANCH  12  15
BRANCH  13  17
ATOM     17  C5* UNL     1      -5.468  -2.098   0.798  0.00  0.00    +0.190 C 
BRANCH  17  18
ATOM     18  O5* UNL     1      -5.409  -3.192   1.716  0.00  0.00    -0.392 OA
ATOM     19  H5* UNL     1      -6.127  -3.200   2.363  0.00  0.00    +0.210 HD
ENDBRANCH  17  18
ENDBRANCH  13  17
ENDBRANCH   7  10
BRANCH   4  20
ATOM     20  N   UNL     1       3.657  -0.502  -0.037  0.00  0.00    -0.341 N 
ATOM     21  H   UNL     1       4.465   0.035  -0.042  0.00  0.00    +0.144 HD
ATOM     22  H   UNL     1       3.718  -1.470  -0.043  0.00  0.00    +0.144 HD
ENDBRANCH   4  20
TORSDOF 5
