REMARK  Name = ZINC44188105
REMARK  8 active torsions:
REMARK  status: ('A' for Active; 'I' for Inactive)
REMARK    1  A    between atoms: C_1  and  C_2
REMARK    2  A    between atoms: C_2  and  C_3
REMARK    3  A    between atoms: C_4  and  C_21
REMARK    4  A    between atoms: N_6  and  C_9
REMARK    5  A    between atoms: C_7  and  C_8
REMARK    6  A    between atoms: C_12  and  C_19
REMARK    7  A    between atoms: C_16  and  O_18
REMARK    8  A    between atoms: C_19  and  C_20
REMARK                            x       y       z     vdW  Elec       q    Type
REMARK                         _______ _______ _______ _____ _____    ______ ____
ROOT
ATOM      1  C   UNL     1       0.997  -1.614   4.643  0.00  0.00    +0.136 C 
ATOM      2  C   UNL     1       1.839  -0.706   5.541  0.00  0.00    +0.033 C 
ATOM      3  C   UNL     1       1.671  -1.135   7.000  0.00  0.00    -0.009 C 
ATOM      4  C   UNL     1       2.135  -2.584   7.163  0.00  0.00    +0.006 C 
ATOM      5  C   UNL     1       1.293  -3.492   6.264  0.00  0.00    +0.034 C 
ATOM      6  C   UNL     1       1.460  -3.063   4.805  0.00  0.00    +0.139 C 
ENDROOT
BRANCH   1  10
ATOM      7  C   UNL     1       0.731  -0.503   1.223  0.00  0.00    -0.004 A 
ATOM      8  C   UNL     1       2.104  -0.754   1.317  0.00  0.00    +0.063 A 
ATOM      9  N   UNL     1       2.361  -1.174   2.529  0.00  0.00    -0.176 NA
ATOM     10  N   UNL     1       1.158  -1.204   3.246  0.00  0.00    -0.263 N 
ATOM     11  C   UNL     1       0.174  -0.783   2.424  0.00  0.00    +0.040 A 
ATOM     12  C   UNL     1      -1.285  -0.651   2.779  0.00  0.00    +0.065 C 
ATOM     13  C   UNL     1       3.113  -0.571   0.212  0.00  0.00    +0.068 C 
BRANCH   7  15
ATOM     14  C   UNL     1      -0.019   1.526   0.010  0.00  0.00    +0.009 C 
ATOM     15  C   UNL     1       0.002  -0.004   0.002  0.00  0.00    +0.035 C 
ENDBRANCH   7  15
ENDBRANCH   1  10
BRANCH   6  16
ATOM     16  O   UNL     1       2.836  -3.168   4.433  0.00  0.00    -0.390 OA
ATOM     17  H   UNL     1       3.198  -4.062   4.511  0.00  0.00    +0.210 HD
ENDBRANCH   6  16
BRANCH   3  18
ATOM     18  C   UNL     1       2.513  -0.227   7.899  0.00  0.00    +0.000 C 
ATOM     19  C   UNL     1       2.250  -0.574   9.366  0.00  0.00    +0.004 C 
ENDBRANCH   3  18
TORSDOF 4
