REMARK  Name = ZINC39373556
REMARK  5 active torsions:
REMARK  status: ('A' for Active; 'I' for Inactive)
REMARK    1  A    between atoms: C_1  and  O_2
REMARK    2  A    between atoms: O_2  and  C_3
REMARK    3  A    between atoms: C_7  and  N_9
REMARK    4  A    between atoms: C_10  and  C_16
REMARK    5  A    between atoms: C_16  and  C_17
REMARK                            x       y       z     vdW  Elec       q    Type
REMARK                         _______ _______ _______ _____ _____    ______ ____
ROOT
ATOM      1  N   UNL     1       1.325  -3.998  -2.289  0.00  0.00    -0.264 N 
ATOM      2  C   UNL     1       1.854  -4.795  -3.409  0.00  0.00    +0.170 C 
ATOM      3  N   UNL     1       1.670  -6.195  -2.977  0.00  0.00    -0.220 NA
ATOM      4  N   UNL     1       1.095  -6.139  -1.740  0.00  0.00    -0.260 N 
ATOM      5  C   UNL     1       0.907  -4.870  -1.354  0.00  0.00    +0.152 C 
ATOM      6  S   UNL     1       0.216  -4.414   0.145  0.00  0.00    -0.017 S 
ATOM      7  H   UNL     1       1.084  -6.699  -3.626  0.00  0.00    +0.146 HD
ATOM      8  H   UNL     1       0.858  -6.915  -1.209  0.00  0.00    +0.168 HD
ENDROOT
BRANCH   1  13
ATOM      9  C   UNL     1       2.001  -0.546  -1.208  0.00  0.00    +0.122 A 
ATOM     10  C   UNL     1       1.165   0.161  -2.061  0.00  0.00    +0.046 A 
ATOM     11  C   UNL     1       0.387  -0.511  -2.984  0.00  0.00    +0.005 A 
ATOM     12  C   UNL     1       0.439  -1.889  -3.062  0.00  0.00    +0.024 A 
ATOM     13  C   UNL     1       1.273  -2.603  -2.211  0.00  0.00    +0.040 A 
ATOM     14  C   UNL     1       2.059  -1.929  -1.287  0.00  0.00    +0.069 A 
BRANCH   9  16
ATOM     15  C   UNL     1       2.654   1.541  -0.276  0.00  0.00    +0.277 C 
ATOM     16  O   UNL     1       2.765   0.116  -0.301  0.00  0.00    -0.495 OA
ENDBRANCH   9  16
ENDBRANCH   1  13
BRANCH   2  17
ATOM     17  C   UNL     1       3.337  -4.490  -3.629  0.00  0.00    +0.093 C 
BRANCH  17  18
ATOM     18  C   UNL     1       3.824  -5.222  -4.853  0.00  0.00    +0.029 A 
ATOM     19  N   UNL     1       4.236  -6.523  -4.757  0.00  0.00    -0.311 N 
ATOM     20  C   UNL     1       4.672  -7.186  -5.843  0.00  0.00    +0.327 A 
ATOM     21  O   UNL     1       5.034  -8.342  -5.736  0.00  0.00    -0.247 OA
ATOM     22  N   UNL     1       4.713  -6.588  -7.048  0.00  0.00    -0.275 N 
ATOM     23  C   UNL     1       4.316  -5.306  -7.185  0.00  0.00    +0.254 A 
ATOM     24  O   UNL     1       4.352  -4.764  -8.275  0.00  0.00    -0.268 OA
ATOM     25  C   UNL     1       3.850  -4.599  -6.050  0.00  0.00    +0.091 A 
ATOM     26  H   UNL     1       5.030  -7.080  -7.822  0.00  0.00    +0.173 HD
ATOM     27  H   UNL     1       4.214  -6.972  -3.897  0.00  0.00    +0.170 HD
ENDBRANCH  17  18
ENDBRANCH   2  17
TORSDOF 4
