REMARK  Name = ZINC58439316
REMARK  14 active torsions:
REMARK  status: ('A' for Active; 'I' for Inactive)
REMARK    1  A    between atoms: C_1  and  C_2
REMARK    2  A    between atoms: C_2  and  C_3
REMARK    3  A    between atoms: C_2  and  N_4
REMARK    4  A    between atoms: N_4  and  S_5
REMARK    5  A    between atoms: S_5  and  C_8
REMARK    6  A    between atoms: C_8  and  C_9
REMARK    7  A    between atoms: C_14  and  C_15
REMARK    8  A    between atoms: C_15  and  N_16
REMARK    9  A    between atoms: N_19  and  C_20
REMARK   10  A    between atoms: C_20  and  C_21
REMARK   11  A    between atoms: C_26  and  C_27
REMARK   12  A    between atoms: C_27  and  N_28
REMARK   13  A    between atoms: N_28  and  C_29
REMARK   14  A    between atoms: N_28  and  C_30
REMARK                            x       y       z     vdW  Elec       q    Type
REMARK                         _______ _______ _______ _____ _____    ______ ____
ROOT
ATOM      1  N   UNL     1      -4.292  -1.909   1.290  0.00  0.00    -0.295 N 
ATOM      2  C   UNL     1      -4.839  -1.180   0.298  0.00  0.00    +0.300 C 
ATOM      3  O   UNL     1      -4.908   0.030   0.399  0.00  0.00    -0.253 OA
ATOM      4  N   UNL     1      -5.309  -1.791  -0.808  0.00  0.00    -0.295 N 
ATOM      5  H   UNL     1      -4.237  -2.874   1.209  0.00  0.00    +0.151 HD
ATOM      6  H   UNL     1      -5.254  -2.756  -0.889  0.00  0.00    +0.151 HD
ENDROOT
BRANCH   1   7
ATOM      7  C   UNL     1      -3.781  -1.245   2.492  0.00  0.00    +0.141 C 
BRANCH   7  13
ATOM      8  C   UNL     1      -1.962  -2.798   3.231  0.00  0.00    -0.020 A 
ATOM      9  C   UNL     1      -1.451  -3.741   4.104  0.00  0.00    +0.005 A 
ATOM     10  C   UNL     1      -2.206  -4.167   5.180  0.00  0.00    +0.000 A 
ATOM     11  C   UNL     1      -3.472  -3.650   5.385  0.00  0.00    +0.000 A 
ATOM     12  C   UNL     1      -3.982  -2.707   4.514  0.00  0.00    +0.005 A 
ATOM     13  C   UNL     1      -3.226  -2.277   3.439  0.00  0.00    -0.026 A 
BRANCH   8  14
ATOM     14  C   UNL     1      -1.140  -2.333   2.057  0.00  0.00    +0.220 C 
BRANCH  14  15
ATOM     15  S   UNL     1      -0.139  -0.902   2.549  0.00  0.00    +0.034 S 
ATOM     16  O   UNL     1       0.851  -1.297   3.489  0.00  0.00    -0.158 OA
ATOM     17  O   UNL     1      -0.977   0.216   2.807  0.00  0.00    -0.158 OA
BRANCH  15  18
ATOM     18  N   UNL     1       0.711  -0.489   1.189  0.00  0.00    -0.192 NA
ATOM     19  H   UNL     1       1.677  -0.569   1.178  0.00  0.00    +0.148 HD
BRANCH  18  21
ATOM     20  C   UNL     1      -0.019   1.526   0.010  0.00  0.00    +0.025 C 
ATOM     21  C   UNL     1       0.002  -0.004   0.002  0.00  0.00    +0.070 C 
ATOM     22  C   UNL     1       0.718  -0.497  -1.257  0.00  0.00    +0.025 C 
ENDBRANCH  18  21
ENDBRANCH  15  18
ENDBRANCH  14  15
ENDBRANCH   8  14
ENDBRANCH   7  13
ENDBRANCH   1   7
BRANCH   4  23
ATOM     23  C   UNL     1      -5.903  -0.998  -1.887  0.00  0.00    +0.141 C 
BRANCH  23  24
ATOM     24  C   UNL     1      -6.346  -1.914  -2.998  0.00  0.00    -0.029 A 
ATOM     25  C   UNL     1      -5.556  -2.072  -4.121  0.00  0.00    +0.005 A 
ATOM     26  C   UNL     1      -5.962  -2.912  -5.140  0.00  0.00    +0.000 A 
ATOM     27  C   UNL     1      -7.160  -3.595  -5.037  0.00  0.00    +0.000 A 
ATOM     28  C   UNL     1      -7.950  -3.439  -3.913  0.00  0.00    +0.002 A 
ATOM     29  C   UNL     1      -7.541  -2.602  -2.892  0.00  0.00    -0.059 A 
BRANCH  29  30
ATOM     30  C   UNL     1      -8.400  -2.435  -1.665  0.00  0.00    -0.043 C 
BRANCH  30  31
ATOM     31  N   UNL     1      -9.169  -1.188  -1.771  0.00  0.00    +0.379 N 
ATOM     32  C   UNL     1     -10.111  -1.288  -2.894  0.00  0.00    -0.096 C 
ATOM     33  C   UNL     1      -9.915  -0.965  -0.525  0.00  0.00    -0.096 C 
ATOM     34  H   UNL     1      -8.539  -0.416  -1.929  0.00  0.00    -0.082 HD
ENDBRANCH  30  31
ENDBRANCH  29  30
ENDBRANCH  23  24
ENDBRANCH   4  23
TORSDOF 10
