REMARK  Name = ZINC11697072
REMARK  6 active torsions:
REMARK  status: ('A' for Active; 'I' for Inactive)
REMARK    1  A    between atoms: C_1  and  C_2
REMARK    2  A    between atoms: C_6  and  N_8
REMARK    3  A    between atoms: N_15  and  C_16
REMARK    4  A    between atoms: C_16  and  C_17
REMARK    5  A    between atoms: C_17  and  N_18
REMARK    6  A    between atoms: C_19  and  C_21
REMARK                            x       y       z     vdW  Elec       q    Type
REMARK                         _______ _______ _______ _____ _____    ______ ____
ROOT
ATOM      1  N   UNL     1      -4.888   3.463   0.043  0.00  0.00    -0.283 N 
ATOM      2  C   UNL     1      -3.634   2.924  -0.242  0.00  0.00    +0.147 A 
ATOM      3  C   UNL     1      -2.480   3.671  -0.002  0.00  0.00    +0.049 A 
ATOM      4  C   UNL     1      -1.258   3.092  -0.297  0.00  0.00    +0.049 A 
ATOM      5  C   UNL     1      -1.257   1.800  -0.826  0.00  0.00    +0.141 A 
ATOM      6  N   UNL     1      -2.402   1.167  -1.020  0.00  0.00    -0.133 NA
ATOM      7  N   UNL     1      -3.535   1.702  -0.742  0.00  0.00    -0.132 NA
ATOM      8  N   UNL     1      -0.052   1.177  -1.143  0.00  0.00    -0.326 N 
ATOM      9  H   UNL     1      -4.966   4.391   0.315  0.00  0.00    +0.155 HD
ATOM     10  H   UNL     1      -0.052   0.278  -1.507  0.00  0.00    +0.148 HD
ENDROOT
BRANCH   1  16
ATOM     11  C   UNL     1      -9.653   3.223  -0.353  0.00  0.00    +0.065 C 
ATOM     12  C   UNL     1      -8.321   2.525  -0.252  0.00  0.00    +0.040 A 
ATOM     13  C   UNL     1      -8.272   1.145  -0.266  0.00  0.00    +0.023 A 
ATOM     14  C   UNL     1      -7.042   0.507  -0.173  0.00  0.00    +0.005 A 
ATOM     15  C   UNL     1      -5.902   1.284  -0.073  0.00  0.00    +0.044 A 
ATOM     16  C   UNL     1      -6.026   2.670  -0.060  0.00  0.00    +0.124 A 
ATOM     17  N   UNL     1      -7.218   3.240  -0.152  0.00  0.00    -0.237 NA
ENDBRANCH   1  16
BRANCH   8  18
ATOM     18  C   UNL     1       1.215   1.882  -0.934  0.00  0.00    +0.121 C 
BRANCH  18  19
ATOM     19  C   UNL     1       2.376   0.984  -1.366  0.00  0.00    +0.123 C 
BRANCH  19  20
ATOM     20  N   UNL     1       3.643   1.689  -1.156  0.00  0.00    -0.307 N 
ATOM     21  C   UNL     1       4.808   1.088  -1.469  0.00  0.00    +0.279 C 
ATOM     22  O   UNL     1       4.808  -0.040  -1.925  0.00  0.00    -0.267 OA
ATOM     23  H   UNL     1       3.643   2.588  -0.792  0.00  0.00    +0.149 HD
BRANCH  21  24
ATOM     24  C   UNL     1       6.075   1.793  -1.259  0.00  0.00    +0.191 A 
ATOM     25  C   UNL     1       7.322   1.301  -1.526  0.00  0.00    +0.056 A 
ATOM     26  C   UNL     1       8.236   2.307  -1.179  0.00  0.00    +0.058 A 
ATOM     27  C   UNL     1       7.518   3.354  -0.712  0.00  0.00    +0.171 A 
ATOM     28  O   UNL     1       6.216   3.040  -0.762  0.00  0.00    -0.444 OA
ATOM     29 BR   UNL     1       8.233   4.992  -0.093  0.00  0.00    -0.008 Br
ENDBRANCH  21  24
ENDBRANCH  19  20
ENDBRANCH  18  19
ENDBRANCH   8  18
TORSDOF 5
