REMARK  Name = ZINC41630452
REMARK  4 active torsions:
REMARK  status: ('A' for Active; 'I' for Inactive)
REMARK    1  A    between atoms: C_2  and  C_12
REMARK    2  A    between atoms: C_12  and  S_13
REMARK    3  A    between atoms: S_13  and  C_14
REMARK    4  A    between atoms: C_20  and  N_22
REMARK                            x       y       z     vdW  Elec       q    Type
REMARK                         _______ _______ _______ _____ _____    ______ ____
ROOT
ATOM      1  C   UNL     1       1.144   3.595   0.011  0.00  0.00    +0.112 C 
ENDROOT
BRANCH   1   3
ATOM      2  C   UNL     1      -0.017   1.378   0.010  0.00  0.00    +0.014 A 
ATOM      3  C   UNL     1       1.169   2.088   0.002  0.00  0.00    -0.035 A 
ATOM      4  C   UNL     1       2.379   1.418  -0.013  0.00  0.00    +0.028 A 
ATOM      5  C   UNL     1       2.403   0.036  -0.023  0.00  0.00    +0.083 A 
ATOM      6  C   UNL     1       1.212  -0.679  -0.017  0.00  0.00    +0.147 A 
ATOM      7  C   UNL     1       0.002  -0.004   0.002  0.00  0.00    +0.022 A 
ATOM      8  C   UNL     1      -1.298  -0.768   0.019  0.00  0.00    +0.202 C 
ATOM      9  O   UNL     1      -1.054  -2.125  -0.363  0.00  0.00    -0.339 OA
ATOM     10  C   UNL     1       0.043  -2.718   0.342  0.00  0.00    +0.395 C 
ATOM     11  O   UNL     1       1.246  -2.038  -0.030  0.00  0.00    -0.464 OA
ATOM     12 CL   UNL     1       3.921  -0.805  -0.044  0.00  0.00    -0.080 Cl
ENDBRANCH   1   3
BRANCH   1  13
ATOM     13  S   UNL     1       1.151   4.190   1.725  0.00  0.00    -0.083 S 
BRANCH  13  14
ATOM     14  C   UNL     1       1.120   5.944   1.567  0.00  0.00    +0.171 A 
ATOM     15  N   UNL     1       1.124   6.715   2.691  0.00  0.00    -0.302 N 
ATOM     16  H   UNL     1       1.144   6.296   3.565  0.00  0.00    +0.171 HD
ATOM     17  C   UNL     1       1.101   8.061   2.589  0.00  0.00    +0.254 A 
ATOM     18  O   UNL     1       1.104   8.759   3.590  0.00  0.00    -0.268 OA
ATOM     19  C   UNL     1       1.073   8.641   1.317  0.00  0.00    +0.113 A 
ATOM     20  C   UNL     1       1.070   7.812   0.204  0.00  0.00    +0.124 A 
ATOM     21  N   UNL     1       1.100   6.484   0.366  0.00  0.00    -0.209 NA
BRANCH  20  22
ATOM     22  N   UNL     1       1.043   8.355  -1.065  0.00  0.00    -0.343 N 
ATOM     23  H   UNL     1       1.026   9.318  -1.180  0.00  0.00    +0.144 HD
ATOM     24  H   UNL     1       1.041   7.773  -1.841  0.00  0.00    +0.144 HD
ENDBRANCH  20  22
ENDBRANCH  13  14
ENDBRANCH   1  13
TORSDOF 4
