REMARK  Name = ZINC62389965
REMARK  10 active torsions:
REMARK  status: ('A' for Active; 'I' for Inactive)
REMARK    1  A    between atoms: C_1  and  C_2
REMARK    2  A    between atoms: C_2  and  C_3
REMARK    3  A    between atoms: C_3  and  C_4
REMARK    4  A    between atoms: C_4  and  C_5
REMARK    5  A    between atoms: C_5  and  N_6
REMARK    6  A    between atoms: C_8  and  O_24
REMARK    7  A    between atoms: C_12  and  C_13
REMARK    8  A    between atoms: C_13  and  N_14
REMARK    9  A    between atoms: C_16  and  C_23
REMARK   10  A    between atoms: C_19  and  C_22
REMARK                            x       y       z     vdW  Elec       q    Type
REMARK                         _______ _______ _______ _____ _____    ______ ____
ROOT
ATOM      1  N   UNL     1      -2.737  -4.047  -0.236  0.00  0.00    -0.346 N 
ATOM      2  C   UNL     1      -2.740  -4.714  -1.420  0.00  0.00    +0.135 A 
ATOM      3  C   UNL     1      -2.855  -6.063  -1.452  0.00  0.00    +0.180 A 
ATOM      4  C   UNL     1      -2.973  -6.775  -0.231  0.00  0.00    +0.223 A 
ATOM      5  O   UNL     1      -3.078  -7.994  -0.228  0.00  0.00    -0.284 OA
ATOM      6  C   UNL     1      -2.967  -6.049   0.980  0.00  0.00    +0.077 A 
ATOM      7  C   UNL     1      -2.844  -4.703   0.945  0.00  0.00    +0.037 A 
ENDROOT
BRANCH   3   8
ATOM      8  O   UNL     1      -2.857  -6.726  -2.640  0.00  0.00    -0.502 OA
ATOM      9  H   UNL     1      -2.944  -7.685  -2.555  0.00  0.00    +0.292 HD
ENDBRANCH   3   8
BRANCH   1  10
ATOM     10  C   UNL     1      -2.611  -2.588  -0.236  0.00  0.00    +0.121 C 
BRANCH  10  11
ATOM     11  C   UNL     1      -1.135  -2.204  -0.353  0.00  0.00    +0.021 C 
BRANCH  11  12
ATOM     12  C   UNL     1      -1.012  -0.685  -0.498  0.00  0.00    +0.001 C 
BRANCH  12  14
ATOM     13  C   UNL     1       0.572   1.198  -0.930  0.00  0.00    +0.004 C 
ATOM     14  C   UNL     1       0.459  -0.307  -0.677  0.00  0.00    -0.003 C 
ENDBRANCH  12  14
ENDBRANCH  11  12
ENDBRANCH  10  11
ENDBRANCH   1  10
BRANCH   7  15
ATOM     15  C   UNL     1      -2.830  -3.922   2.234  0.00  0.00    +0.138 C 
BRANCH  15  16
ATOM     16  N   UNL     1      -1.446  -3.570   2.578  0.00  0.00    -0.292 NA
ATOM     17  C   UNL     1      -0.627  -4.777   2.768  0.00  0.00    +0.116 C 
ATOM     18  C   UNL     1       0.817  -4.365   3.066  0.00  0.00    +0.130 C 
ATOM     19  O   UNL     1       0.837  -3.511   4.213  0.00  0.00    -0.371 OA
ATOM     20  C   UNL     1       0.050  -2.326   4.063  0.00  0.00    +0.130 C 
ATOM     21  C   UNL     1      -1.402  -2.717   3.775  0.00  0.00    +0.116 C 
ATOM     22  C   UNL     1       0.597  -1.495   2.900  0.00  0.00    +0.039 C 
ATOM     23  C   UNL     1       1.657  -5.613   3.342  0.00  0.00    +0.039 C 
ENDBRANCH  15  16
ENDBRANCH   7  15
TORSDOF 7
