REMARK  Name = ZINC38571323
REMARK  7 active torsions:
REMARK  status: ('A' for Active; 'I' for Inactive)
REMARK    1  A    between atoms: C_1  and  C_2
REMARK    2  A    between atoms: C_2  and  C_3
REMARK    3  A    between atoms: C_6  and  C_9
REMARK    4  A    between atoms: C_11  and  C_15
REMARK    5  A    between atoms: N_17  and  N_18
REMARK    6  A    between atoms: C_19  and  C_20
REMARK    7  A    between atoms: C_29  and  O_30
REMARK                            x       y       z     vdW  Elec       q    Type
REMARK                         _______ _______ _______ _____ _____    ______ ____
ROOT
ATOM      1  C   UNL     1       3.152  -4.071   7.178  0.00  0.00    +0.263 C 
ATOM      2  O   UNL     1       3.728  -4.977   6.612  0.00  0.00    -0.271 OA
ATOM      3  N   UNL     1       2.328  -4.336   8.210  0.00  0.00    -0.205 N 
ATOM      4  H   UNL     1       1.867  -3.612   8.662  0.00  0.00    +0.177 HD
ENDROOT
BRANCH   1   7
ATOM      5  C   UNL     1       2.788  -1.911   4.668  0.00  0.00    +0.092 C 
ATOM      6  C   UNL     1       2.205  -2.191   5.850  0.00  0.00    +0.041 C 
ATOM      7  C   UNL     1       3.359  -2.648   6.725  0.00  0.00    +0.240 C 
ATOM      8  N   UNL     1       4.521  -2.549   5.827  0.00  0.00    -0.170 NA
ATOM      9  N   UNL     1       4.124  -2.147   4.730  0.00  0.00    -0.153 NA
BRANCH   5  13
ATOM     10  C   UNL     1       0.731  -0.503   1.223  0.00  0.00    -0.048 A 
ATOM     11  C   UNL     1       2.098  -0.709   1.173  0.00  0.00    +0.004 A 
ATOM     12  C   UNL     1       2.771  -1.165   2.288  0.00  0.00    +0.010 A 
ATOM     13  C   UNL     1       2.070  -1.419   3.466  0.00  0.00    +0.002 A 
ATOM     14  C   UNL     1       0.693  -1.211   3.510  0.00  0.00    +0.010 A 
ATOM     15  C   UNL     1       0.031  -0.749   2.391  0.00  0.00    +0.004 A 
BRANCH  10  17
ATOM     16  C   UNL     1      -0.019   1.526   0.010  0.00  0.00    +0.009 C 
ATOM     17  C   UNL     1       0.002  -0.004   0.002  0.00  0.00    +0.032 C 
ENDBRANCH  10  17
ENDBRANCH   5  13
ENDBRANCH   1   7
BRANCH   3  18
ATOM     18  N   UNL     1       2.135  -5.659   8.631  0.00  0.00    -0.188 NA
ATOM     19  C   UNL     1       1.340  -5.915   9.627  0.00  0.00    +0.142 C 
BRANCH  19  20
ATOM     20  C   UNL     1       1.139  -7.302  10.068  0.00  0.00    +0.044 A 
ATOM     21  C   UNL     1       0.243  -7.609  11.182  0.00  0.00    -0.006 A 
ATOM     22  C   UNL     1      -0.448  -6.599  11.863  0.00  0.00    +0.009 A 
ATOM     23  C   UNL     1      -1.274  -6.927  12.896  0.00  0.00    +0.001 A 
ATOM     24  C   UNL     1      -1.440  -8.254  13.286  0.00  0.00    +0.001 A 
ATOM     25  C   UNL     1      -0.782  -9.260  12.646  0.00  0.00    +0.008 A 
ATOM     26  C   UNL     1       0.077  -8.959  11.576  0.00  0.00    -0.017 A 
ATOM     27  C   UNL     1       0.772  -9.971  10.890  0.00  0.00    +0.012 A 
ATOM     28  C   UNL     1       1.600  -9.669   9.856  0.00  0.00    +0.046 A 
ATOM     29  C   UNL     1       1.793  -8.355   9.430  0.00  0.00    +0.126 A 
BRANCH  29  30
ATOM     30  O   UNL     1       2.626  -8.100   8.388  0.00  0.00    -0.506 OA
ATOM     31  H   UNL     1       3.545  -7.945   8.648  0.00  0.00    +0.292 HD
ENDBRANCH  29  30
ENDBRANCH  19  20
ENDBRANCH   3  18
TORSDOF 6
