REMARK  Name = ZINC39573661
REMARK  9 active torsions:
REMARK  status: ('A' for Active; 'I' for Inactive)
REMARK    1  A    between atoms: C_1  and  C_2
REMARK    2  A    between atoms: C_6  and  N_8
REMARK    3  A    between atoms: C_9  and  S_23
REMARK    4  A    between atoms: C_13  and  C_14
REMARK    5  A    between atoms: S_23  and  C_24
REMARK    6  A    between atoms: C_24  and  C_26
REMARK    7  A    between atoms: C_24  and  C_27
REMARK    8  A    between atoms: C_27  and  O_29
REMARK    9  A    between atoms: O_29  and  C_30
REMARK                            x       y       z     vdW  Elec       q    Type
REMARK                         _______ _______ _______ _____ _____    ______ ____
ROOT
ATOM      1  N   UNL     1      -0.161  -2.788   2.420  0.00  0.00    -0.254 N 
ATOM      2  C   UNL     1      -0.155  -4.252   2.571  0.00  0.00    +0.242 C 
ATOM      3  N   UNL     1       0.171  -4.469   3.990  0.00  0.00    -0.237 N 
ATOM      4  N   UNL     1       0.329  -3.201   4.561  0.00  0.00    -0.169 NA
ATOM      5  C   UNL     1       0.148  -2.256   3.675  0.00  0.00    +0.151 C 
ATOM      6  H   UNL     1       0.259  -5.324   4.441  0.00  0.00    +0.171 HD
ENDROOT
BRANCH   5   7
ATOM      7  C   UNL     1       0.248  -0.884   3.951  0.00  0.00    +0.022 C 
ATOM      8  C   UNL     1       0.449  -0.286   5.196  0.00  0.00    +0.006 A 
ATOM      9  C   UNL     1       0.608  -0.817   6.494  0.00  0.00    +0.010 A 
ATOM     10  C   UNL     1       0.794   0.021   7.546  0.00  0.00    +0.001 A 
ATOM     11  C   UNL     1       0.832   1.407   7.379  0.00  0.00    +0.002 A 
ATOM     12  C   UNL     1       0.685   1.986   6.162  0.00  0.00    +0.026 A 
ATOM     13  C   UNL     1       0.488   1.174   5.014  0.00  0.00    +0.043 A 
ATOM     14  N   UNL     1       0.324   1.486   3.744  0.00  0.00    -0.380 N 
ATOM     15  C   UNL     1       0.166   0.256   2.961  0.00  0.00    +0.152 C 
ATOM     16  H   UNL     1       0.313   2.386   3.383  0.00  0.00    +0.160 HD
ENDBRANCH   5   7
BRANCH   1  22
ATOM     17  C   UNL     1      -3.378  -0.564  -0.556  0.00  0.00    +0.044 C 
ATOM     18  C   UNL     1      -1.969  -0.979  -0.218  0.00  0.00    -0.049 A 
ATOM     19  C   UNL     1      -0.929  -0.647  -1.068  0.00  0.00    +0.003 A 
ATOM     20  C   UNL     1       0.365  -1.025  -0.762  0.00  0.00    +0.002 A 
ATOM     21  C   UNL     1       0.624  -1.735   0.394  0.00  0.00    +0.023 A 
ATOM     22  C   UNL     1      -0.418  -2.069   1.250  0.00  0.00    +0.038 A 
ATOM     23  C   UNL     1      -1.717  -1.683   0.942  0.00  0.00    +0.027 A 
ENDBRANCH   1  22
BRANCH   2  24
ATOM     24  S   UNL     1       1.111  -4.994   1.505  0.00  0.00    -0.103 S 
BRANCH  24  25
ATOM     25  C   UNL     1       2.663  -4.254   2.085  0.00  0.00    +0.155 C 
ATOM     26  C   UNL     1       2.937  -4.704   3.521  0.00  0.00    +0.031 C 
BRANCH  25  27
ATOM     27  C   UNL     1       3.795  -4.697   1.194  0.00  0.00    +0.320 C 
ATOM     28  O   UNL     1       3.674  -5.686   0.510  0.00  0.00    -0.250 OA
BRANCH  27  29
ATOM     29  O   UNL     1       4.938  -3.994   1.161  0.00  0.00    -0.467 OA
ATOM     30  C   UNL     1       5.968  -4.472   0.295  0.00  0.00    +0.280 C 
ENDBRANCH  27  29
ENDBRANCH  25  27
ENDBRANCH  24  25
ENDBRANCH   2  24
TORSDOF 6
