REMARK  Name = ZINC39915896
REMARK  12 active torsions:
REMARK  status: ('A' for Active; 'I' for Inactive)
REMARK    1  A    between atoms: C_1  and  C_2
REMARK    2  A    between atoms: C_2  and  O_3
REMARK    3  A    between atoms: O_3  and  C_4
REMARK    4  A    between atoms: C_7  and  C_10
REMARK    5  A    between atoms: C_10  and  N_11
REMARK    6  A    between atoms: C_19  and  S_20
REMARK    7  A    between atoms: S_20  and  C_21
REMARK    8  A    between atoms: C_23  and  O_36
REMARK    9  A    between atoms: C_25  and  O_35
REMARK   10  A    between atoms: C_27  and  O_34
REMARK   11  A    between atoms: C_29  and  C_32
REMARK   12  A    between atoms: C_32  and  O_33
REMARK                            x       y       z     vdW  Elec       q    Type
REMARK                         _______ _______ _______ _____ _____    ______ ____
ROOT
ATOM      1  N   UNL     1      -2.051  -6.584   1.368  0.00  0.00    -0.314 N 
ATOM      2  C   UNL     1      -0.972  -6.985   2.138  0.00  0.00    +0.070 A 
ATOM      3  C   UNL     1       0.394  -7.061   1.912  0.00  0.00    +0.028 A 
ATOM      4  C   UNL     1       1.231  -7.517   2.910  0.00  0.00    +0.002 A 
ATOM      5  C   UNL     1       0.715  -7.901   4.139  0.00  0.00    +0.002 A 
ATOM      6  C   UNL     1      -0.639  -7.833   4.380  0.00  0.00    +0.030 A 
ATOM      7  C   UNL     1      -1.500  -7.373   3.380  0.00  0.00    +0.090 A 
ATOM      8  N   UNL     1      -2.845  -7.195   3.316  0.00  0.00    -0.222 NA
ATOM      9  C   UNL     1      -3.172  -6.726   2.137  0.00  0.00    +0.173 A 
ENDROOT
BRANCH   1  10
ATOM     10  C   UNL     1      -2.001  -6.092  -0.011  0.00  0.00    +0.159 C 
BRANCH  10  14
ATOM     11  C   UNL     1      -1.498  -1.848   0.006  0.00  0.00    +0.121 A 
ATOM     12  C   UNL     1      -0.388  -2.679  -0.003  0.00  0.00    +0.046 A 
ATOM     13  C   UNL     1      -0.553  -4.051  -0.008  0.00  0.00    +0.009 A 
ATOM     14  C   UNL     1      -1.823  -4.596  -0.005  0.00  0.00    -0.027 A 
ATOM     15  C   UNL     1      -2.932  -3.769   0.004  0.00  0.00    +0.009 A 
ATOM     16  C   UNL     1      -2.772  -2.397   0.016  0.00  0.00    +0.046 A 
BRANCH  11  17
ATOM     17  O   UNL     1      -1.339  -0.499   0.012  0.00  0.00    -0.492 OA
BRANCH  17  19
ATOM     18  C   UNL     1      -0.019   1.526   0.010  0.00  0.00    +0.048 C 
ATOM     19  C   UNL     1       0.002  -0.004   0.002  0.00  0.00    +0.225 C 
ENDBRANCH  17  19
ENDBRANCH  11  17
ENDBRANCH  10  14
ENDBRANCH   1  10
BRANCH   9  20
ATOM     20  S   UNL     1      -4.811  -6.341   1.619  0.00  0.00    -0.054 S 
BRANCH  20  21
ATOM     21  C   UNL     1      -5.833  -6.739   3.064  0.00  0.00    +0.214 C 
ATOM     22  C   UNL     1      -7.313  -6.687   2.673  0.00  0.00    +0.185 C 
ATOM     23  C   UNL     1      -8.170  -6.965   3.911  0.00  0.00    +0.177 C 
ATOM     24  C   UNL     1      -7.820  -5.946   5.000  0.00  0.00    +0.176 C 
ATOM     25  C   UNL     1      -6.321  -6.026   5.301  0.00  0.00    +0.176 C 
ATOM     26  O   UNL     1      -5.582  -5.789   4.101  0.00  0.00    -0.355 OA
BRANCH  24  27
ATOM     27  O   UNL     1      -8.147  -4.630   4.546  0.00  0.00    -0.386 OA
ATOM     28  H   UNL     1      -9.082  -4.509   4.333  0.00  0.00    +0.210 HD
ENDBRANCH  24  27
BRANCH  23  29
ATOM     29  O   UNL     1      -9.553  -6.848   3.571  0.00  0.00    -0.386 OA
ATOM     30  H   UNL     1      -9.842  -7.461   2.882  0.00  0.00    +0.210 HD
ENDBRANCH  23  29
BRANCH  22  31
ATOM     31  O   UNL     1      -7.624  -5.392   2.155  0.00  0.00    -0.386 OA
ATOM     32  H   UNL     1      -7.114  -5.148   1.371  0.00  0.00    +0.210 HD
ENDBRANCH  22  31
BRANCH  25  33
ATOM     33  C   UNL     1      -5.953  -4.970   6.345  0.00  0.00    +0.190 C 
BRANCH  33  34
ATOM     34  O   UNL     1      -4.580  -5.121   6.712  0.00  0.00    -0.392 OA
ATOM     35  H   UNL     1      -4.277  -4.483   7.372  0.00  0.00    +0.210 HD
ENDBRANCH  33  34
ENDBRANCH  25  33
ENDBRANCH  20  21
ENDBRANCH   9  20
TORSDOF 11
