REMARK  Name = ZINC41006207
REMARK  12 active torsions:
REMARK  status: ('A' for Active; 'I' for Inactive)
REMARK    1  A    between atoms: C_1  and  C_2
REMARK    2  A    between atoms: C_2  and  O_41
REMARK    3  A    between atoms: C_6  and  C_30
REMARK    4  A    between atoms: C_8  and  C_23
REMARK    5  A    between atoms: C_10  and  C_12
REMARK    6  A    between atoms: N_14  and  C_15
REMARK    7  A    between atoms: C_20  and  O_21
REMARK    8  A    between atoms: O_21  and  C_22
REMARK    9  A    between atoms: C_27  and  O_29
REMARK   10  A    between atoms: N_32  and  C_33
REMARK   11  A    between atoms: C_38  and  O_39
REMARK   12  A    between atoms: O_39  and  C_40
REMARK                            x       y       z     vdW  Elec       q    Type
REMARK                         _______ _______ _______ _____ _____    ______ ____
ROOT
ATOM      1  C   UNL     1       0.967   1.733   0.654  0.00  0.00    +0.042 C 
ATOM      2  C   UNL     1       1.264   0.259   0.370  0.00  0.00    +0.082 C 
ATOM      3  C   UNL     1       2.136   0.146  -0.884  0.00  0.00    +0.110 C 
ATOM      4  C   UNL     1       3.479   0.779  -0.595  0.00  0.00    +0.148 C 
ATOM      5  O   UNL     1       3.944   1.611  -1.337  0.00  0.00    -0.296 OA
ATOM      6  C   UNL     1       4.224   0.344   0.647  0.00  0.00    +0.149 C 
ATOM      7  C   UNL     1       3.276   0.450   1.846  0.00  0.00    +0.053 C 
ATOM      8  C   UNL     1       2.005  -0.350   1.561  0.00  0.00    +0.115 C 
ENDROOT
BRANCH   7   9
ATOM      9  C   UNL     1       3.954  -0.102   3.074  0.00  0.00    -0.039 A 
ATOM     10  C   UNL     1       4.168  -1.463   3.191  0.00  0.00    +0.004 A 
ATOM     11  C   UNL     1       4.789  -1.973   4.316  0.00  0.00    +0.004 A 
ATOM     12  C   UNL     1       5.198  -1.124   5.326  0.00  0.00    +0.045 A 
ATOM     13  C   UNL     1       4.985   0.242   5.210  0.00  0.00    +0.117 A 
ATOM     14  C   UNL     1       4.367   0.752   4.078  0.00  0.00    +0.049 A 
BRANCH  13  15
ATOM     15  O   UNL     1       5.387   1.080   6.202  0.00  0.00    -0.507 OA
ATOM     16  H   UNL     1       6.289   1.412   6.096  0.00  0.00    +0.292 HD
ENDBRANCH  13  15
ENDBRANCH   7   9
BRANCH   8  17
ATOM     17  C   UNL     1       2.372  -1.778   1.246  0.00  0.00    +0.224 C 
ATOM     18  O   UNL     1       2.779  -2.069   0.141  0.00  0.00    -0.275 OA
ATOM     19  N   UNL     1       2.247  -2.730   2.191  0.00  0.00    -0.282 N 
ATOM     20  H   UNL     1       1.992  -2.487   3.094  0.00  0.00    +0.155 HD
BRANCH  19  21
ATOM     21  C   UNL     1       2.486  -4.073   1.868  0.00  0.00    +0.076 A 
ATOM     22  C   UNL     1       2.499  -4.477   0.541  0.00  0.00    +0.027 A 
ATOM     23  C   UNL     1       2.735  -5.802   0.225  0.00  0.00    +0.002 A 
ATOM     24  C   UNL     1       2.958  -6.726   1.228  0.00  0.00    +0.004 A 
ATOM     25  C   UNL     1       2.946  -6.331   2.553  0.00  0.00    +0.047 A 
ATOM     26  C   UNL     1       2.716  -5.004   2.878  0.00  0.00    +0.141 A 
BRANCH  26  27
ATOM     27  O   UNL     1       2.710  -4.612   4.180  0.00  0.00    -0.493 OA
ATOM     28  C   UNL     1       2.954  -5.621   5.162  0.00  0.00    +0.277 C 
ENDBRANCH  26  27
ENDBRANCH  19  21
ENDBRANCH   8  17
BRANCH   6  29
ATOM     29  C   UNL     1       4.686  -1.081   0.487  0.00  0.00    +0.228 C 
ATOM     30  O   UNL     1       5.226  -1.652   1.412  0.00  0.00    -0.275 OA
ATOM     31  N   UNL     1       4.501  -1.723  -0.683  0.00  0.00    -0.282 N 
ATOM     32  H   UNL     1       4.117  -1.251  -1.439  0.00  0.00    +0.155 HD
BRANCH  31  33
ATOM     33  C   UNL     1       4.862  -3.071  -0.809  0.00  0.00    +0.076 A 
ATOM     34  C   UNL     1       5.186  -3.812   0.318  0.00  0.00    +0.027 A 
ATOM     35  C   UNL     1       5.542  -5.141   0.192  0.00  0.00    +0.002 A 
ATOM     36  C   UNL     1       5.575  -5.736  -1.056  0.00  0.00    +0.004 A 
ATOM     37  C   UNL     1       5.253  -5.004  -2.183  0.00  0.00    +0.047 A 
ATOM     38  C   UNL     1       4.890  -3.672  -2.065  0.00  0.00    +0.141 A 
BRANCH  38  39
ATOM     39  O   UNL     1       4.567  -2.953  -3.172  0.00  0.00    -0.493 OA
ATOM     40  C   UNL     1       4.619  -3.635  -4.427  0.00  0.00    +0.277 C 
ENDBRANCH  38  39
ENDBRANCH  31  33
ENDBRANCH   6  29
BRANCH   2  41
ATOM     41  O   UNL     1       0.036  -0.442   0.163  0.00  0.00    -0.388 OA
ATOM     42  H   UNL     1      -0.487  -0.108  -0.579  0.00  0.00    +0.210 HD
ENDBRANCH   2  41
TORSDOF 9
