REMARK  Name = ZINC12875361
REMARK  5 active torsions:
REMARK  status: ('A' for Active; 'I' for Inactive)
REMARK    1  A    between atoms: C_1  and  S_2
REMARK    2  A    between atoms: S_2  and  C_3
REMARK    3  A    between atoms: C_3  and  C_4
REMARK    4  A    between atoms: C_4  and  C_5
REMARK    5  A    between atoms: N_13  and  C_16
REMARK                            x       y       z     vdW  Elec       q    Type
REMARK                         _______ _______ _______ _____ _____    ______ ____
ROOT
ATOM      1  C   UNL     1      -0.651  -0.402  -1.338  0.00  0.00    -0.057 C 
ATOM      2  C   UNL     1       0.002  -0.004   0.002  0.00  0.00    +0.073 C 
ATOM      3  C   UNL     1      -0.019   1.550   0.011  0.00  0.00    +0.088 C 
ATOM      4  C   UNL     1       1.448   1.917  -0.002  0.00  0.00    +0.225 C 
ATOM      5  O   UNL     1       1.887   3.047   0.008  0.00  0.00    -0.275 OA
ATOM      6  N   UNL     1       2.186   0.801  -0.024  0.00  0.00    -0.239 N 
ATOM      7  C   UNL     1       1.477  -0.333  -0.027  0.00  0.00    +0.224 C 
ATOM      8  O   UNL     1       1.945  -1.451  -0.050  0.00  0.00    -0.275 OA
ATOM      9  C   UNL     1      -0.656   1.934  -1.331  0.00  0.00    +0.050 C 
ATOM     10  C   UNL     1      -2.118   2.247  -1.177  0.00  0.00    -0.028 A 
ATOM     11  C   UNL     1      -3.199   1.525  -0.724  0.00  0.00    +0.004 A 
ATOM     12  C   UNL     1      -4.456   2.103  -0.700  0.00  0.00    +0.000 A 
ATOM     13  C   UNL     1      -4.623   3.406  -1.132  0.00  0.00    +0.002 A 
ATOM     14  C   UNL     1      -3.542   4.133  -1.586  0.00  0.00    +0.023 A 
ATOM     15  C   UNL     1      -2.273   3.559  -1.615  0.00  0.00    +0.036 A 
ATOM     16  N   UNL     1      -1.044   4.080  -2.026  0.00  0.00    -0.286 N 
ATOM     17  C   UNL     1      -0.044   3.188  -1.891  0.00  0.00    +0.211 C 
ATOM     18  O   UNL     1       1.124   3.362  -2.169  0.00  0.00    -0.277 OA
ATOM     19  H   UNL     1      -0.925   4.980  -2.367  0.00  0.00    +0.155 HD
ATOM     20  N   UNL     1      -0.473   0.780  -2.186  0.00  0.00    +0.394 N 
ATOM     21  H   UNL     1      -1.170   0.784  -2.940  0.00  0.00    -0.083 HD
ATOM     22  H   UNL     1       0.470   0.787  -2.592  0.00  0.00    -0.083 HD
ENDROOT
BRANCH   6  23
ATOM     23  C   UNL     1       3.651   0.821  -0.045  0.00  0.00    +0.084 C 
ATOM     24  C   UNL     1       4.140   0.176  -1.359  0.00  0.00    +0.023 C 
ATOM     25  C   UNL     1       5.548   0.638  -1.622  0.00  0.00    +0.002 C 
ATOM     26  C   UNL     1       6.602  -0.346  -1.081  0.00  0.00    +0.000 C 
ATOM     27  C   UNL     1       6.242  -0.902   0.310  0.00  0.00    +0.000 C 
ATOM     28  C   UNL     1       5.687   0.155   1.226  0.00  0.00    +0.002 C 
ATOM     29  C   UNL     1       4.148   0.125   1.133  0.00  0.00    +0.023 C 
ENDBRANCH   6  23
BRANCH   1  30
ATOM     30  C   UNL     1       0.052  -1.625  -1.931  0.00  0.00    -0.004 C 
BRANCH  30  31
ATOM     31  C   UNL     1      -0.686  -2.078  -3.192  0.00  0.00    +0.067 C 
BRANCH  31  33
ATOM     32  C   UNL     1      -0.838  -3.933  -5.361  0.00  0.00    +0.084 C 
ATOM     33  S   UNL     1       0.147  -3.528  -3.893  0.00  0.00    -0.164 S 
ENDBRANCH  31  33
ENDBRANCH  30  31
ENDBRANCH   1  30
TORSDOF 4
