REMARK  Name = ZINC08951342
REMARK  15 active torsions:
REMARK  status: ('A' for Active; 'I' for Inactive)
REMARK    1  A    between atoms: C_1  and  C_2
REMARK    2  A    between atoms: C_2  and  C_3
REMARK    3  A    between atoms: C_2  and  C_4
REMARK    4  A    between atoms: C_2  and  O_5
REMARK    5  A    between atoms: O_5  and  C_6
REMARK    6  A    between atoms: C_15  and  C_27
REMARK    7  A    between atoms: C_17  and  C_23
REMARK    8  A    between atoms: C_17  and  C_25
REMARK    9  A    between atoms: C_18  and  N_22
REMARK   10  A    between atoms: C_19  and  C_20
REMARK   11  A    between atoms: C_30  and  O_35
REMARK   12  A    between atoms: C_31  and  O_33
REMARK   13  A    between atoms: O_33  and  C_34
REMARK   14  A    between atoms: O_35  and  C_36
REMARK   15  A    between atoms: C_36  and  C_37
REMARK                            x       y       z     vdW  Elec       q    Type
REMARK                         _______ _______ _______ _____ _____    ______ ____
ROOT
ATOM      1  C   UNL     1       2.673   0.009   3.071  0.00  0.00    +0.404 C 
ATOM      2  O   UNL     1       3.407   0.863   3.526  0.00  0.00    -0.226 OA
ATOM      3  N   UNL     1       2.216   0.116   1.808  0.00  0.00    -0.263 N 
ATOM      4  C   UNL     1       1.324  -0.902   1.225  0.00  0.00    +0.138 C 
ATOM      5  C   UNL     1       0.085  -0.188   0.749  0.00  0.00    -0.003 C 
ATOM      6  C   UNL     1       0.119   1.082   0.395  0.00  0.00    -0.026 C 
ATOM      7  C   UNL     1       1.359   1.925   0.381  0.00  0.00    +0.048 C 
ATOM      8  C   UNL     1       2.585   1.251   0.955  0.00  0.00    +0.120 C 
ATOM      9  C   UNL     1       1.052   3.247   1.086  0.00  0.00    +0.068 C 
ATOM     10  C   UNL     1      -0.022   3.993   0.293  0.00  0.00    +0.188 C 
ATOM     11  C   UNL     1      -1.201   3.115  -0.001  0.00  0.00    +0.054 C 
ATOM     12  C   UNL     1      -1.154   1.760   0.030  0.00  0.00    +0.074 C 
ENDROOT
BRANCH   9  13
ATOM     13  C   UNL     1       2.303   4.085   1.153  0.00  0.00    -0.037 A 
ATOM     14  C   UNL     1       2.628   4.745   2.324  0.00  0.00    +0.008 A 
ATOM     15  C   UNL     1       3.777   5.511   2.393  0.00  0.00    +0.050 A 
ATOM     16  C   UNL     1       4.600   5.627   1.284  0.00  0.00    +0.163 A 
ATOM     17  C   UNL     1       4.269   4.967   0.104  0.00  0.00    +0.162 A 
ATOM     18  C   UNL     1       3.119   4.197   0.043  0.00  0.00    +0.053 A 
BRANCH  17  19
ATOM     19  O   UNL     1       5.073   5.078  -0.987  0.00  0.00    -0.491 OA
ATOM     20  C   UNL     1       4.672   4.374  -2.164  0.00  0.00    +0.277 C 
ENDBRANCH  17  19
BRANCH  16  21
ATOM     21  O   UNL     1       5.728   6.384   1.348  0.00  0.00    -0.479 OA
BRANCH  21  22
ATOM     22  C   UNL     1       6.003   7.033   2.591  0.00  0.00    +0.324 C 
BRANCH  22  23
ATOM     23  C   UNL     1       7.283   7.820   2.474  0.00  0.00    +0.248 C 
ATOM     24  O   UNL     1       7.899   7.825   1.429  0.00  0.00    -0.272 OA
ATOM     25  N   UNL     1       7.744   8.518   3.531  0.00  0.00    -0.327 N 
ATOM     26  H   UNL     1       8.678   9.093   3.445  0.00  0.00    +0.145 HD
ATOM     27  H   UNL     1       7.186   8.514   4.479  0.00  0.00    +0.145 HD
ENDBRANCH  22  23
ENDBRANCH  21  22
ENDBRANCH  16  21
ENDBRANCH   9  13
BRANCH  11  28
ATOM     28  N   UNL     1      -2.388   3.714  -0.316  0.00  0.00    -0.358 N 
ATOM     29  H   UNL     1      -3.273   3.098  -0.537  0.00  0.00    +0.142 HD
ATOM     30  H   UNL     1      -2.459   4.811  -0.350  0.00  0.00    +0.142 HD
ENDBRANCH  11  28
BRANCH  12  31
ATOM     31  C   UNL     1      -2.319   0.989  -0.284  0.00  0.00    +0.101 C 
ATOM     32  N   UNL     1      -3.244   0.378  -0.534  0.00  0.00    -0.191 NA
ENDBRANCH  12  31
BRANCH  10  33
ATOM     33  C   UNL     1      -0.472   5.158   1.072  0.00  0.00    +0.091 C 
ATOM     34  N   UNL     1      -0.819   6.057   1.673  0.00  0.00    -0.194 NA
ENDBRANCH  10  33
BRANCH  10  35
ATOM     35  C   UNL     1       0.556   4.459  -0.978  0.00  0.00    +0.091 C 
ATOM     36  N   UNL     1       1.003   4.819  -1.959  0.00  0.00    -0.194 NA
ENDBRANCH  10  35
BRANCH   1  37
ATOM     37  O   UNL     1       2.317  -1.046   3.829  0.00  0.00    -0.445 OA
BRANCH  37  39
ATOM     38  C   UNL     1       2.388   0.141   5.954  0.00  0.00    +0.055 C 
ATOM     39  C   UNL     1       2.847  -1.096   5.180  0.00  0.00    +0.107 C 
ATOM     40  C   UNL     1       2.336  -2.356   5.881  0.00  0.00    +0.055 C 
ATOM     41  C   UNL     1       4.376  -1.126   5.127  0.00  0.00    +0.055 C 
ENDBRANCH  37  39
ENDBRANCH   1  37
TORSDOF 11
