REMARK  Name = ZINC16157436
REMARK  4 active torsions:
REMARK  status: ('A' for Active; 'I' for Inactive)
REMARK    1  A    between atoms: C_11  and  S_19
REMARK    2  A    between atoms: C_12  and  O_18
REMARK    3  A    between atoms: C_13  and  O_17
REMARK    4  A    between atoms: S_19  and  O_21
REMARK                            x       y       z     vdW  Elec       q    Type
REMARK                         _______ _______ _______ _____ _____    ______ ____
ROOT
ATOM      1  C   UNL     1      -0.013   1.076   0.008  0.00  0.00    +0.001 A 
ATOM      2  C   UNL     1       1.178   1.779   0.000  0.00  0.00    +0.001 A 
ATOM      3  C   UNL     1       1.175   3.163   0.008  0.00  0.00    +0.012 A 
ATOM      4  C   UNL     1      -0.033   3.854   0.023  0.00  0.00    +0.033 A 
ATOM      5  C   UNL     1      -1.244   3.139   0.031  0.00  0.00    +0.033 A 
ATOM      6  C   UNL     1      -1.222   1.747   0.017  0.00  0.00    +0.012 A 
ATOM      7  C   UNL     1      -2.532   3.864   0.046  0.00  0.00    +0.195 C 
ATOM      8  O   UNL     1      -3.578   3.245   0.054  0.00  0.00    -0.287 OA
ATOM      9  C   UNL     1      -2.546   5.338   0.054  0.00  0.00    +0.039 A 
ATOM     10  C   UNL     1      -3.756   6.027   0.068  0.00  0.00    +0.044 A 
ATOM     11  C   UNL     1      -3.767   7.410   0.074  0.00  0.00    +0.142 A 
ATOM     12  C   UNL     1      -2.580   8.124   0.067  0.00  0.00    +0.185 A 
ATOM     13  C   UNL     1      -1.353   7.450   0.053  0.00  0.00    +0.172 A 
ATOM     14  C   UNL     1      -1.331   6.055   0.046  0.00  0.00    +0.078 A 
ATOM     15  C   UNL     1      -0.047   5.332   0.030  0.00  0.00    +0.198 C 
ATOM     16  O   UNL     1       1.000   5.950   0.024  0.00  0.00    -0.286 OA
ENDROOT
BRANCH  13  17
ATOM     17  O   UNL     1      -0.192   8.150   0.046  0.00  0.00    -0.503 OA
ATOM     18  H   UNL     1       0.771   7.617   0.035  0.00  0.00    +0.292 HD
ENDBRANCH  13  17
BRANCH  12  19
ATOM     19  O   UNL     1      -2.606   9.481   0.074  0.00  0.00    -0.502 OA
ATOM     20  H   UNL     1      -1.665  10.049   0.069  0.00  0.00    +0.292 HD
ENDBRANCH  12  19
BRANCH  11  21
ATOM     21  S   UNL     1      -5.304   8.272   0.092  0.00  0.00    +0.031 S 
ATOM     22  O   UNL     1      -4.970   9.582  -0.346  0.00  0.00    -0.161 OA
BRANCH  21  23
ATOM     23  O   UNL     1      -5.612   8.445   1.572  0.00  0.00    -0.265 OA
ATOM     24  H   UNL     1      -6.532   8.960   1.886  0.00  0.00    +0.243 HD
ENDBRANCH  21  23
ENDBRANCH  11  21
TORSDOF 4
