REMARK  Name = ZINC02709634
REMARK  8 active torsions:
REMARK  status: ('A' for Active; 'I' for Inactive)
REMARK    1  A    between atoms: C_1  and  C_2
REMARK    2  A    between atoms: C_7  and  N_8
REMARK    3  A    between atoms: N_8  and  S_9
REMARK    4  A    between atoms: S_9  and  C_12
REMARK    5  A    between atoms: C_15  and  O_20
REMARK    6  A    between atoms: C_16  and  C_19
REMARK    7  A    between atoms: C_17  and  C_18
REMARK    8  A    between atoms: O_20  and  C_21
REMARK                            x       y       z     vdW  Elec       q    Type
REMARK                         _______ _______ _______ _____ _____    ______ ____
ROOT
ATOM      1  S   UNL     1       3.834   2.941   0.065  0.00  0.00    +0.074 S 
ATOM      2  O   UNL     1       2.557   3.535   0.249  0.00  0.00    -0.150 OA
ATOM      3  O   UNL     1       5.040   3.691   0.133  0.00  0.00    -0.150 OA
ENDROOT
BRANCH   1   4
ATOM      4  C   UNL     1       3.808   2.172  -1.520  0.00  0.00    +0.112 A 
ATOM      5  C   UNL     1       4.841   2.395  -2.412  0.00  0.00    +0.032 A 
ATOM      6  C   UNL     1       4.823   1.793  -3.655  0.00  0.00    +0.048 A 
ATOM      7  C   UNL     1       3.768   0.965  -4.009  0.00  0.00    +0.123 A 
ATOM      8  C   UNL     1       2.733   0.743  -3.112  0.00  0.00    -0.004 A 
ATOM      9  C   UNL     1       2.759   1.343  -1.868  0.00  0.00    -0.017 A 
ATOM     10  C   UNL     1       1.638   1.097  -0.890  0.00  0.00    +0.046 C 
ATOM     11  C   UNL     1       1.585  -0.156  -3.492  0.00  0.00    +0.048 C 
BRANCH   7  12
ATOM     12  O   UNL     1       3.748   0.372  -5.231  0.00  0.00    -0.495 OA
ATOM     13  C   UNL     1       4.847   0.645  -6.103  0.00  0.00    +0.277 C 
ENDBRANCH   7  12
ENDBRANCH   1   4
BRANCH   1  14
ATOM     14  N   UNL     1       3.962   1.735   1.192  0.00  0.00    -0.199 N 
ATOM     15  H   UNL     1       3.241   1.581   1.823  0.00  0.00    +0.175 HD
BRANCH  14  22
ATOM     16  C   UNL     1       4.212  -0.120   3.335  0.00  0.00    +0.047 C 
ATOM     17  C   UNL     1       5.265   0.022   2.267  0.00  0.00    -0.009 A 
ATOM     18  C   UNL     1       6.406  -0.760   2.297  0.00  0.00    +0.008 A 
ATOM     19  C   UNL     1       7.347  -0.598   1.290  0.00  0.00    +0.020 A 
ATOM     20  C   UNL     1       7.125   0.338   0.300  0.00  0.00    +0.113 A 
ATOM     21  N   UNL     1       6.027   1.070   0.295  0.00  0.00    -0.239 NA
ATOM     22  C   UNL     1       5.104   0.942   1.236  0.00  0.00    +0.141 A 
ENDBRANCH  14  22
ENDBRANCH   1  14
TORSDOF 4
