REMARK  Name = ZINC37769933
REMARK  10 active torsions:
REMARK  status: ('A' for Active; 'I' for Inactive)
REMARK    1  A    between atoms: C_1  and  C_2
REMARK    2  A    between atoms: C_2  and  C_3
REMARK    3  A    between atoms: C_3  and  C_4
REMARK    4  A    between atoms: C_4  and  C_5
REMARK    5  A    between atoms: C_5  and  C_7
REMARK    6  A    between atoms: C_5  and  N_22
REMARK    7  A    between atoms: N_9  and  C_10
REMARK    8  A    between atoms: C_11  and  C_18
REMARK    9  A    between atoms: C_18  and  O_20
REMARK   10  A    between atoms: O_20  and  C_21
REMARK                            x       y       z     vdW  Elec       q    Type
REMARK                         _______ _______ _______ _____ _____    ______ ____
ROOT
ATOM      1  C   UNL     1      -3.035  -3.954  -0.607  0.00  0.00    +0.203 C 
ATOM      2  O   UNL     1      -3.936  -4.520  -0.024  0.00  0.00    -0.277 OA
ATOM      3  N   UNL     1      -2.192  -4.657  -1.388  0.00  0.00    -0.285 N 
ATOM      4  H   UNL     1      -1.503  -4.199  -1.895  0.00  0.00    +0.155 HD
ENDROOT
BRANCH   3   5
ATOM      5  C   UNL     1      -2.308  -6.043  -1.468  0.00  0.00    +0.062 A 
ATOM      6  C   UNL     1      -2.579  -6.659  -2.700  0.00  0.00    +0.082 A 
ATOM      7  C   UNL     1      -2.693  -8.050  -2.766  0.00  0.00    +0.032 A 
ATOM      8  C   UNL     1      -2.540  -8.808  -1.625  0.00  0.00    +0.020 A 
ATOM      9  C   UNL     1      -2.273  -8.197  -0.409  0.00  0.00    +0.032 A 
ATOM     10  C   UNL     1      -2.151  -6.823  -0.329  0.00  0.00    +0.041 A 
ATOM     11 BR   UNL     1      -1.778  -6.004   1.333  0.00  0.00    -0.048 Br
ATOM     12 BR   UNL     1      -2.696 -10.690  -1.718  0.00  0.00    -0.050 Br
BRANCH   6  13
ATOM     13  C   UNL     1      -2.742  -5.842  -3.916  0.00  0.00    +0.341 C 
ATOM     14  O   UNL     1      -2.757  -4.630  -3.836  0.00  0.00    -0.245 OA
BRANCH  13  15
ATOM     15  O   UNL     1      -2.874  -6.440  -5.116  0.00  0.00    -0.464 OA
ATOM     16  C   UNL     1      -3.029  -5.588  -6.252  0.00  0.00    +0.280 C 
ENDBRANCH  13  15
ENDBRANCH   6  13
ENDBRANCH   3   5
BRANCH   1  17
ATOM     17  C   UNL     1      -2.859  -2.465  -0.457  0.00  0.00    +0.013 C 
BRANCH  17  18
ATOM     18  N   UNL     1      -4.115  -1.868   0.016  0.00  0.00    +0.386 N 
ATOM     19  H   UNL     1      -3.997  -0.871   0.116  0.00  0.00    -0.089 HD
ATOM     20  H   UNL     1      -4.848  -2.055  -0.651  0.00  0.00    -0.089 HD
ATOM     21  H   UNL     1      -4.362  -2.269   0.909  0.00  0.00    -0.089 HD
ENDBRANCH  17  18
BRANCH  17  22
ATOM     22  C   UNL     1      -1.746  -2.182   0.554  0.00  0.00    -0.007 C 
BRANCH  22  23
ATOM     23  C   UNL     1      -1.482  -0.676   0.614  0.00  0.00    -0.001 C 
BRANCH  23  25
ATOM     24  C   UNL     1      -0.105   1.113   1.685  0.00  0.00    +0.004 C 
ATOM     25  C   UNL     1      -0.369  -0.393   1.625  0.00  0.00    -0.003 C 
ENDBRANCH  23  25
ENDBRANCH  22  23
ENDBRANCH  17  22
ENDBRANCH   1  17
TORSDOF 8
