REMARK  Name = ZINC12158207
REMARK  8 active torsions:
REMARK  status: ('A' for Active; 'I' for Inactive)
REMARK    1  A    between atoms: C_1  and  O_2
REMARK    2  A    between atoms: O_2  and  C_3
REMARK    3  A    between atoms: C_3  and  C_5
REMARK    4  A    between atoms: C_8  and  N_17
REMARK    5  A    between atoms: C_11  and  C_12
REMARK    6  A    between atoms: C_11  and  N_51
REMARK    7  A    between atoms: C_18  and  C_20
REMARK    8  A    between atoms: C_25  and  N_26
REMARK                            x       y       z     vdW  Elec       q    Type
REMARK                         _______ _______ _______ _____ _____    ______ ____
ROOT
ATOM      1  C   UNL     1       5.929   5.879  -1.122  0.00  0.00    +0.045 C 
ATOM      2  C   UNL     1       5.467   5.062   0.103  0.00  0.00    +0.016 C 
ATOM      3  C   UNL     1       5.420   3.599  -0.384  0.00  0.00    +0.056 C 
ATOM      4  C   UNL     1       5.859   3.655  -1.863  0.00  0.00    -0.055 C 
ATOM      5  N   UNL     1       6.636   4.898  -1.942  0.00  0.00    +0.393 N 
ATOM      6  H   UNL     1       7.581   4.746  -1.571  0.00  0.00    -0.080 HD
ENDROOT
BRANCH   3   7
ATOM      7  N   UNL     1       4.059   3.070  -0.277  0.00  0.00    -0.310 N 
ATOM      8  C   UNL     1       3.856   1.739  -0.214  0.00  0.00    +0.246 C 
ATOM      9  O   UNL     1       4.803   0.977  -0.246  0.00  0.00    -0.270 OA
ATOM     10  H   UNL     1       3.303   3.677  -0.252  0.00  0.00    +0.149 HD
BRANCH   8  11
ATOM     11  C   UNL     1       2.484   1.206  -0.107  0.00  0.00    +0.062 A 
ATOM     12  C   UNL     1       1.512   1.573  -1.040  0.00  0.00    +0.015 A 
ATOM     13  C   UNL     1       0.233   1.071  -0.934  0.00  0.00    +0.001 A 
ATOM     14  C   UNL     1      -0.095   0.203   0.094  0.00  0.00    +0.002 A 
ATOM     15  C   UNL     1       0.856  -0.170   1.023  0.00  0.00    +0.028 A 
ATOM     16  C   UNL     1       2.149   0.326   0.932  0.00  0.00    +0.077 A 
BRANCH  16  17
ATOM     17  N   UNL     1       3.112  -0.050   1.872  0.00  0.00    -0.239 N 
ATOM     18  C   UNL     1       2.955  -0.977   2.852  0.00  0.00    +0.114 A 
ATOM     19  C   UNL     1       4.118  -1.046   3.540  0.00  0.00    +0.041 A 
ATOM     20  C   UNL     1       5.011  -0.129   2.973  0.00  0.00    +0.135 A 
ATOM     21  N   UNL     1       4.410   0.467   1.975  0.00  0.00    -0.175 NA
ENDBRANCH  16  17
ENDBRANCH   8  11
ENDBRANCH   3   7
BRANCH   1  22
ATOM     22  C   UNL     1       6.848   6.994  -0.694  0.00  0.00    +0.293 C 
ATOM     23  O   UNL     1       8.003   6.995  -1.048  0.00  0.00    -0.253 OA
BRANCH  22  25
ATOM     24  C   UNL     1       7.324   9.027   0.455  0.00  0.00    +0.280 C 
ATOM     25  O   UNL     1       6.383   7.987   0.081  0.00  0.00    -0.469 OA
ENDBRANCH  22  25
ENDBRANCH   1  22
BRANCH   5  26
ATOM     26  C   UNL     1       6.735   5.363  -3.361  0.00  0.00    -0.041 C 
BRANCH  26  27
ATOM     27  C   UNL     1       7.592   4.415  -4.160  0.00  0.00    -0.057 A 
ATOM     28  C   UNL     1       7.027   3.327  -4.798  0.00  0.00    +0.009 A 
ATOM     29  C   UNL     1       7.826   2.494  -5.508  0.00  0.00    +0.045 A 
ATOM     30  S   UNL     1       9.431   3.244  -5.288  0.00  0.00    -0.105 S 
ATOM     31  C   UNL     1       8.928   4.620  -4.268  0.00  0.00    +0.047 A 
ENDBRANCH  26  27
ENDBRANCH   5  26
TORSDOF 7
