REMARK  Name = ZINC02655820
REMARK  9 active torsions:
REMARK  status: ('A' for Active; 'I' for Inactive)
REMARK    1  A    between atoms: C_1  and  C_2
REMARK    2  A    between atoms: C_4  and  O_9
REMARK    3  A    between atoms: O_9  and  C_10
REMARK    4  A    between atoms: C_10  and  C_11
REMARK    5  A    between atoms: C_14  and  S_17
REMARK    6  A    between atoms: S_17  and  C_18
REMARK    7  A    between atoms: C_18  and  C_19
REMARK    8  A    between atoms: C_31  and  C_32
REMARK    9  A    between atoms: C_31  and  C_33
REMARK                            x       y       z     vdW  Elec       q    Type
REMARK                         _______ _______ _______ _____ _____    ______ ____
ROOT
ATOM      1  S   UNL     1       2.092  -6.942  -6.331  0.00  0.00    -0.077 S 
ENDROOT
BRANCH   1   5
ATOM      2  C   UNL     1       0.291  -5.600  -3.170  0.00  0.00    +0.189 A 
ATOM      3  N   UNL     1       1.326  -5.686  -4.006  0.00  0.00    -0.202 NA
ATOM      4  H   UNL     1      -0.705  -7.601  -5.341  0.00  0.00    +0.191 HD
ATOM      5  C   UNL     1       1.035  -6.513  -4.988  0.00  0.00    +0.185 A 
ATOM      6  N   UNL     1      -0.218  -6.975  -4.783  0.00  0.00    -0.253 N 
ATOM      7  N   UNL     1      -0.671  -6.372  -3.599  0.00  0.00    -0.153 NA
BRANCH   2   8
ATOM      8  C   UNL     1       0.242  -4.753  -1.925  0.00  0.00    +0.306 C 
BRANCH   8   9
ATOM      9  O   UNL     1      -0.269  -3.458  -2.250  0.00  0.00    -0.484 OA
BRANCH   9  13
ATOM     10  C   UNL     1      -1.509   1.002  -0.704  0.00  0.00    +0.045 C 
ATOM     11  C   UNL     1      -0.978  -0.383  -0.439  0.00  0.00    -0.029 A 
ATOM     12  C   UNL     1      -0.867  -1.290  -1.476  0.00  0.00    +0.050 A 
ATOM     13  C   UNL     1      -0.379  -2.565  -1.231  0.00  0.00    +0.121 A 
ATOM     14  C   UNL     1      -0.003  -2.927   0.054  0.00  0.00    +0.047 A 
ATOM     15  C   UNL     1      -0.115  -2.018   1.088  0.00  0.00    +0.024 A 
ATOM     16  C   UNL     1      -0.597  -0.744   0.841  0.00  0.00    +0.044 A 
ATOM     17 CL   UNL     1      -0.731   0.399   2.140  0.00  0.00    -0.083 Cl
ENDBRANCH   9  13
ENDBRANCH   8   9
ENDBRANCH   2   8
ENDBRANCH   1   5
BRANCH   1  18
ATOM     18  C   UNL     1       3.606  -5.992  -6.019  0.00  0.00    +0.173 C 
BRANCH  18  19
ATOM     19  C   UNL     1       4.608  -6.271  -7.109  0.00  0.00    +0.231 C 
ATOM     20  O   UNL     1       4.244  -6.766  -8.155  0.00  0.00    -0.274 OA
ATOM     21  N   UNL     1       5.908  -5.971  -6.923  0.00  0.00    -0.255 N 
ATOM     22  C   UNL     1       6.368  -5.476  -5.692  0.00  0.00    +0.059 A 
ATOM     23  C   UNL     1       5.542  -4.732  -4.868  0.00  0.00    +0.025 A 
ATOM     24  C   UNL     1       6.026  -4.255  -3.663  0.00  0.00    +0.002 A 
ATOM     25  C   UNL     1       7.329  -4.519  -3.282  0.00  0.00    +0.002 A 
ATOM     26  C   UNL     1       8.159  -5.263  -4.101  0.00  0.00    +0.025 A 
ATOM     27  C   UNL     1       7.682  -5.747  -5.309  0.00  0.00    +0.055 A 
ATOM     28  N   UNL     1       8.502  -6.512  -6.146  0.00  0.00    -0.282 N 
ATOM     29  C   UNL     1       8.149  -6.749  -7.424  0.00  0.00    +0.241 C 
ATOM     30  O   UNL     1       8.853  -7.451  -8.119  0.00  0.00    -0.273 OA
ATOM     31  C   UNL     1       6.893  -6.157  -7.999  0.00  0.00    +0.113 C 
ATOM     32  C   UNL     1       6.321  -7.102  -9.058  0.00  0.00    +0.042 C 
ATOM     33  C   UNL     1       7.214  -4.804  -8.638  0.00  0.00    +0.042 C 
ATOM     34  H   UNL     1       9.332  -6.876  -5.802  0.00  0.00    +0.155 HD
ENDBRANCH  18  19
ENDBRANCH   1  18
TORSDOF 6
