REMARK  Name = ZINC22915376
REMARK  5 active torsions:
REMARK  status: ('A' for Active; 'I' for Inactive)
REMARK    1  A    between atoms: C_8  and  C_12
REMARK    2  A    between atoms: C_12  and  N_13
REMARK    3  A    between atoms: N_16  and  C_19
REMARK    4  A    between atoms: C_19  and  N_20
REMARK    5  A    between atoms: C_24  and  C_26
REMARK                            x       y       z     vdW  Elec       q    Type
REMARK                         _______ _______ _______ _____ _____    ______ ____
ROOT
ATOM      1  N   UNL     1       1.806  -4.679   1.218  0.00  0.00    -0.300 NA
ATOM      2  C   UNL     1       2.671  -4.348   2.359  0.00  0.00    +0.066 C 
ATOM      3  C   UNL     1       2.006  -4.822   3.653  0.00  0.00    -0.061 C 
ATOM      4  N   UNL     1       1.787  -6.273   3.588  0.00  0.00    +0.394 N 
ATOM      5  C   UNL     1       0.902  -6.586   2.459  0.00  0.00    -0.061 C 
ATOM      6  C   UNL     1       1.557  -6.127   1.154  0.00  0.00    +0.066 C 
ATOM      7  H   UNL     1       2.672  -6.742   3.462  0.00  0.00    -0.079 HD
ENDROOT
BRANCH   1   8
ATOM      8  C   UNL     1       2.384  -4.189  -0.041  0.00  0.00    +0.137 C 
BRANCH   8  16
ATOM      9  C   UNL     1      -0.016   1.359   0.009  0.00  0.00    +0.005 A 
ATOM     10  C   UNL     1       1.194   2.067   0.002  0.00  0.00    +0.018 A 
ATOM     11  C   UNL     1       2.370   1.401  -0.013  0.00  0.00    +0.096 A 
ATOM     12  N   UNL     1       2.400   0.039  -0.021  0.00  0.00    -0.270 N 
ATOM     13  C   UNL     1       1.236  -0.679  -0.013  0.00  0.00    +0.118 A 
ATOM     14  C   UNL     1       0.002  -0.004   0.002  0.00  0.00    +0.045 A 
ATOM     15  N   UNL     1       1.256  -2.011  -0.020  0.00  0.00    -0.343 N 
ATOM     16  C   UNL     1       2.397  -2.682  -0.034  0.00  0.00    +0.037 A 
ATOM     17  C   UNL     1       3.600  -2.003  -0.042  0.00  0.00    +0.093 A 
ATOM     18  C   UNL     1       3.587  -0.603  -0.035  0.00  0.00    +0.258 A 
ATOM     19  O   UNL     1       4.633   0.026  -0.043  0.00  0.00    -0.267 OA
ATOM     20  H   UNL     1       0.418  -2.498  -0.014  0.00  0.00    +0.167 HD
ENDBRANCH   8  16
ENDBRANCH   1   8
BRANCH   4  21
ATOM     21  C   UNL     1       1.166  -6.730   4.838  0.00  0.00    +0.076 C 
BRANCH  21  22
ATOM     22  N   UNL     1       1.056  -8.191   4.823  0.00  0.00    -0.211 N 
ATOM     23  C   UNL     1      -0.068  -8.911   4.621  0.00  0.00    +0.437 A 
ATOM     24  O   UNL     1      -1.182  -8.464   4.417  0.00  0.00    -0.221 OA
ATOM     25  O   UNL     1       0.267 -10.210   4.686  0.00  0.00    -0.387 OA
ATOM     26  C   UNL     1       1.593 -10.309   4.927  0.00  0.00    +0.256 A 
ATOM     27  N   UNL     1       2.099  -9.110   5.009  0.00  0.00    -0.128 NA
BRANCH  26  28
ATOM     28  C   UNL     1       2.345 -11.566   5.068  0.00  0.00    +0.076 A 
ATOM     29  C   UNL     1       1.892 -12.858   4.984  0.00  0.00    +0.021 A 
ATOM     30  C   UNL     1       2.792 -13.886   5.152  0.00  0.00    +0.008 A 
ATOM     31  C   UNL     1       4.096 -13.592   5.395  0.00  0.00    +0.046 A 
ATOM     32  S   UNL     1       4.085 -11.806   5.385  0.00  0.00    -0.092 S 
ENDBRANCH  26  28
ENDBRANCH  21  22
ENDBRANCH   4  21
TORSDOF 5
