REMARK  Name = ZINC06826344
REMARK  4 active torsions:
REMARK  status: ('A' for Active; 'I' for Inactive)
REMARK    1  A    between atoms: C_1  and  C_2
REMARK    2  A    between atoms: C_13  and  C_15
REMARK    3  A    between atoms: C_16  and  C_17
REMARK    4  A    between atoms: C_21  and  N_23
REMARK                            x       y       z     vdW  Elec       q    Type
REMARK                         _______ _______ _______ _____ _____    ______ ____
ROOT
ATOM      1  C   UNL     1      -0.018   1.503   0.010  0.00  0.00    +0.045 C 
ATOM      2  C   UNL     1       0.002  -0.004   0.002  0.00  0.00    -0.031 A 
ATOM      3  C   UNL     1       0.006  -0.696  -1.195  0.00  0.00    +0.022 A 
ATOM      4  C   UNL     1       0.025  -2.068  -1.185  0.00  0.00    +0.041 A 
ATOM      5  C   UNL     1       0.041  -2.823   0.011  0.00  0.00    +0.082 A 
ATOM      6  C   UNL     1       0.036  -2.083   1.216  0.00  0.00    +0.049 A 
ATOM      7  C   UNL     1       0.023  -0.712   1.196  0.00  0.00    +0.046 A 
ATOM      8 CL   UNL     1       0.025   0.159   2.698  0.00  0.00    -0.083 Cl
ATOM      9  N   UNL     1       0.059  -4.164  -0.144  0.00  0.00    -0.225 NA
ATOM     10  C   UNL     1       0.062  -4.738  -1.325  0.00  0.00    +0.166 A 
ATOM     11  S   UNL     1       0.037  -3.334  -2.432  0.00  0.00    -0.052 S 
ATOM     12  N   UNL     1       0.079  -6.087  -1.635  0.00  0.00    -0.261 N 
ATOM     13  C   UNL     1       0.097  -7.004  -0.648  0.00  0.00    +0.243 C 
ATOM     14  O   UNL     1       0.097  -6.647   0.515  0.00  0.00    -0.270 OA
ATOM     15  H   UNL     1       0.079  -6.372  -2.562  0.00  0.00    +0.157 HD
ENDROOT
BRANCH  13  16
ATOM     16  C   UNL     1       0.116  -8.431  -0.975  0.00  0.00    +0.068 C 
ATOM     17  C   UNL     1       0.133  -9.349   0.012  0.00  0.00    +0.013 C 
BRANCH  17  18
ATOM     18  C   UNL     1       0.152 -10.783  -0.317  0.00  0.00    -0.023 A 
ATOM     19  C   UNL     1       0.157 -11.198  -1.653  0.00  0.00    +0.008 A 
ATOM     20  C   UNL     1       0.175 -12.543  -1.953  0.00  0.00    +0.003 A 
ATOM     21  C   UNL     1       0.187 -13.483  -0.937  0.00  0.00    +0.033 A 
ATOM     22  C   UNL     1       0.181 -13.081   0.387  0.00  0.00    +0.127 A 
ATOM     23  C   UNL     1       0.170 -11.739   0.704  0.00  0.00    +0.040 A 
BRANCH  22  24
ATOM     24  N   UNL     1       0.193 -14.094   1.467  0.00  0.00    +0.056 N 
ATOM     25  O   UNL     1       0.207 -15.271   1.191  0.00  0.00    -0.126 OA
ATOM     26  O   UNL     1       0.187 -13.744   2.624  0.00  0.00    -0.126 OA
ENDBRANCH  22  24
ENDBRANCH  17  18
ENDBRANCH  13  16
TORSDOF 3
