REMARK  Name = ZINC03138456
REMARK  7 active torsions:
REMARK  status: ('A' for Active; 'I' for Inactive)
REMARK    1  A    between atoms: C_4  and  O_21
REMARK    2  A    between atoms: C_5  and  C_7
REMARK    3  A    between atoms: C_7  and  C_9
REMARK    4  A    between atoms: C_9  and  C_19
REMARK    5  A    between atoms: N_10  and  N_11
REMARK    6  A    between atoms: N_11  and  C_12
REMARK    7  A    between atoms: O_21  and  C_22
REMARK                            x       y       z     vdW  Elec       q    Type
REMARK                         _______ _______ _______ _____ _____    ______ ____
ROOT
ATOM      1  C   UNL     1       1.250  -2.159  -0.022  0.00  0.00    +0.227 C 
ATOM      2  O   UNL     1       2.310  -2.748  -0.133  0.00  0.00    -0.284 OA
ENDROOT
BRANCH   1   7
ATOM      3  C   UNL     1      -0.015   1.374   0.007  0.00  0.00    +0.001 A 
ATOM      4  C   UNL     1       1.172   2.089   0.021  0.00  0.00    +0.004 A 
ATOM      5  C   UNL     1       2.385   1.429   0.021  0.00  0.00    +0.047 A 
ATOM      6  C   UNL     1       2.422   0.043   0.007  0.00  0.00    +0.141 A 
ATOM      7  C   UNL     1       1.224  -0.684  -0.006  0.00  0.00    +0.066 A 
ATOM      8  C   UNL     1       0.003  -0.003  -0.007  0.00  0.00    +0.015 A 
BRANCH   6   9
ATOM      9  O   UNL     1       3.613  -0.607   0.007  0.00  0.00    -0.405 OA
BRANCH   9  10
ATOM     10  C   UNL     1       4.792   0.200   0.021  0.00  0.00    +0.575 C 
ATOM     11  F   UNL     1       4.799   0.996   1.172  0.00  0.00    -0.133 F 
ATOM     12  F   UNL     1       5.922  -0.625   0.019  0.00  0.00    -0.133 F 
ATOM     13  F   UNL     1       4.811   1.019  -1.113  0.00  0.00    -0.133 F 
ENDBRANCH   9  10
ENDBRANCH   6   9
ENDBRANCH   1   7
BRANCH   1  14
ATOM     14  C   UNL     1      -0.003  -2.919   0.098  0.00  0.00    +0.205 C 
ATOM     15  N   UNL     1      -1.158  -2.285   0.113  0.00  0.00    -0.168 NA
BRANCH  15  16
ATOM     16  N   UNL     1      -2.258  -2.951   0.218  0.00  0.00    -0.235 N 
ATOM     17  H   UNL     1      -2.235  -3.919   0.285  0.00  0.00    +0.174 HD
BRANCH  16  18
ATOM     18  C   UNL     1      -3.481  -2.280   0.234  0.00  0.00    +0.067 A 
ATOM     19  C   UNL     1      -3.517  -0.895   0.132  0.00  0.00    +0.026 A 
ATOM     20  C   UNL     1      -4.730  -0.234   0.148  0.00  0.00    +0.002 A 
ATOM     21  C   UNL     1      -5.908  -0.949   0.266  0.00  0.00    +0.002 A 
ATOM     22  C   UNL     1      -5.877  -2.328   0.368  0.00  0.00    +0.022 A 
ATOM     23  C   UNL     1      -4.668  -2.997   0.347  0.00  0.00    +0.063 A 
ATOM     24 CL   UNL     1      -4.630  -4.728   0.468  0.00  0.00    -0.082 Cl
ENDBRANCH  16  18
ENDBRANCH  15  16
BRANCH  14  25
ATOM     25  C   UNL     1       0.032  -4.347   0.197  0.00  0.00    +0.125 C 
ATOM     26  N   UNL     1       0.059  -5.480   0.276  0.00  0.00    -0.189 NA
ENDBRANCH  14  25
ENDBRANCH   1  14
TORSDOF 7
