REMARK  Name = ZINC56786540
REMARK  8 active torsions:
REMARK  status: ('A' for Active; 'I' for Inactive)
REMARK    1  A    between atoms: C_1  and  N_2
REMARK    2  A    between atoms: N_2  and  C_3
REMARK    3  A    between atoms: N_2  and  C_4
REMARK    4  A    between atoms: C_4  and  C_6
REMARK    5  A    between atoms: C_4  and  C_22
REMARK    6  A    between atoms: C_6  and  N_7
REMARK    7  A    between atoms: N_10  and  C_11
REMARK    8  A    between atoms: C_14  and  C_17
REMARK                            x       y       z     vdW  Elec       q    Type
REMARK                         _______ _______ _______ _____ _____    ______ ____
ROOT
ATOM      1  N   UNL     1      -1.351  -2.739   1.231  0.00  0.00    -0.300 N 
ATOM      2  C   UNL     1      -1.682  -4.028   1.445  0.00  0.00    +0.304 C 
ATOM      3  O   UNL     1      -2.337  -4.632   0.618  0.00  0.00    -0.253 OA
ATOM      4  N   UNL     1      -1.285  -4.646   2.574  0.00  0.00    -0.269 N 
ATOM      5  H   UNL     1      -0.828  -2.256   1.890  0.00  0.00    +0.150 HD
ATOM      6  H   UNL     1      -0.825  -4.145   3.266  0.00  0.00    +0.156 HD
ENDROOT
BRANCH   4   7
ATOM      7  C   UNL     1      -1.537  -6.012   2.750  0.00  0.00    +0.035 A 
ATOM      8  C   UNL     1      -1.501  -6.870   1.657  0.00  0.00    +0.024 A 
ATOM      9  C   UNL     1      -1.749  -8.215   1.828  0.00  0.00    +0.012 A 
ATOM     10  C   UNL     1      -2.036  -8.715   3.097  0.00  0.00    +0.003 A 
ATOM     11  C   UNL     1      -2.071  -7.853   4.191  0.00  0.00    +0.012 A 
ATOM     12  C   UNL     1      -1.817  -6.508   4.017  0.00  0.00    +0.024 A 
BRANCH  10  13
ATOM     13  C   UNL     1      -2.304 -10.163   3.283  0.00  0.00    +0.102 A 
ATOM     14  C   UNL     1      -2.597 -10.710   4.503  0.00  0.00    +0.097 A 
ATOM     15  S   UNL     1      -2.799 -12.332   4.119  0.00  0.00    +0.029 S 
ATOM     16  N   UNL     1      -2.523 -12.268   2.526  0.00  0.00    -0.110 NA
ATOM     17  N   UNL     1      -2.285 -11.027   2.281  0.00  0.00    -0.141 NA
ENDBRANCH  10  13
ENDBRANCH   4   7
BRANCH   1  18
ATOM     18  C   UNL     1      -1.782  -2.066   0.003  0.00  0.00    +0.098 C 
BRANCH  18  19
ATOM     19  C   UNL     1      -1.389  -0.589   0.065  0.00  0.00    +0.016 C 
BRANCH  19  20
ATOM     20  C   UNL     1       0.113  -0.468   0.064  0.00  0.00    +0.093 A 
ATOM     21  C   UNL     1       0.877  -0.165  -1.001  0.00  0.00    +0.043 A 
ATOM     22  C   UNL     1       2.219  -0.159  -0.555  0.00  0.00    +0.041 A 
ATOM     23  C   UNL     1       2.194  -0.460   0.756  0.00  0.00    +0.195 A 
ATOM     24  O   UNL     1       0.916  -0.640   1.127  0.00  0.00    -0.469 OA
ENDBRANCH  19  20
BRANCH  19  26
ATOM     25  C   UNL     1      -1.639   1.450   1.304  0.00  0.00    -0.096 C 
ATOM     26  N   UNL     1      -1.927   0.009   1.295  0.00  0.00    +0.384 N 
ATOM     27  C   UNL     1      -3.380  -0.200   1.346  0.00  0.00    -0.096 C 
ATOM     28  H   UNL     1      -1.496  -0.425   2.097  0.00  0.00    -0.082 HD
ENDBRANCH  19  26
ENDBRANCH  18  19
ENDBRANCH   1  18
TORSDOF 6
