REMARK  Name = ZINC67236770
REMARK  11 active torsions:
REMARK  status: ('A' for Active; 'I' for Inactive)
REMARK    1  A    between atoms: C_1  and  C_2
REMARK    2  A    between atoms: C_2  and  C_3
REMARK    3  A    between atoms: C_2  and  C_4
REMARK    4  A    between atoms: C_4  and  N_5
REMARK    5  A    between atoms: N_8  and  N_9
REMARK    6  A    between atoms: C_10  and  C_12
REMARK    7  A    between atoms: C_19  and  O_21
REMARK    8  A    between atoms: O_21  and  C_22
REMARK    9  A    between atoms: C_22  and  C_23
REMARK   10  A    between atoms: C_22  and  C_24
REMARK   11  A    between atoms: C_22  and  C_25
REMARK                            x       y       z     vdW  Elec       q    Type
REMARK                         _______ _______ _______ _____ _____    ______ ____
ROOT
ATOM      1  N   UNL     1      -1.572  -4.954  -1.151  0.00  0.00    -0.232 N 
ATOM      2  C   UNL     1      -1.332  -6.065  -0.426  0.00  0.00    +0.250 C 
ATOM      3  O   UNL     1      -2.176  -6.484   0.338  0.00  0.00    -0.272 OA
ATOM      4  H   UNL     1      -0.897  -4.618  -1.761  0.00  0.00    +0.173 HD
ENDROOT
BRANCH   2   5
ATOM      5  C   UNL     1      -0.016  -6.785  -0.565  0.00  0.00    +0.167 C 
ATOM      6  C   UNL     1       0.675  -6.860   0.800  0.00  0.00    +0.032 C 
ATOM      7  C   UNL     1       1.941  -7.711   0.681  0.00  0.00    +0.004 C 
ATOM      8  C   UNL     1       1.565  -9.131   0.252  0.00  0.00    +0.019 C 
ATOM      9  C   UNL     1       0.883  -9.082  -1.119  0.00  0.00    +0.112 C 
ATOM     10  N   UNL     1      -0.251  -8.150  -1.054  0.00  0.00    -0.256 N 
ATOM     11  C   UNL     1      -1.484  -8.541  -1.432  0.00  0.00    +0.404 C 
ATOM     12  O   UNL     1      -2.390  -7.733  -1.479  0.00  0.00    -0.226 OA
BRANCH  11  13
ATOM     13  O   UNL     1      -1.712  -9.828  -1.759  0.00  0.00    -0.445 OA
BRANCH  13  14
ATOM     14  C   UNL     1      -3.042 -10.172  -2.151  0.00  0.00    +0.107 C 
ATOM     15  C   UNL     1      -3.437  -9.358  -3.385  0.00  0.00    +0.055 C 
ATOM     16  C   UNL     1      -3.107 -11.664  -2.482  0.00  0.00    +0.055 C 
ATOM     17  C   UNL     1      -4.008  -9.862  -1.005  0.00  0.00    +0.055 C 
ENDBRANCH  13  14
ENDBRANCH  11  13
ENDBRANCH   2   5
BRANCH   1  21
ATOM     18  N   UNL     1      -2.098  -2.707  -2.595  0.00  0.00    -0.298 N 
ATOM     19  C   UNL     1      -3.036  -3.173  -1.746  0.00  0.00    +0.316 C 
ATOM     20  O   UNL     1      -4.098  -2.592  -1.634  0.00  0.00    -0.251 OA
ATOM     21  N   UNL     1      -2.796  -4.284  -1.022  0.00  0.00    -0.218 N 
ATOM     22  H   UNL     1      -1.251  -3.171  -2.684  0.00  0.00    +0.150 HD
ATOM     23  H   UNL     1      -3.470  -4.620  -0.411  0.00  0.00    +0.174 HD
BRANCH  18  24
ATOM     24  C   UNL     1      -2.359  -1.499  -3.382  0.00  0.00    +0.108 C 
BRANCH  24  26
ATOM     25  C   UNL     1      -1.461  -0.003  -5.170  0.00  0.00    +0.009 C 
ATOM     26  C   UNL     1      -1.143  -1.189  -4.258  0.00  0.00    -0.000 C 
ATOM     27  C   UNL     1       0.051  -0.841  -3.367  0.00  0.00    +0.009 C 
ENDBRANCH  24  26
ENDBRANCH  18  24
ENDBRANCH   1  21
TORSDOF 6
