REMARK  Name = ZINC45728538
REMARK  5 active torsions:
REMARK  status: ('A' for Active; 'I' for Inactive)
REMARK    1  A    between atoms: C_1  and  C_2
REMARK    2  A    between atoms: C_7  and  C_9
REMARK    3  A    between atoms: C_7  and  C_10
REMARK    4  A    between atoms: N_13  and  C_17
REMARK    5  A    between atoms: C_17  and  C_18
REMARK                            x       y       z     vdW  Elec       q    Type
REMARK                         _______ _______ _______ _____ _____    ______ ____
ROOT
ATOM      1  C   UNL     1      -2.031  -4.134  -3.043  0.00  0.00    +0.213 C 
ENDROOT
BRANCH   1  13
ATOM      2  C   UNL     1      -0.019   1.528   0.010  0.00  0.00    +0.007 C 
ATOM      3  C   UNL     1       0.002  -0.004   0.002  0.00  0.00    -0.011 C 
ATOM      4  C   UNL     1      -1.435  -0.529   0.021  0.00  0.00    +0.038 C 
ATOM      5  C   UNL     1      -1.427  -2.050  -0.036  0.00  0.00    +0.113 C 
ATOM      6  C   UNL     1      -0.575  -2.676   1.049  0.00  0.00    +0.041 C 
ATOM      7  C   UNL     1       0.782  -2.031   1.270  0.00  0.00    -0.032 C 
ATOM      8  C   UNL     1       0.719  -0.508   1.253  0.00  0.00    +0.009 C 
ATOM      9  C   UNL     1       1.296  -2.464   2.661  0.00  0.00    +0.011 C 
ATOM     10  C   UNL     1       1.795  -2.526   0.234  0.00  0.00    +0.011 C 
ATOM     11  C   UNL     1      -1.044  -2.534  -1.413  0.00  0.00    +0.247 C 
ATOM     12  O   UNL     1      -0.058  -2.253  -2.060  0.00  0.00    -0.273 OA
ATOM     13  N   UNL     1      -2.050  -3.344  -1.810  0.00  0.00    -0.215 N 
ATOM     14  C   UNL     1      -3.063  -3.331  -0.937  0.00  0.00    +0.310 C 
ATOM     15  O   UNL     1      -4.088  -3.969  -1.082  0.00  0.00    -0.252 OA
ATOM     16  N   UNL     1      -2.817  -2.537   0.119  0.00  0.00    -0.285 N 
ATOM     17  H   UNL     1      -3.418  -2.318   0.845  0.00  0.00    +0.151 HD
ENDBRANCH   1  13
BRANCH   1  18
ATOM     18  C   UNL     1      -1.431  -5.488  -2.763  0.00  0.00    +0.234 C 
ATOM     19  O   UNL     1      -1.057  -5.765  -1.643  0.00  0.00    -0.274 OA
ATOM     20  N   UNL     1      -1.311  -6.390  -3.757  0.00  0.00    -0.300 N 
ATOM     21  C   UNL     1      -1.755  -6.066  -5.119  0.00  0.00    +0.110 C 
ATOM     22  C   UNL     1      -0.593  -6.314  -6.088  0.00  0.00    +0.054 C 
ATOM     23  C   UNL     1      -0.076  -7.736  -5.903  0.00  0.00    +0.115 C 
ATOM     24  C   UNL     1       0.420  -7.952  -4.477  0.00  0.00    +0.054 C 
ATOM     25  C   UNL     1      -0.728  -7.714  -3.498  0.00  0.00    +0.110 C 
ATOM     26  C   UNL     1       1.027  -8.029  -6.895  0.00  0.00    +0.244 C 
ATOM     27  O   UNL     1       2.095  -7.464  -6.992  0.00  0.00    -0.273 OA
ATOM     28  N   UNL     1       0.572  -9.051  -7.648  0.00  0.00    -0.238 N 
ATOM     29  C   UNL     1      -0.653  -9.436  -7.269  0.00  0.00    +0.307 C 
ATOM     30  O   UNL     1      -1.272 -10.339  -7.797  0.00  0.00    -0.252 OA
ATOM     31  N   UNL     1      -1.122  -8.711  -6.236  0.00  0.00    -0.285 N 
ATOM     32  H   UNL     1       1.070  -9.457  -8.375  0.00  0.00    +0.159 HD
ATOM     33  H   UNL     1      -1.982  -8.812  -5.798  0.00  0.00    +0.151 HD
ENDBRANCH   1  18
TORSDOF 2
