REMARK  Name = ZINC35937686
REMARK  4 active torsions:
REMARK  status: ('A' for Active; 'I' for Inactive)
REMARK    1  A    between atoms: C_1  and  C_2
REMARK    2  A    between atoms: C_2  and  C_3
REMARK    3  A    between atoms: C_3  and  C_4
REMARK    4  A    between atoms: C_4  and  C_5
REMARK                            x       y       z     vdW  Elec       q    Type
REMARK                         _______ _______ _______ _____ _____    ______ ____
ROOT
ATOM      1  C   UNL     1       1.444  -2.513  -2.505  0.00  0.00    +0.216 C 
ATOM      2  O   UNL     1       1.887  -1.715  -3.303  0.00  0.00    -0.276 OA
ATOM      3  N   UNL     1       1.583  -3.835  -2.727  0.00  0.00    -0.301 N 
ATOM      4  C   UNL     1       1.047  -4.815  -1.772  0.00  0.00    +0.111 C 
ATOM      5  C   UNL     1       2.170  -5.776  -1.369  0.00  0.00    +0.064 C 
ATOM      6  C   UNL     1       2.780  -6.397  -2.629  0.00  0.00    +0.102 C 
ATOM      7  C   UNL     1       3.382  -5.292  -3.501  0.00  0.00    +0.064 C 
ATOM      8  C   UNL     1       2.269  -4.324  -3.931  0.00  0.00    +0.111 C 
ATOM      9  N   UNL     1       1.726  -7.087  -3.384  0.00  0.00    -0.323 N 
ATOM     10  C   UNL     1       1.266  -8.311  -2.911  0.00  0.00    +0.042 A 
ATOM     11  C   UNL     1      -0.032  -8.739  -3.125  0.00  0.00    +0.043 A 
ATOM     12  C   UNL     1      -0.440  -9.963  -2.626  0.00  0.00    +0.043 A 
ATOM     13  C   UNL     1       0.443 -10.763  -1.914  0.00  0.00    +0.021 A 
ATOM     14  C   UNL     1       1.740 -10.352  -1.696  0.00  0.00    +0.016 A 
ATOM     15  C   UNL     1       2.164  -9.122  -2.194  0.00  0.00    +0.058 A 
ATOM     16  C   UNL     1       3.542  -8.639  -1.998  0.00  0.00    +0.247 C 
ATOM     17  O   UNL     1       4.412  -9.398  -1.617  0.00  0.00    -0.270 OA
ATOM     18  N   UNL     1       3.828  -7.344  -2.247  0.00  0.00    -0.290 N 
ATOM     19 CL   UNL     1      -2.068 -10.502  -2.893  0.00  0.00    -0.083 Cl
ATOM     20  H   UNL     1       1.359  -6.697  -4.193  0.00  0.00    +0.148 HD
ATOM     21  H   UNL     1       4.745  -7.035  -2.171  0.00  0.00    +0.151 HD
ENDROOT
BRANCH   1  22
ATOM     22  C   UNL     1       0.739  -2.027  -1.265  0.00  0.00    +0.096 C 
BRANCH  22  23
ATOM     23  C   UNL     1       0.718  -0.497  -1.257  0.00  0.00    +0.009 C 
BRANCH  23  25
ATOM     24  C   UNL     1      -0.019   1.526   0.010  0.00  0.00    +0.004 C 
ATOM     25  C   UNL     1       0.002  -0.004   0.002  0.00  0.00    -0.003 C 
ENDBRANCH  23  25
ENDBRANCH  22  23
ENDBRANCH   1  22
TORSDOF 3
