REMARK  Name = ZINC02428598
REMARK  7 active torsions:
REMARK  status: ('A' for Active; 'I' for Inactive)
REMARK    1  A    between atoms: C_9  and  C_24
REMARK    2  A    between atoms: C_10  and  N_23
REMARK    3  A    between atoms: N_11  and  C_14
REMARK    4  A    between atoms: C_14  and  C_15
REMARK    5  A    between atoms: C_15  and  C_16
REMARK    6  A    between atoms: N_26  and  C_27
REMARK    7  A    between atoms: C_27  and  C_28
REMARK                            x       y       z     vdW  Elec       q    Type
REMARK                         _______ _______ _______ _____ _____    ______ ____
ROOT
ATOM      1  C   UNL     1      -0.016   1.356   0.009  0.00  0.00    +0.002 A 
ATOM      2  C   UNL     1       1.170   2.088   0.002  0.00  0.00    +0.002 A 
ATOM      3  C   UNL     1       2.378   1.463  -0.013  0.00  0.00    +0.030 A 
ATOM      4  C   UNL     1       2.439   0.057  -0.021  0.00  0.00    +0.092 A 
ATOM      5  C   UNL     1       1.233  -0.687  -0.013  0.00  0.00    +0.090 A 
ATOM      6  C   UNL     1       0.002  -0.004   0.002  0.00  0.00    +0.030 A 
ATOM      7  N   UNL     1       1.264  -2.025  -0.021  0.00  0.00    -0.241 NA
ATOM      8  C   UNL     1       2.425  -2.648  -0.035  0.00  0.00    +0.122 A 
ATOM      9  C   UNL     1       2.837  -4.061  -0.047  0.00  0.00    +0.103 A 
ATOM     10  C   UNL     1       4.227  -4.067  -0.061  0.00  0.00    +0.112 A 
ATOM     11  N   UNL     1       4.708  -2.794  -0.059  0.00  0.00    -0.312 N 
ATOM     12  C   UNL     1       3.673  -1.881  -0.043  0.00  0.00    +0.162 A 
ATOM     13  N   UNL     1       3.624  -0.566  -0.036  0.00  0.00    -0.226 NA
ENDROOT
BRANCH   9  14
ATOM     14  C   UNL     1       1.958  -5.229  -0.044  0.00  0.00    +0.250 C 
ATOM     15  O   UNL     1       1.581  -5.710  -1.097  0.00  0.00    -0.270 OA
ATOM     16  N   UNL     1       1.564  -5.773   1.125  0.00  0.00    -0.304 N 
ATOM     17  H   UNL     1       1.865  -5.389   1.964  0.00  0.00    +0.149 HD
BRANCH  16  18
ATOM     18  C   UNL     1       0.683  -6.943   1.128  0.00  0.00    +0.179 C 
BRANCH  18  19
ATOM     19  C   UNL     1       0.395  -7.351   2.550  0.00  0.00    +0.122 A 
ATOM     20  C   UNL     1      -0.630  -6.912   3.303  0.00  0.00    +0.046 A 
ATOM     21  C   UNL     1      -0.517  -7.549   4.560  0.00  0.00    +0.041 A 
ATOM     22  C   UNL     1       0.570  -8.339   4.500  0.00  0.00    +0.195 A 
ATOM     23  O   UNL     1       1.115  -8.220   3.279  0.00  0.00    -0.466 OA
ENDBRANCH  18  19
ENDBRANCH  16  18
ENDBRANCH   9  14
BRANCH  10  24
ATOM     24  N   UNL     1       5.005  -5.196  -0.075  0.00  0.00    -0.344 N 
ATOM     25  H   UNL     1       4.588  -6.071  -0.076  0.00  0.00    +0.144 HD
ATOM     26  H   UNL     1       5.971  -5.119  -0.084  0.00  0.00    +0.144 HD
ENDBRANCH  10  24
BRANCH  11  27
ATOM     27  C   UNL     1       6.129  -2.440  -0.071  0.00  0.00    +0.130 C 
BRANCH  27  28
ATOM     28  C   UNL     1       6.610  -2.309  -1.517  0.00  0.00    +0.057 C 
BRANCH  28  29
ATOM     29  C   UNL     1       8.073  -1.946  -1.529  0.00  0.00    -0.046 A 
ATOM     30  C   UNL     1       8.454  -0.617  -1.520  0.00  0.00    +0.006 A 
ATOM     31  C   UNL     1       9.795  -0.283  -1.530  0.00  0.00    +0.038 A 
ATOM     32  C   UNL     1      10.757  -1.279  -1.551  0.00  0.00    +0.123 A 
ATOM     33  C   UNL     1      10.373  -2.609  -1.560  0.00  0.00    +0.038 A 
ATOM     34  C   UNL     1       9.032  -2.941  -1.544  0.00  0.00    +0.006 A 
ATOM     35  F   UNL     1      12.068  -0.953  -1.562  0.00  0.00    -0.205 F 
ENDBRANCH  28  29
ENDBRANCH  27  28
ENDBRANCH  11  27
TORSDOF 7
