REMARK  Name = ZINC16009613
REMARK  7 active torsions:
REMARK  status: ('A' for Active; 'I' for Inactive)
REMARK    1  A    between atoms: C_1  and  C_2
REMARK    2  A    between atoms: C_3  and  N_11
REMARK    3  A    between atoms: C_7  and  N_8
REMARK    4  A    between atoms: C_16  and  C_33
REMARK    5  A    between atoms: C_33  and  C_34
REMARK    6  A    between atoms: C_34  and  S_35
REMARK    7  A    between atoms: S_35  and  C_36
REMARK                            x       y       z     vdW  Elec       q    Type
REMARK                         _______ _______ _______ _____ _____    ______ ____
ROOT
ATOM      1  N   UNL     1       0.674  -0.114  -2.398  0.00  0.00    -0.209 N 
ATOM      2  C   UNL     1       1.938   0.057  -2.805  0.00  0.00    +0.232 C 
ATOM      3  O   UNL     1       2.924  -0.307  -2.201  0.00  0.00    -0.274 OA
ATOM      4  C   UNL     1       1.944   0.774  -4.135  0.00  0.00    +0.107 C 
ATOM      5  C   UNL     1       2.546   2.183  -3.953  0.00  0.00    +0.068 C 
ATOM      6  N   UNL     1       1.398   3.041  -3.555  0.00  0.00    -0.295 NA
ATOM      7  C   UNL     1       0.276   2.542  -4.373  0.00  0.00    +0.136 C 
ATOM      8  C   UNL     1       0.434   1.003  -4.427  0.00  0.00    +0.123 C 
ATOM      9  C   UNL     1      -0.249   0.372  -3.235  0.00  0.00    +0.233 C 
ATOM     10  O   UNL     1      -1.448   0.317  -3.063  0.00  0.00    -0.274 OA
ATOM     11  C   UNL     1      -1.050   2.945  -3.794  0.00  0.00    +0.003 A 
ATOM     12  C   UNL     1      -1.666   2.715  -2.584  0.00  0.00    +0.008 A 
ATOM     13  C   UNL     1      -2.925   3.234  -2.338  0.00  0.00    +0.000 A 
ATOM     14  C   UNL     1      -3.562   3.984  -3.309  0.00  0.00    +0.002 A 
ATOM     15  C   UNL     1      -2.950   4.216  -4.523  0.00  0.00    +0.023 A 
ATOM     16  C   UNL     1      -1.683   3.697  -4.779  0.00  0.00    +0.039 A 
ATOM     17  N   UNL     1      -0.870   3.791  -5.911  0.00  0.00    -0.283 N 
ATOM     18  C   UNL     1       0.298   3.139  -5.754  0.00  0.00    +0.243 C 
ATOM     19  O   UNL     1       1.193   3.050  -6.567  0.00  0.00    -0.273 OA
ATOM     20  H   UNL     1       1.199   2.945  -2.571  0.00  0.00    +0.123 HD
ATOM     21  H   UNL     1      -1.118   4.270  -6.718  0.00  0.00    +0.155 HD
ENDROOT
BRANCH   1  24
ATOM     22  C   UNL     1       0.264  -2.931  -2.442  0.00  0.00    +0.048 C 
ATOM     23  C   UNL     1       0.137  -2.128  -1.173  0.00  0.00    +0.002 A 
ATOM     24  C   UNL     1       0.346  -0.755  -1.195  0.00  0.00    +0.049 A 
ATOM     25  C   UNL     1       0.228  -0.020  -0.024  0.00  0.00    +0.024 A 
ATOM     26  C   UNL     1      -0.095  -0.654   1.159  0.00  0.00    +0.004 A 
ATOM     27  C   UNL     1      -0.302  -2.021   1.178  0.00  0.00    +0.033 A 
ATOM     28  C   UNL     1      -0.192  -2.756   0.012  0.00  0.00    +0.131 A 
BRANCH  28  29
ATOM     29  N   UNL     1      -0.420  -4.218   0.035  0.00  0.00    +0.057 N 
ATOM     30  O   UNL     1      -0.593  -4.787   1.088  0.00  0.00    -0.126 OA
ATOM     31  O   UNL     1      -0.434  -4.845  -0.999  0.00  0.00    -0.126 OA
ENDBRANCH  28  29
ENDBRANCH   1  24
BRANCH   5  32
ATOM     32  C   UNL     1       3.609   2.169  -2.853  0.00  0.00    +0.030 C 
BRANCH  32  33
ATOM     33  C   UNL     1       4.279   3.542  -2.773  0.00  0.00    +0.070 C 
BRANCH  33  34
ATOM     34  S   UNL     1       5.539   3.526  -1.469  0.00  0.00    -0.164 S 
ATOM     35  C   UNL     1       6.230   5.203  -1.504  0.00  0.00    +0.084 C 
ENDBRANCH  33  34
ENDBRANCH  32  33
ENDBRANCH   5  32
TORSDOF 5
