REMARK  Name = ZINC06631392
REMARK  12 active torsions:
REMARK  status: ('A' for Active; 'I' for Inactive)
REMARK    1  A    between atoms: C_1  and  C_2
REMARK    2  A    between atoms: C_2  and  O_3
REMARK    3  A    between atoms: O_3  and  C_4
REMARK    4  A    between atoms: C_9  and  N_10
REMARK    5  A    between atoms: N_10  and  C_11
REMARK    6  A    between atoms: C_11  and  C_13
REMARK    7  A    between atoms: C_11  and  C_20
REMARK    8  A    between atoms: C_16  and  C_19
REMARK    9  A    between atoms: N_22  and  C_23
REMARK   10  A    between atoms: C_28  and  C_30
REMARK   11  A    between atoms: C_31  and  N_38
REMARK   12  A    between atoms: C_32  and  C_35
REMARK                            x       y       z     vdW  Elec       q    Type
REMARK                         _______ _______ _______ _____ _____    ______ ____
ROOT
ATOM      1  N   UNL     1      -2.181   2.640  -0.055  0.00  0.00    -0.247 N 
ATOM      2  C   UNL     1      -3.180   1.974  -0.667  0.00  0.00    +0.262 C 
ATOM      3  O   UNL     1      -3.793   1.111  -0.068  0.00  0.00    -0.269 OA
ENDROOT
BRANCH   1   9
ATOM      4  C   UNL     1      -1.687   4.977  -0.445  0.00  0.00    +0.142 A 
ATOM      5  C   UNL     1      -0.990   5.956  -1.135  0.00  0.00    +0.047 A 
ATOM      6  C   UNL     1      -0.086   5.598  -2.118  0.00  0.00    +0.004 A 
ATOM      7  C   UNL     1       0.125   4.265  -2.416  0.00  0.00    +0.002 A 
ATOM      8  C   UNL     1      -0.566   3.282  -1.733  0.00  0.00    +0.027 A 
ATOM      9  C   UNL     1      -1.475   3.634  -0.745  0.00  0.00    +0.079 A 
BRANCH   4  10
ATOM     10  O   UNL     1      -2.576   5.328   0.523  0.00  0.00    -0.490 OA
BRANCH  10  12
ATOM     11  C   UNL     1      -3.775   6.921   1.888  0.00  0.00    +0.048 C 
ATOM     12  C   UNL     1      -2.742   6.724   0.776  0.00  0.00    +0.226 C 
ENDBRANCH  10  12
ENDBRANCH   4  10
ENDBRANCH   1   9
BRANCH   2  13
ATOM     13  C   UNL     1      -3.527   2.290  -2.054  0.00  0.00    +0.116 A 
ATOM     14  C   UNL     1      -4.513   1.730  -2.869  0.00  0.00    +0.076 A 
ATOM     15  C   UNL     1      -4.540   2.299  -4.142  0.00  0.00    +0.155 A 
ATOM     16  N   UNL     1      -3.685   3.253  -4.439  0.00  0.00    -0.203 NA
ATOM     17  S   UNL     1      -2.809   3.495  -3.151  0.00  0.00    +0.019 S 
BRANCH  15  18
ATOM     18  C   UNL     1      -5.517   1.836  -5.145  0.00  0.00    +0.262 C 
ATOM     19  O   UNL     1      -6.304   0.953  -4.863  0.00  0.00    -0.269 OA
ATOM     20  N   UNL     1      -5.536   2.390  -6.373  0.00  0.00    -0.324 N 
ATOM     21  H   UNL     1      -4.908   3.094  -6.598  0.00  0.00    +0.145 HD
ATOM     22  H   UNL     1      -6.179   2.085  -7.033  0.00  0.00    +0.145 HD
ENDBRANCH  15  18
BRANCH  14  23
ATOM     23  N   UNL     1      -5.372   0.720  -2.457  0.00  0.00    -0.355 N 
ATOM     24  H   UNL     1      -5.306   0.364  -1.557  0.00  0.00    +0.142 HD
ATOM     25  H   UNL     1      -6.039   0.371  -3.069  0.00  0.00    +0.142 HD
ENDBRANCH  14  23
ENDBRANCH   2  13
BRANCH   1  26
ATOM     26  C   UNL     1      -1.833   2.324   1.333  0.00  0.00    +0.198 C 
BRANCH  26  27
ATOM     27  C   UNL     1      -1.341   0.902   1.417  0.00  0.00    -0.018 A 
ATOM     28  C   UNL     1      -0.373   0.453   0.538  0.00  0.00    +0.006 A 
ATOM     29  C   UNL     1       0.082  -0.850   0.618  0.00  0.00    +0.004 A 
ATOM     30  C   UNL     1      -0.439  -1.706   1.570  0.00  0.00    -0.050 A 
ATOM     31  C   UNL     1      -1.411  -1.259   2.445  0.00  0.00    +0.004 A 
ATOM     32  C   UNL     1      -1.862   0.046   2.369  0.00  0.00    +0.006 A 
ATOM     33  C   UNL     1       0.052  -3.129   1.653  0.00  0.00    +0.044 C 
ENDBRANCH  26  27
BRANCH  26  34
ATOM     34  C   UNL     1      -0.750   3.260   1.805  0.00  0.00    +0.239 C 
ATOM     35  O   UNL     1       0.093   3.652   1.027  0.00  0.00    -0.273 OA
ATOM     36  N   UNL     1      -0.718   3.659   3.092  0.00  0.00    -0.311 N 
ATOM     37  H   UNL     1      -1.392   3.345   3.714  0.00  0.00    +0.149 HD
BRANCH  36  38
ATOM     38  C   UNL     1       0.336   4.568   3.550  0.00  0.00    +0.073 C 
ATOM     39  C   UNL     1       1.572   3.761   3.997  0.00  0.00    +0.022 C 
ATOM     40  C   UNL     1       2.112   4.541   5.222  0.00  0.00    +0.002 C 
ATOM     41  C   UNL     1       0.816   4.996   5.936  0.00  0.00    +0.002 C 
ATOM     42  C   UNL     1      -0.146   5.353   4.783  0.00  0.00    +0.022 C 
ENDBRANCH  36  38
ENDBRANCH  26  34
ENDBRANCH   1  26
TORSDOF 10
