REMARK  Name = ZINC13076683
REMARK  6 active torsions:
REMARK  status: ('A' for Active; 'I' for Inactive)
REMARK    1  A    between atoms: C_1  and  C_2
REMARK    2  A    between atoms: C_2  and  C_25
REMARK    3  A    between atoms: C_8  and  O_11
REMARK    4  A    between atoms: O_11  and  S_12
REMARK    5  A    between atoms: S_12  and  C_15
REMARK    6  A    between atoms: C_17  and  C_23
REMARK                            x       y       z     vdW  Elec       q    Type
REMARK                         _______ _______ _______ _____ _____    ______ ____
ROOT
ATOM      1  S   UNL     1      -1.331   5.684   0.557  0.00  0.00    +0.152 S 
ATOM      2  O   UNL     1      -1.509   4.747   1.610  0.00  0.00    -0.131 OA
ATOM      3  O   UNL     1      -0.508   5.417  -0.570  0.00  0.00    -0.131 OA
ENDROOT
BRANCH   1   4
ATOM      4  C   UNL     1      -2.938   6.049  -0.068  0.00  0.00    +0.147 A 
ATOM      5  C   UNL     1      -3.402   5.400  -1.193  0.00  0.00    +0.048 A 
ATOM      6  C   UNL     1      -4.674   5.693  -1.690  0.00  0.00    +0.083 A 
ATOM      7  C   UNL     1      -5.472   6.636  -1.037  0.00  0.00    +0.057 A 
ATOM      8  C   UNL     1      -4.997   7.276   0.090  0.00  0.00    +0.042 A 
ATOM      9  C   UNL     1      -3.733   6.983   0.574  0.00  0.00    +0.071 A 
ATOM     10 CL   UNL     1      -3.143   7.791   1.993  0.00  0.00    -0.081 Cl
ATOM     11 CL   UNL     1      -7.057   7.004  -1.644  0.00  0.00    -0.083 Cl
BRANCH   6  12
ATOM     12  C   UNL     1      -5.175   5.005  -2.896  0.00  0.00    +0.388 C 
ATOM     13  O   UNL     1      -6.283   5.258  -3.323  0.00  0.00    -0.241 OA
ATOM     14  O   UNL     1      -4.402   4.096  -3.523  0.00  0.00    -0.241 OA
ENDBRANCH   6  12
ENDBRANCH   1   4
BRANCH   1  15
ATOM     15  O   UNL     1      -0.796   6.958   1.194  0.00  0.00    -0.339 OA
BRANCH  15  23
ATOM     16  C   UNL     1       3.097   6.171  -1.520  0.00  0.00    +0.056 C 
ATOM     17  C   UNL     1       3.163   7.271  -0.459  0.00  0.00    +0.109 C 
ATOM     18  C   UNL     1       2.954   8.664  -1.099  0.00  0.00    +0.086 C 
ATOM     19  C   UNL     1       1.458   8.860  -0.942  0.00  0.00    +0.002 A 
ATOM     20  C   UNL     1       0.575   9.742  -1.528  0.00  0.00    +0.007 A 
ATOM     21  C   UNL     1      -0.769   9.694  -1.205  0.00  0.00    +0.004 A 
ATOM     22  C   UNL     1      -1.224   8.759  -0.294  0.00  0.00    +0.052 A 
ATOM     23  C   UNL     1      -0.341   7.875   0.299  0.00  0.00    +0.198 A 
ATOM     24  C   UNL     1       1.020   7.925  -0.016  0.00  0.00    +0.169 A 
ATOM     25  O   UNL     1       2.053   7.170   0.450  0.00  0.00    -0.482 OA
ATOM     26  C   UNL     1       4.493   7.215   0.296  0.00  0.00    +0.056 C 
ENDBRANCH  15  23
ENDBRANCH   1  15
TORSDOF 4
