REMARK  Name = ZINC62039933
REMARK  7 active torsions:
REMARK  status: ('A' for Active; 'I' for Inactive)
REMARK    1  A    between atoms: C_1  and  C_2
REMARK    2  A    between atoms: C_3  and  C_23
REMARK    3  A    between atoms: C_7  and  C_11
REMARK    4  A    between atoms: N_12  and  C_13
REMARK    5  A    between atoms: C_18  and  C_19
REMARK    6  A    between atoms: C_19  and  O_21
REMARK    7  A    between atoms: O_21  and  C_22
REMARK                            x       y       z     vdW  Elec       q    Type
REMARK                         _______ _______ _______ _____ _____    ______ ____
ROOT
ATOM      1  C   UNL     1      -0.814   1.693   1.444  0.00  0.00    +0.052 C 
ATOM      2  C   UNL     1      -0.622   0.251   1.049  0.00  0.00    -0.003 A 
ATOM      3  C   UNL     1      -1.567  -0.657   0.709  0.00  0.00    +0.005 A 
ATOM      4  C   UNL     1      -1.147  -2.009   0.359  0.00  0.00    +0.056 A 
ATOM      5  C   UNL     1      -1.929  -3.130  -0.028  0.00  0.00    +0.135 A 
ATOM      6  N   UNL     1      -1.325  -4.275  -0.303  0.00  0.00    -0.217 NA
ATOM      7  C   UNL     1      -0.014  -4.413  -0.230  0.00  0.00    +0.129 A 
ATOM      8  N   UNL     1       0.764  -3.409   0.123  0.00  0.00    -0.225 NA
ATOM      9  C   UNL     1       0.245  -2.232   0.414  0.00  0.00    +0.114 A 
ATOM     10  S   UNL     1       0.902  -0.662   0.911  0.00  0.00    -0.073 S 
ATOM     11  C   UNL     1       0.606  -5.747  -0.557  0.00  0.00    +0.088 C 
ATOM     12  N   UNL     1      -3.307  -3.026  -0.116  0.00  0.00    -0.298 N 
ATOM     13  H   UNL     1      -3.738  -2.166   0.015  0.00  0.00    +0.154 HD
ENDROOT
BRANCH   3  14
ATOM     14  C   UNL     1      -3.001  -0.284   0.693  0.00  0.00    -0.016 A 
ATOM     15  C   UNL     1      -3.873  -0.817   1.642  0.00  0.00    +0.011 A 
ATOM     16  C   UNL     1      -5.207  -0.467   1.623  0.00  0.00    +0.039 A 
ATOM     17  C   UNL     1      -5.682   0.413   0.664  0.00  0.00    +0.123 A 
ATOM     18  C   UNL     1      -4.819   0.945  -0.281  0.00  0.00    +0.039 A 
ATOM     19  C   UNL     1      -3.482   0.605  -0.267  0.00  0.00    +0.011 A 
ATOM     20  F   UNL     1      -6.989   0.753   0.650  0.00  0.00    -0.205 F 
ENDBRANCH   3  14
BRANCH  12  21
ATOM     21  C   UNL     1      -4.074  -4.152  -0.391  0.00  0.00    +0.047 A 
ATOM     22  C   UNL     1      -3.792  -5.359   0.237  0.00  0.00    +0.024 A 
ATOM     23  C   UNL     1      -4.554  -6.476  -0.038  0.00  0.00    +0.002 A 
ATOM     24  C   UNL     1      -5.603  -6.405  -0.941  0.00  0.00    +0.001 A 
ATOM     25  C   UNL     1      -5.898  -5.218  -1.575  0.00  0.00    +0.017 A 
ATOM     26  C   UNL     1      -5.139  -4.075  -1.302  0.00  0.00    +0.080 A 
BRANCH  26  27
ATOM     27  C   UNL     1      -5.452  -2.801  -1.971  0.00  0.00    +0.341 C 
ATOM     28  O   UNL     1      -4.729  -1.837  -1.811  0.00  0.00    -0.245 OA
BRANCH  27  29
ATOM     29  O   UNL     1      -6.540  -2.703  -2.760  0.00  0.00    -0.464 OA
ATOM     30  C   UNL     1      -6.783  -1.437  -3.377  0.00  0.00    +0.280 C 
ENDBRANCH  27  29
ENDBRANCH  26  27
ENDBRANCH  12  21
TORSDOF 4
