REMARK  Name = ZINC29600483
REMARK  10 active torsions:
REMARK  status: ('A' for Active; 'I' for Inactive)
REMARK    1  A    between atoms: C_1  and  C_2
REMARK    2  A    between atoms: C_2  and  C_21
REMARK    3  A    between atoms: N_5  and  C_9
REMARK    4  A    between atoms: C_9  and  C_10
REMARK    5  A    between atoms: N_12  and  C_13
REMARK    6  A    between atoms: C_13  and  C_14
REMARK    7  A    between atoms: N_16  and  C_17
REMARK    8  A    between atoms: C_17  and  C_18
REMARK    9  A    between atoms: C_17  and  C_19
REMARK   10  A    between atoms: C_17  and  C_20
REMARK                            x       y       z     vdW  Elec       q    Type
REMARK                         _______ _______ _______ _____ _____    ______ ____
ROOT
ATOM      1  C   UNL     1      -0.019   1.526   0.010  0.00  0.00    +0.047 C 
ATOM      2  C   UNL     1       0.002  -0.004   0.002  0.00  0.00    +0.135 C 
ATOM      3  C   UNL     1      -1.403  -0.557   0.139  0.00  0.00    +0.251 C 
ATOM      4  O   UNL     1      -2.332  -0.392  -0.621  0.00  0.00    -0.272 OA
ATOM      5  N   UNL     1      -1.403  -1.272   1.282  0.00  0.00    -0.215 N 
ATOM      6  C   UNL     1      -0.206  -1.247   1.879  0.00  0.00    +0.310 C 
ATOM      7  O   UNL     1       0.040  -1.819   2.924  0.00  0.00    -0.252 OA
ATOM      8  N   UNL     1       0.695  -0.520   1.195  0.00  0.00    -0.281 N 
ATOM      9  H   UNL     1       1.621  -0.365   1.440  0.00  0.00    +0.152 HD
ENDROOT
BRANCH   2  10
ATOM     10  C   UNL     1       0.657  -0.517  -1.255  0.00  0.00    -0.016 A 
ATOM     11  C   UNL     1      -0.107  -0.772  -2.378  0.00  0.00    +0.006 A 
ATOM     12  C   UNL     1       0.493  -1.242  -3.530  0.00  0.00    +0.000 A 
ATOM     13  C   UNL     1       1.859  -1.457  -3.560  0.00  0.00    +0.000 A 
ATOM     14  C   UNL     1       2.623  -1.202  -2.437  0.00  0.00    +0.000 A 
ATOM     15  C   UNL     1       2.023  -0.727  -1.286  0.00  0.00    +0.006 A 
ENDBRANCH   2  10
BRANCH   5  16
ATOM     16  C   UNL     1      -2.569  -1.986   1.805  0.00  0.00    +0.213 C 
BRANCH  16  17
ATOM     17  C   UNL     1      -2.585  -3.391   1.260  0.00  0.00    +0.231 C 
ATOM     18  O   UNL     1      -1.707  -3.759   0.508  0.00  0.00    -0.274 OA
ATOM     19  N   UNL     1      -3.573  -4.239   1.608  0.00  0.00    -0.305 N 
ATOM     20  H   UNL     1      -4.275  -3.944   2.209  0.00  0.00    +0.149 HD
BRANCH  19  21
ATOM     21  C   UNL     1      -3.588  -5.604   1.077  0.00  0.00    +0.200 C 
BRANCH  21  22
ATOM     22  C   UNL     1      -4.788  -6.339   1.616  0.00  0.00    +0.231 C 
ATOM     23  O   UNL     1      -5.556  -5.778   2.369  0.00  0.00    -0.274 OA
ATOM     24  N   UNL     1      -5.009  -7.621   1.261  0.00  0.00    -0.309 N 
ATOM     25  H   UNL     1      -4.395  -8.070   0.659  0.00  0.00    +0.149 HD
BRANCH  24  26
ATOM     26  C   UNL     1      -6.175  -8.335   1.784  0.00  0.00    +0.026 C 
ATOM     27  C   UNL     1      -7.452  -7.609   1.358  0.00  0.00    +0.031 C 
ATOM     28  C   UNL     1      -6.191  -9.761   1.231  0.00  0.00    +0.031 C 
ATOM     29  C   UNL     1      -6.101  -8.382   3.312  0.00  0.00    +0.031 C 
ENDBRANCH  24  26
ENDBRANCH  21  22
ENDBRANCH  19  21
ENDBRANCH  16  17
ENDBRANCH   5  16
TORSDOF 6
