REMARK  Name = ZINC40608424
REMARK  4 active torsions:
REMARK  status: ('A' for Active; 'I' for Inactive)
REMARK    1  A    between atoms: C_1  and  N_2
REMARK    2  A    between atoms: N_2  and  C_3
REMARK    3  A    between atoms: C_5  and  N_18
REMARK    4  A    between atoms: C_6  and  N_10
REMARK                            x       y       z     vdW  Elec       q    Type
REMARK                         _______ _______ _______ _____ _____    ______ ____
ROOT
ATOM      1  C   UNL     1      -1.238   0.355   0.626  0.00  0.00    +0.130 C 
ATOM      2  N   UNL     1       0.026  -0.001  -0.023  0.00  0.00    -0.319 N 
ATOM      3  C   UNL     1       1.296   0.465   0.540  0.00  0.00    +0.130 C 
ATOM      4  C   UNL     1       0.021  -0.779  -1.171  0.00  0.00    +0.156 A 
ATOM      5  C   UNL     1       0.054  -0.183  -2.428  0.00  0.00    +0.206 A 
ATOM      6  C   UNL     1       0.047  -1.007  -3.548  0.00  0.00    +0.160 A 
ATOM      7  N   UNL     1       0.009  -2.328  -3.379  0.00  0.00    -0.218 NA
ATOM      8  C   UNL     1      -0.021  -2.854  -2.172  0.00  0.00    +0.225 A 
ATOM      9  N   UNL     1      -0.010  -2.107  -1.086  0.00  0.00    -0.218 NA
ENDROOT
BRANCH   6  10
ATOM     10  N   UNL     1       0.078  -0.462  -4.824  0.00  0.00    -0.282 N 
ATOM     11  C   UNL     1       0.181  -1.295  -5.935  0.00  0.00    +0.124 A 
ATOM     12  C   UNL     1       0.321  -0.739  -7.202  0.00  0.00    +0.045 A 
ATOM     13  C   UNL     1       0.423  -1.578  -8.298  0.00  0.00    +0.020 A 
ATOM     14  C   UNL     1       0.381  -2.950  -8.087  0.00  0.00    +0.036 A 
ATOM     15  C   UNL     1       0.240  -3.433  -6.801  0.00  0.00    +0.128 A 
ATOM     16  N   UNL     1       0.150  -2.609  -5.775  0.00  0.00    -0.239 NA
ATOM     17 BR   UNL     1       0.515  -4.145  -9.547  0.00  0.00    -0.049 Br
ATOM     18  H   UNL     1       0.027   0.500  -4.942  0.00  0.00    +0.155 HD
ENDBRANCH   6  10
BRANCH   5  19
ATOM     19  N   UNL     1       0.094   1.290  -2.570  0.00  0.00    +0.063 N 
ATOM     20  O   UNL     1       1.154   1.855  -2.703  0.00  0.00    -0.126 OA
ATOM     21  O   UNL     1      -0.933   1.928  -2.552  0.00  0.00    -0.126 OA
ENDBRANCH   5  19
TORSDOF 2
