REMARK  Name = ZINC15919773
REMARK  8 active torsions:
REMARK  status: ('A' for Active; 'I' for Inactive)
REMARK    1  A    between atoms: C_1  and  C_2
REMARK    2  A    between atoms: C_11  and  C_28
REMARK    3  A    between atoms: C_11  and  O_32
REMARK    4  A    between atoms: C_12  and  C_27
REMARK    5  A    between atoms: C_14  and  O_26
REMARK    6  A    between atoms: C_18  and  C_25
REMARK    7  A    between atoms: C_28  and  C_30
REMARK    8  A    between atoms: C_30  and  O_31
REMARK                            x       y       z     vdW  Elec       q    Type
REMARK                         _______ _______ _______ _____ _____    ______ ____
ROOT
ATOM      1  C   UNL     1      -3.890   2.742  -0.846  0.00  0.00    +0.012 C 
ATOM      2  C   UNL     1      -2.681   3.322  -1.574  0.00  0.00    +0.013 C 
ATOM      3  C   UNL     1      -1.416   3.117  -0.735  0.00  0.00    +0.012 C 
ATOM      4  C   UNL     1      -0.993   1.661  -0.888  0.00  0.00    -0.000 C 
ATOM      5  C   UNL     1      -0.089   1.144   0.183  0.00  0.00    +0.002 C 
ATOM      6  C   UNL     1      -0.444   1.428   1.647  0.00  0.00    +0.008 C 
ATOM      7  C   UNL     1       0.864   1.033   2.389  0.00  0.00    +0.043 C 
ATOM      8  C   UNL     1       1.992   1.035   1.326  0.00  0.00    +0.131 C 
ATOM      9  C   UNL     1       1.350   1.687   0.089  0.00  0.00    +0.009 C 
ATOM     10  C   UNL     1       1.930   1.272  -1.242  0.00  0.00    +0.041 C 
ATOM     11  C   UNL     1       1.071   1.878  -2.373  0.00  0.00    +0.120 C 
ATOM     12  C   UNL     1      -0.378   1.453  -2.274  0.00  0.00    +0.035 C 
ATOM     13  C   UNL     1      -1.287   1.963  -3.362  0.00  0.00    +0.013 C 
ATOM     14  C   UNL     1      -2.526   2.665  -2.921  0.00  0.00    -0.053 C 
ATOM     15  C   UNL     1      -3.565   2.789  -3.768  0.00  0.00    +0.051 C 
ATOM     16  C   UNL     1      -3.501   2.142  -5.096  0.00  0.00    +0.179 C 
ATOM     17  O   UNL     1      -4.225   2.499  -6.019  0.00  0.00    -0.288 OA
ATOM     18  C   UNL     1      -2.553   1.016  -5.261  0.00  0.00    +0.047 C 
ATOM     19  C   UNL     1      -1.543   0.899  -4.391  0.00  0.00    -0.012 C 
ATOM     20  C   UNL     1      -0.529   3.046  -4.130  0.00  0.00    +0.020 C 
ATOM     21  C   UNL     1       1.435   3.200   0.271  0.00  0.00    +0.015 C 
ENDROOT
BRANCH  11  22
ATOM     22  O   UNL     1       1.634   1.383  -3.601  0.00  0.00    -0.391 OA
ATOM     23  H   UNL     1       2.558   1.630  -3.737  0.00  0.00    +0.210 HD
ENDBRANCH  11  22
BRANCH   8  24
ATOM     24  C   UNL     1       3.157   1.863   1.796  0.00  0.00    +0.190 C 
ATOM     25  O   UNL     1       2.997   2.700   2.651  0.00  0.00    -0.292 OA
BRANCH  24  26
ATOM     26  C   UNL     1       4.524   1.647   1.199  0.00  0.00    +0.233 C 
BRANCH  26  27
ATOM     27  O   UNL     1       5.456   2.546   1.804  0.00  0.00    -0.387 OA
ATOM     28  H   UNL     1       6.358   2.462   1.467  0.00  0.00    +0.210 HD
ENDBRANCH  26  27
ENDBRANCH  24  26
ENDBRANCH   8  24
BRANCH   8  29
ATOM     29  O   UNL     1       2.403  -0.295   1.025  0.00  0.00    -0.380 OA
ATOM     30  H   UNL     1       2.815  -0.757   1.768  0.00  0.00    +0.211 HD
ENDBRANCH   8  29
TORSDOF 5
