REMARK  Name = ZINC56813604
REMARK  12 active torsions:
REMARK  status: ('A' for Active; 'I' for Inactive)
REMARK    1  A    between atoms: C_1  and  C_2
REMARK    2  A    between atoms: C_5  and  C_7
REMARK    3  A    between atoms: C_7  and  N_8
REMARK    4  A    between atoms: N_8  and  C_9
REMARK    5  A    between atoms: C_9  and  C_10
REMARK    6  A    between atoms: C_10  and  N_11
REMARK    7  A    between atoms: N_11  and  C_12
REMARK    8  A    between atoms: N_11  and  C_13
REMARK    9  A    between atoms: N_16  and  C_17
REMARK   10  A    between atoms: C_17  and  C_18
REMARK   11  A    between atoms: C_23  and  C_24
REMARK   12  A    between atoms: C_24  and  N_25
REMARK                            x       y       z     vdW  Elec       q    Type
REMARK                         _______ _______ _______ _____ _____    ______ ____
ROOT
ATOM      1  N   UNL     1       1.983  -3.620  -1.407  0.00  0.00    -0.280 N 
ATOM      2  C   UNL     1       1.209  -4.521  -2.043  0.00  0.00    +0.303 C 
ATOM      3  O   UNL     1       0.263  -5.024  -1.468  0.00  0.00    -0.253 OA
ATOM      4  N   UNL     1       1.484  -4.866  -3.317  0.00  0.00    -0.295 N 
ATOM      5  H   UNL     1       2.239  -4.465  -3.776  0.00  0.00    +0.151 HD
ENDROOT
BRANCH   1   6
ATOM      6  C   UNL     1       1.684  -3.245  -0.023  0.00  0.00    +0.183 C 
BRANCH   6  11
ATOM      7  C   UNL     1      -0.018   1.503   0.010  0.00  0.00    +0.086 C 
ATOM      8  C   UNL     1       0.002  -0.004   0.002  0.00  0.00    +0.102 A 
ATOM      9  C   UNL     1      -1.078  -0.805   0.003  0.00  0.00    +0.045 A 
ATOM     10  C   UNL     1      -0.601  -2.136  -0.007  0.00  0.00    +0.046 A 
ATOM     11  C   UNL     1       0.742  -2.069  -0.013  0.00  0.00    +0.122 A 
ATOM     12  O   UNL     1       1.102  -0.775  -0.013  0.00  0.00    -0.463 OA
ENDBRANCH   6  11
ENDBRANCH   1   6
BRANCH   1  13
ATOM     13  C   UNL     1       3.123  -3.014  -2.100  0.00  0.00    +0.091 C 
BRANCH  13  14
ATOM     14  C   UNL     1       4.372  -3.867  -1.869  0.00  0.00    -0.060 C 
BRANCH  14  15
ATOM     15  N   UNL     1       5.515  -3.260  -2.564  0.00  0.00    +0.377 N 
ATOM     16  C   UNL     1       6.736  -4.011  -2.246  0.00  0.00    -0.097 C 
ATOM     17  C   UNL     1       5.282  -3.296  -4.014  0.00  0.00    -0.097 C 
ATOM     18  H   UNL     1       5.621  -2.303  -2.264  0.00  0.00    -0.083 HD
ENDBRANCH  14  15
ENDBRANCH  13  14
ENDBRANCH   1  13
BRANCH   4  19
ATOM     19  C   UNL     1       0.643  -5.846  -4.008  0.00  0.00    +0.141 C 
BRANCH  19  20
ATOM     20  C   UNL     1       1.160  -6.053  -5.409  0.00  0.00    -0.029 A 
ATOM     21  C   UNL     1       0.552  -5.411  -6.472  0.00  0.00    +0.005 A 
ATOM     22  C   UNL     1       1.027  -5.600  -7.756  0.00  0.00    +0.000 A 
ATOM     23  C   UNL     1       2.109  -6.432  -7.978  0.00  0.00    +0.000 A 
ATOM     24  C   UNL     1       2.717  -7.073  -6.915  0.00  0.00    +0.002 A 
ATOM     25  C   UNL     1       2.245  -6.880  -5.630  0.00  0.00    -0.059 A 
BRANCH  25  26
ATOM     26  C   UNL     1       2.912  -7.574  -4.470  0.00  0.00    -0.043 C 
BRANCH  26  27
ATOM     27  N   UNL     1       2.130  -8.761  -4.096  0.00  0.00    +0.382 N 
ATOM     28  C   UNL     1       2.218  -9.790  -5.163  0.00  0.00    -0.078 C 
ATOM     29  C   UNL     1       1.865 -11.103  -4.420  0.00  0.00    -0.020 C 
ATOM     30  C   UNL     1       2.535 -10.910  -3.041  0.00  0.00    -0.020 C 
ATOM     31  C   UNL     1       2.703  -9.387  -2.884  0.00  0.00    -0.078 C 
ATOM     32  H   UNL     1       1.167  -8.507  -3.934  0.00  0.00    -0.081 HD
ENDBRANCH  26  27
ENDBRANCH  25  26
ENDBRANCH  19  20
ENDBRANCH   4  19
TORSDOF 9
