REMARK  Name = ZINC28792565
REMARK  10 active torsions:
REMARK  status: ('A' for Active; 'I' for Inactive)
REMARK    1  A    between atoms: C_1  and  C_2
REMARK    2  A    between atoms: C_2  and  C_3
REMARK    3  A    between atoms: C_3  and  C_4
REMARK    4  A    between atoms: C_4  and  C_6
REMARK    5  A    between atoms: C_4  and  N_23
REMARK    6  A    between atoms: N_8  and  N_9
REMARK    7  A    between atoms: C_10  and  C_12
REMARK    8  A    between atoms: C_14  and  C_17
REMARK    9  A    between atoms: N_26  and  C_27
REMARK   10  A    between atoms: C_27  and  C_28
REMARK                            x       y       z     vdW  Elec       q    Type
REMARK                         _______ _______ _______ _____ _____    ______ ____
ROOT
ATOM      1  C   UNL     1      -2.820  -2.586   0.139  0.00  0.00    +0.249 C 
ATOM      2  O   UNL     1      -3.293  -3.285  -0.732  0.00  0.00    -0.272 OA
ATOM      3  N   UNL     1      -3.552  -2.276   1.227  0.00  0.00    -0.233 N 
ATOM      4  H   UNL     1      -3.174  -1.717   1.923  0.00  0.00    +0.173 HD
ENDROOT
BRANCH   3   5
ATOM      5  N   UNL     1      -4.861  -2.761   1.352  0.00  0.00    -0.229 N 
ATOM      6  C   UNL     1      -5.593  -2.452   2.440  0.00  0.00    +0.282 C 
ATOM      7  O   UNL     1      -5.119  -1.752   3.312  0.00  0.00    -0.267 OA
ATOM      8  H   UNL     1      -5.239  -3.321   0.655  0.00  0.00    +0.173 HD
BRANCH   6   9
ATOM      9  C   UNL     1      -6.979  -2.966   2.572  0.00  0.00    +0.170 A 
ATOM     10  C   UNL     1      -7.856  -2.717   3.650  0.00  0.00    +0.086 A 
ATOM     11  C   UNL     1      -9.025  -3.363   3.394  0.00  0.00    +0.168 A 
ATOM     12  O   UNL     1      -8.900  -3.994   2.212  0.00  0.00    -0.354 OA
ATOM     13  N   UNL     1      -7.605  -3.727   1.706  0.00  0.00    -0.073 NA
BRANCH  11  14
ATOM     14  C   UNL     1     -10.222  -3.372   4.262  0.00  0.00    +0.020 A 
ATOM     15  C   UNL     1     -10.219  -2.667   5.466  0.00  0.00    +0.011 A 
ATOM     16  C   UNL     1     -11.340  -2.678   6.271  0.00  0.00    +0.001 A 
ATOM     17  C   UNL     1     -12.464  -3.387   5.887  0.00  0.00    +0.000 A 
ATOM     18  C   UNL     1     -12.473  -4.088   4.694  0.00  0.00    +0.001 A 
ATOM     19  C   UNL     1     -11.361  -4.080   3.877  0.00  0.00    +0.011 A 
ENDBRANCH  11  14
ENDBRANCH   6   9
ENDBRANCH   3   5
BRANCH   1  20
ATOM     20  C   UNL     1      -1.413  -2.063   0.004  0.00  0.00    +0.162 C 
BRANCH  20  21
ATOM     21  N   UNL     1      -0.834  -2.537  -1.256  0.00  0.00    -0.288 N 
ATOM     22  C   UNL     1       0.503  -2.647  -1.384  0.00  0.00    +0.300 C 
ATOM     23  O   UNL     1       1.229  -2.353  -0.454  0.00  0.00    -0.253 OA
ATOM     24  N   UNL     1       1.035  -3.083  -2.543  0.00  0.00    -0.295 N 
ATOM     25  H   UNL     1      -1.414  -2.772  -1.997  0.00  0.00    +0.151 HD
ATOM     26  H   UNL     1       0.456  -3.317  -3.285  0.00  0.00    +0.151 HD
BRANCH  24  27
ATOM     27  C   UNL     1       2.488  -3.202  -2.683  0.00  0.00    +0.141 C 
BRANCH  27  28
ATOM     28  C   UNL     1       2.821  -3.707  -4.064  0.00  0.00    -0.030 A 
ATOM     29  C   UNL     1       2.913  -5.066  -4.298  0.00  0.00    +0.008 A 
ATOM     30  C   UNL     1       3.217  -5.530  -5.564  0.00  0.00    +0.038 A 
ATOM     31  C   UNL     1       3.429  -4.632  -6.597  0.00  0.00    +0.123 A 
ATOM     32  C   UNL     1       3.337  -3.271  -6.361  0.00  0.00    +0.038 A 
ATOM     33  C   UNL     1       3.027  -2.810  -5.095  0.00  0.00    +0.008 A 
ATOM     34  F   UNL     1       3.727  -5.085  -7.835  0.00  0.00    -0.205 F 
ENDBRANCH  27  28
ENDBRANCH  24  27
ENDBRANCH  20  21
BRANCH  20  35
ATOM     35  C   UNL     1      -1.433  -0.534   0.013  0.00  0.00    +0.031 C 
BRANCH  35  37
ATOM     36  C   UNL     1      -0.019   1.526   0.010  0.00  0.00    +0.004 C 
ATOM     37  C   UNL     1       0.002  -0.004   0.002  0.00  0.00    -0.001 C 
ENDBRANCH  35  37
ENDBRANCH  20  35
ENDBRANCH   1  20
TORSDOF 9
