REMARK  Name = ZINC25723862
REMARK  6 active torsions:
REMARK  status: ('A' for Active; 'I' for Inactive)
REMARK    1  A    between atoms: C_1  and  C_2
REMARK    2  A    between atoms: C_2  and  C_4
REMARK    3  A    between atoms: C_2  and  S_13
REMARK    4  A    between atoms: N_9  and  C_10
REMARK    5  A    between atoms: C_10  and  C_11
REMARK    6  A    between atoms: S_13  and  C_14
REMARK                            x       y       z     vdW  Elec       q    Type
REMARK                         _______ _______ _______ _____ _____    ______ ____
ROOT
ATOM      1  C   UNL     1       6.646   3.380   1.266  0.00  0.00    +0.029 C 
ATOM      2  C   UNL     1       6.284   2.674  -0.042  0.00  0.00    +0.137 C 
ENDROOT
BRANCH   2   3
ATOM      3  C   UNL     1       7.106   1.418  -0.179  0.00  0.00    +0.233 C 
ATOM      4  O   UNL     1       6.622   0.343   0.099  0.00  0.00    -0.274 OA
ATOM      5  N   UNL     1       8.380   1.492  -0.612  0.00  0.00    -0.239 N 
ATOM      6  C   UNL     1       9.116   0.369  -0.734  0.00  0.00    +0.306 C 
ATOM      7  O   UNL     1       8.630  -0.709  -0.455  0.00  0.00    -0.252 OA
ATOM      8  N   UNL     1      10.391   0.443  -1.167  0.00  0.00    -0.296 N 
ATOM      9  H   UNL     1       8.820   2.468  -0.864  0.00  0.00    +0.159 HD
ATOM     10  H   UNL     1      10.830   1.419  -1.420  0.00  0.00    +0.151 HD
BRANCH   8  11
ATOM     11  C   UNL     1      11.190  -0.777  -1.300  0.00  0.00    +0.132 C 
BRANCH  11  12
ATOM     12  C   UNL     1      12.568  -0.423  -1.798  0.00  0.00    -0.016 C 
ATOM     13  C   UNL     1      13.625  -0.803  -1.124  0.00  0.00    +0.005 C 
ENDBRANCH  11  12
ENDBRANCH   8  11
ENDBRANCH   2   3
BRANCH   2  14
ATOM     14  S   UNL     1       4.521   2.243  -0.028  0.00  0.00    -0.073 S 
BRANCH  14  15
ATOM     15  C   UNL     1       3.702   3.803  -0.013  0.00  0.00    +0.198 A 
ATOM     16  N   UNL     1       4.288   4.972  -0.012  0.00  0.00    -0.121 NA
ATOM     17  N   UNL     1       3.291   5.957   0.003  0.00  0.00    -0.121 NA
ATOM     18  C   UNL     1       2.142   5.351   0.010  0.00  0.00    +0.202 A 
ATOM     19  N   UNL     1       2.329   3.994   0.001  0.00  0.00    -0.264 N 
ATOM     20  C   UNL     1       1.192   3.171   0.008  0.00  0.00    +0.065 A 
ATOM     21  C   UNL     1       1.176   1.766   0.000  0.00  0.00    +0.027 A 
ATOM     22  C   UNL     1      -0.013   1.076   0.008  0.00  0.00    +0.002 A 
ATOM     23  C   UNL     1      -1.228   1.739   0.017  0.00  0.00    +0.001 A 
ATOM     24  C   UNL     1      -1.242   3.122   0.030  0.00  0.00    +0.017 A 
ATOM     25  C   UNL     1      -0.051   3.812   0.023  0.00  0.00    +0.040 A 
ATOM     26  S   UNL     1       0.374   5.536   0.028  0.00  0.00    -0.048 S 
ENDBRANCH  14  15
ENDBRANCH   2  14
TORSDOF 5
