REMARK  Name = ZINC12859069
REMARK  12 active torsions:
REMARK  status: ('A' for Active; 'I' for Inactive)
REMARK    1  A    between atoms: C_1  and  O_2
REMARK    2  A    between atoms: O_2  and  C_3
REMARK    3  A    between atoms: C_3  and  C_4
REMARK    4  A    between atoms: C_4  and  N_5
REMARK    5  A    between atoms: C_6  and  N_35
REMARK    6  A    between atoms: C_7  and  N_14
REMARK    7  A    between atoms: N_14  and  C_15
REMARK    8  A    between atoms: C_15  and  C_16
REMARK    9  A    between atoms: C_22  and  C_24
REMARK   10  A    between atoms: C_28  and  C_30
REMARK   11  A    between atoms: C_30  and  S_31
REMARK   12  A    between atoms: S_31  and  C_34
REMARK                            x       y       z     vdW  Elec       q    Type
REMARK                         _______ _______ _______ _____ _____    ______ ____
ROOT
ATOM      1  N   UNL     1      -4.725   2.449  -2.449  0.00  0.00    -0.256 N 
ATOM      2  C   UNL     1      -4.454   3.427  -1.562  0.00  0.00    +0.251 C 
ATOM      3  O   UNL     1      -4.733   4.581  -1.826  0.00  0.00    -0.270 OA
ENDROOT
BRANCH   1   6
ATOM      4  N   UNL     1      -3.488  -1.010  -2.498  0.00  0.00    -0.278 N 
ATOM      5  C   UNL     1      -3.677   0.303  -2.862  0.00  0.00    +0.127 A 
ATOM      6  C   UNL     1      -4.506   1.101  -2.099  0.00  0.00    +0.140 A 
ATOM      7  C   UNL     1      -5.127   0.546  -0.964  0.00  0.00    +0.277 A 
ATOM      8  O   UNL     1      -5.861   1.229  -0.270  0.00  0.00    -0.266 OA
ATOM      9  N   UNL     1      -4.904  -0.745  -0.649  0.00  0.00    -0.273 N 
ATOM     10  H   UNL     1      -5.344  -1.141   0.157  0.00  0.00    +0.173 HD
ATOM     11  C   UNL     1      -4.096  -1.508  -1.406  0.00  0.00    +0.331 A 
ATOM     12  O   UNL     1      -3.912  -2.670  -1.099  0.00  0.00    -0.246 OA
BRANCH   5  13
ATOM     13  N   UNL     1      -3.052   0.814  -3.974  0.00  0.00    -0.343 N 
ATOM     14  H   UNL     1      -2.562   0.224  -4.568  0.00  0.00    +0.144 HD
ATOM     15  H   UNL     1      -3.100   1.764  -4.164  0.00  0.00    +0.144 HD
ENDBRANCH   5  13
BRANCH   4  16
ATOM     16  C   UNL     1      -2.614  -1.869  -3.301  0.00  0.00    +0.156 C 
BRANCH  16  17
ATOM     17  C   UNL     1      -3.438  -2.561  -4.388  0.00  0.00    +0.181 C 
BRANCH  17  19
ATOM     18  C   UNL     1      -4.733  -2.126  -6.358  0.00  0.00    +0.194 C 
ATOM     19  O   UNL     1      -3.945  -1.582  -5.297  0.00  0.00    -0.381 OA
ENDBRANCH  17  19
ENDBRANCH  16  17
ENDBRANCH   4  16
ENDBRANCH   1   6
BRANCH   2  20
ATOM     20  C   UNL     1      -3.820   3.098  -0.269  0.00  0.00    +0.038 A 
ATOM     21  C   UNL     1      -3.098   1.911  -0.124  0.00  0.00    +0.013 A 
ATOM     22  C   UNL     1      -2.504   1.612   1.085  0.00  0.00    +0.001 A 
ATOM     23  C   UNL     1      -2.631   2.479   2.155  0.00  0.00    +0.005 A 
ATOM     24  C   UNL     1      -3.349   3.654   2.020  0.00  0.00    -0.026 A 
ATOM     25  C   UNL     1      -3.944   3.968   0.816  0.00  0.00    +0.018 A 
BRANCH  24  26
ATOM     26  C   UNL     1      -3.482   4.593   3.192  0.00  0.00    +0.200 C 
BRANCH  26  27
ATOM     27  S   UNL     1      -4.958   4.156   4.152  0.00  0.00    -0.030 S 
ATOM     28  O   UNL     1      -6.104   4.389   3.345  0.00  0.00    -0.174 OA
ATOM     29  O   UNL     1      -4.762   2.867   4.717  0.00  0.00    -0.174 OA
ATOM     30  C   UNL     1      -4.941   5.379   5.491  0.00  0.00    +0.194 C 
ENDBRANCH  26  27
ENDBRANCH  24  26
ENDBRANCH   2  20
BRANCH   1  31
ATOM     31  C   UNL     1      -5.246   2.787  -3.776  0.00  0.00    +0.149 C 
BRANCH  31  32
ATOM     32  C   UNL     1      -6.744   2.928  -3.706  0.00  0.00    -0.030 A 
ATOM     33  C   UNL     1      -7.550   1.810  -3.814  0.00  0.00    +0.005 A 
ATOM     34  C   UNL     1      -8.924   1.938  -3.745  0.00  0.00    +0.000 A 
ATOM     35  C   UNL     1      -9.494   3.187  -3.579  0.00  0.00    +0.000 A 
ATOM     36  C   UNL     1      -8.689   4.306  -3.477  0.00  0.00    +0.000 A 
ATOM     37  C   UNL     1      -7.314   4.176  -3.541  0.00  0.00    +0.005 A 
ENDBRANCH  31  32
ENDBRANCH   1  31
TORSDOF 10
