REMARK  Name = ZINC36151939
REMARK  6 active torsions:
REMARK  status: ('A' for Active; 'I' for Inactive)
REMARK    1  A    between atoms: C_1  and  C_2
REMARK    2  A    between atoms: C_2  and  N_3
REMARK    3  A    between atoms: C_15  and  C_17
REMARK    4  A    between atoms: C_15  and  C_18
REMARK    5  A    between atoms: N_21  and  C_22
REMARK    6  A    between atoms: C_25  and  C_28
REMARK                            x       y       z     vdW  Elec       q    Type
REMARK                         _______ _______ _______ _____ _____    ______ ____
ROOT
ATOM      1  N   UNL     1      -1.375  -0.510   0.023  0.00  0.00    -0.269 N 
ATOM      2  C   UNL     1      -2.103  -0.789   1.182  0.00  0.00    +0.043 A 
ATOM      3  C   UNL     1      -1.754  -0.671   2.525  0.00  0.00    +0.024 A 
ATOM      4  C   UNL     1      -2.658  -1.013   3.510  0.00  0.00    +0.002 A 
ATOM      5  C   UNL     1      -3.917  -1.476   3.172  0.00  0.00    +0.000 A 
ATOM      6  C   UNL     1      -4.271  -1.597   1.840  0.00  0.00    +0.009 A 
ATOM      7  C   UNL     1      -3.373  -1.257   0.853  0.00  0.00    +0.017 A 
ATOM      8  C   UNL     1      -3.424  -1.267  -0.644  0.00  0.00    +0.190 C 
ATOM      9  C   UNL     1      -2.086  -0.759  -1.096  0.00  0.00    +0.259 C 
ATOM     10  O   UNL     1      -1.716  -0.606  -2.240  0.00  0.00    -0.272 OA
ATOM     11  N   UNL     1      -4.535  -0.486  -1.184  0.00  0.00    -0.257 N 
ATOM     12  C   UNL     1      -5.563  -1.250  -1.895  0.00  0.00    +0.128 C 
ATOM     13  C   UNL     1      -4.944  -2.502  -2.587  0.00  0.00    +0.030 C 
ATOM     14  S   UNL     1      -3.724  -2.964  -1.274  0.00  0.00    -0.113 S 
ATOM     15  C   UNL     1      -4.248  -2.134  -3.898  0.00  0.00    +0.024 C 
ATOM     16  C   UNL     1      -5.987  -3.602  -2.798  0.00  0.00    +0.024 C 
ATOM     17  C   UNL     1      -4.610   0.852  -1.037  0.00  0.00    +0.308 C 
ATOM     18  O   UNL     1      -3.735   1.447  -0.439  0.00  0.00    -0.252 OA
ATOM     19  N   UNL     1      -5.655   1.529  -1.552  0.00  0.00    -0.269 N 
ATOM     20  H   UNL     1      -6.318   1.065  -2.086  0.00  0.00    +0.156 HD
ENDROOT
BRANCH  19  21
ATOM     21  C   UNL     1      -5.782   2.903  -1.318  0.00  0.00    +0.035 A 
ATOM     22  C   UNL     1      -7.041   3.467  -1.154  0.00  0.00    +0.023 A 
ATOM     23  C   UNL     1      -7.164   4.823  -0.922  0.00  0.00    +0.005 A 
ATOM     24  C   UNL     1      -6.035   5.619  -0.852  0.00  0.00    -0.050 A 
ATOM     25  C   UNL     1      -4.781   5.060  -1.015  0.00  0.00    +0.005 A 
ATOM     26  C   UNL     1      -4.651   3.704  -1.242  0.00  0.00    +0.023 A 
ATOM     27  C   UNL     1      -6.173   7.098  -0.599  0.00  0.00    +0.044 C 
ENDBRANCH  19  21
BRANCH   1  29
ATOM     28  C   UNL     1      -0.027   1.530   0.039  0.00  0.00    +0.025 C 
ATOM     29  C   UNL     1      -0.002   0.001   0.022  0.00  0.00    +0.110 C 
ENDBRANCH   1  29
TORSDOF 2
