REMARK  Name = ZINC37076763
REMARK  6 active torsions:
REMARK  status: ('A' for Active; 'I' for Inactive)
REMARK    1  A    between atoms: C_3  and  O_21
REMARK    2  A    between atoms: C_4  and  O_20
REMARK    3  A    between atoms: C_6  and  C_7
REMARK    4  A    between atoms: C_7  and  N_8
REMARK    5  A    between atoms: N_8  and  C_9
REMARK    6  A    between atoms: C_11  and  N_17
REMARK                            x       y       z     vdW  Elec       q    Type
REMARK                         _______ _______ _______ _____ _____    ______ ____
ROOT
ATOM      1  N   UNL     1      -1.727  -1.016  -1.368  0.00  0.00    -0.337 N 
ATOM      2  H   UNL     1      -1.192  -0.690  -2.109  0.00  0.00    +0.146 HD
ENDROOT
BRANCH   1   3
ATOM      3  C   UNL     1      -2.912  -1.717  -1.617  0.00  0.00    +0.065 A 
ATOM      4  C   UNL     1      -3.682  -2.179  -0.558  0.00  0.00    +0.061 A 
ATOM      5  C   UNL     1      -4.852  -2.870  -0.805  0.00  0.00    +0.163 A 
ATOM      6  C   UNL     1      -5.259  -3.104  -2.107  0.00  0.00    +0.156 A 
ATOM      7  C   UNL     1      -4.494  -2.645  -3.167  0.00  0.00    +0.081 A 
ATOM      8  C   UNL     1      -3.324  -1.947  -2.925  0.00  0.00    +0.147 A 
ATOM      9  F   UNL     1      -2.581  -1.495  -3.958  0.00  0.00    -0.203 F 
ATOM     10  F   UNL     1      -6.403  -3.780  -2.346  0.00  0.00    -0.203 F 
BRANCH   5  11
ATOM     11  N   UNL     1      -5.672  -3.363   0.325  0.00  0.00    +0.059 N 
ATOM     12  O   UNL     1      -5.317  -3.160   1.463  0.00  0.00    -0.126 OA
ATOM     13  O   UNL     1      -6.696  -3.968   0.110  0.00  0.00    -0.126 OA
ENDBRANCH   5  11
ENDBRANCH   1   3
BRANCH   1  14
ATOM     14  C   UNL     1      -1.294  -0.774   0.010  0.00  0.00    +0.137 C 
BRANCH  14  20
ATOM     15  C   UNL     1      -0.017   1.378   0.010  0.00  0.00    +0.009 A 
ATOM     16  C   UNL     1       1.170   2.089   0.002  0.00  0.00    +0.049 A 
ATOM     17  C   UNL     1       2.380   1.415  -0.013  0.00  0.00    +0.158 A 
ATOM     18  C   UNL     1       2.399   0.024  -0.021  0.00  0.00    +0.159 A 
ATOM     19  C   UNL     1       1.207  -0.682  -0.013  0.00  0.00    +0.054 A 
ATOM     20  C   UNL     1       0.002  -0.004   0.002  0.00  0.00    -0.027 A 
BRANCH  18  21
ATOM     21  O   UNL     1       3.585  -0.642  -0.036  0.00  0.00    -0.503 OA
ATOM     22  H   UNL     1       3.937  -0.839   0.843  0.00  0.00    +0.292 HD
ENDBRANCH  18  21
BRANCH  17  23
ATOM     23  O   UNL     1       3.548   2.113  -0.021  0.00  0.00    -0.503 OA
ATOM     24  H   UNL     1       3.894   2.310   0.860  0.00  0.00    +0.292 HD
ENDBRANCH  17  23
ENDBRANCH  14  20
ENDBRANCH   1  14
TORSDOF 6
