REMARK  Name = ZINC51118047
REMARK  5 active torsions:
REMARK  status: ('A' for Active; 'I' for Inactive)
REMARK    1  A    between atoms: C_1  and  C_2
REMARK    2  A    between atoms: C_2  and  C_4
REMARK    3  A    between atoms: C_2  and  N_11
REMARK    4  A    between atoms: C_12  and  C_14
REMARK    5  A    between atoms: N_20  and  N_21
REMARK                            x       y       z     vdW  Elec       q    Type
REMARK                         _______ _______ _______ _____ _____    ______ ____
ROOT
ATOM      1  N   UNL     1      -1.367  -0.520  -0.079  0.00  0.00    -0.305 N 
ATOM      2  C   UNL     1      -1.943  -0.717  -1.281  0.00  0.00    +0.245 C 
ATOM      3  O   UNL     1      -1.327  -0.466  -2.298  0.00  0.00    -0.270 OA
ATOM      4  H   UNL     1      -1.858  -0.720   0.733  0.00  0.00    +0.150 HD
ENDROOT
BRANCH   2   5
ATOM      5  C   UNL     1      -3.327  -1.238  -1.363  0.00  0.00    +0.041 A 
ATOM      6  C   UNL     1      -4.056  -1.528  -0.202  0.00  0.00    +0.033 A 
ATOM      7  C   UNL     1      -5.342  -2.013  -0.319  0.00  0.00    +0.113 A 
ATOM      8  N   UNL     1      -5.891  -2.205  -1.504  0.00  0.00    -0.239 NA
ATOM      9  C   UNL     1      -5.241  -1.945  -2.627  0.00  0.00    +0.133 A 
ATOM     10  C   UNL     1      -3.942  -1.449  -2.597  0.00  0.00    +0.057 A 
ATOM     11  N   UNL     1      -5.865  -2.166  -3.849  0.00  0.00    -0.268 N 
ATOM     12  H   UNL     1      -5.394  -1.978  -4.676  0.00  0.00    +0.167 HD
BRANCH  11  13
ATOM     13  N   UNL     1      -7.142  -2.649  -3.886  0.00  0.00    -0.255 NA
ATOM     14  H   UNL     1      -7.768  -2.057  -3.361  0.00  0.00    +0.140 HD
ATOM     15  H   UNL     1      -7.460  -2.757  -4.838  0.00  0.00    +0.140 HD
ENDBRANCH  11  13
ENDBRANCH   2   5
BRANCH   1  17
ATOM     16  C   UNL     1      -0.028   1.526  -0.017  0.00  0.00    +0.033 C 
ATOM     17  C   UNL     1       0.002  -0.004   0.002  0.00  0.00    +0.102 C 
BRANCH  17  18
ATOM     18  C   UNL     1       0.643  -0.479   1.281  0.00  0.00    -0.009 A 
ATOM     19  C   UNL     1      -0.141  -0.765   2.382  0.00  0.00    +0.007 A 
ATOM     20  C   UNL     1       0.447  -1.201   3.555  0.00  0.00    +0.000 A 
ATOM     21  C   UNL     1       1.820  -1.349   3.627  0.00  0.00    +0.001 A 
ATOM     22  C   UNL     1       2.605  -1.063   2.526  0.00  0.00    +0.020 A 
ATOM     23  C   UNL     1       2.016  -0.633   1.350  0.00  0.00    +0.046 A 
ATOM     24 CL   UNL     1       3.001  -0.279  -0.035  0.00  0.00    -0.083 Cl
ENDBRANCH  17  18
ENDBRANCH   1  17
TORSDOF 4
