REMARK  Name = ZINC39465868
REMARK  7 active torsions:
REMARK  status: ('A' for Active; 'I' for Inactive)
REMARK    1  A    between atoms: C_1  and  S_2
REMARK    2  A    between atoms: S_2  and  C_3
REMARK    3  A    between atoms: C_8  and  C_9
REMARK    4  A    between atoms: C_14  and  O_15
REMARK    5  A    between atoms: P_23  and  S_26
REMARK    6  A    between atoms: S_26  and  O_29
REMARK    7  A    between atoms: O_29  and  C_30
REMARK                            x       y       z     vdW  Elec       q    Type
REMARK                         _______ _______ _______ _____ _____    ______ ____
ROOT
ATOM      1  C   UNL     1       0.848  -0.411  -1.489  0.00  0.00    +0.016 A 
ATOM      2  C   UNL     1       1.315   0.594  -2.322  0.00  0.00    +0.021 A 
ATOM      3  C   UNL     1       1.982   0.281  -3.497  0.00  0.00    -0.022 A 
ATOM      4  C   UNL     1       2.185  -1.040  -3.843  0.00  0.00    -0.041 A 
ATOM      5  C   UNL     1       1.725  -2.054  -3.019  0.00  0.00    +0.013 A 
ATOM      6  C   UNL     1       1.059  -1.751  -1.837  0.00  0.00    -0.001 A 
ATOM      7  C   UNL     1       2.903  -1.419  -5.113  0.00  0.00    +0.052 C 
ATOM      8  C   UNL     1       3.712  -0.226  -5.622  0.00  0.00    +0.108 C 
ATOM      9  N   UNL     1       2.829   0.947  -5.698  0.00  0.00    -0.224 NA
ATOM     10  C   UNL     1       2.466   1.417  -4.361  0.00  0.00    +0.129 C 
ATOM     11  C   UNL     1       1.375   2.490  -4.432  0.00  0.00    +0.195 C 
ATOM     12  O   UNL     1       1.888   3.622  -5.161  0.00  0.00    -0.296 OA
ATOM     13  P   UNL     1       2.597   3.356  -6.600  0.00  0.00    +0.458 P 
ATOM     14  O   UNL     1       3.519   4.465  -6.930  0.00  0.00    -0.243 OA
ATOM     15  N   UNL     1       3.439   1.944  -6.428  0.00  0.00    -0.158 NA
ATOM     16  H   UNL     1       4.318   1.823  -6.819  0.00  0.00    +0.152 HD
ENDROOT
BRANCH   6  17
ATOM     17  C   UNL     1       0.571  -2.838  -0.954  0.00  0.00    +0.025 A 
ATOM     18  C   UNL     1       1.477  -3.684  -0.319  0.00  0.00    +0.012 A 
ATOM     19  C   UNL     1       1.018  -4.694   0.502  0.00  0.00    +0.001 A 
ATOM     20  C   UNL     1      -0.341  -4.869   0.697  0.00  0.00    +0.004 A 
ATOM     21  C   UNL     1      -1.249  -4.036   0.071  0.00  0.00    +0.046 A 
ATOM     22  C   UNL     1      -0.801  -3.015  -0.751  0.00  0.00    +0.125 A 
BRANCH  22  23
ATOM     23  O   UNL     1      -1.693  -2.191  -1.362  0.00  0.00    -0.506 OA
ATOM     24  H   UNL     1      -1.983  -2.501  -2.231  0.00  0.00    +0.292 HD
ENDBRANCH  22  23
ENDBRANCH   6  17
BRANCH  13  25
ATOM     25  S   UNL     1       1.126   3.154  -8.114  0.00  0.00    +0.211 S 
ATOM     26  O   UNL     1       1.823   3.070  -9.349  0.00  0.00    -0.126 OA
ATOM     27  O   UNL     1       0.228   2.144  -7.676  0.00  0.00    -0.126 OA
BRANCH  25  28
ATOM     28  O   UNL     1       0.335   4.454  -8.149  0.00  0.00    -0.339 OA
BRANCH  28  29
ATOM     29  C   UNL     1       0.998   5.489  -8.729  0.00  0.00    +0.157 A 
ATOM     30  C   UNL     1       1.798   6.321  -7.960  0.00  0.00    +0.048 A 
ATOM     31  C   UNL     1       2.471   7.372  -8.552  0.00  0.00    +0.004 A 
ATOM     32  C   UNL     1       2.348   7.595  -9.911  0.00  0.00    +0.000 A 
ATOM     33  C   UNL     1       1.550   6.767 -10.681  0.00  0.00    +0.004 A 
ATOM     34  C   UNL     1       0.880   5.712 -10.094  0.00  0.00    +0.048 A 
ENDBRANCH  28  29
ENDBRANCH  25  28
ENDBRANCH  13  25
BRANCH   1  36
ATOM     35  C   UNL     1      -0.022   1.810   0.012  0.00  0.00    +0.090 C 
ATOM     36  S   UNL     1       0.002  -0.004   0.002  0.00  0.00    -0.128 S 
ENDBRANCH   1  36
TORSDOF 6
