REMARK  Name = ZINC33771843
REMARK  9 active torsions:
REMARK  status: ('A' for Active; 'I' for Inactive)
REMARK    1  A    between atoms: C_1  and  O_2
REMARK    2  A    between atoms: O_2  and  C_3
REMARK    3  A    between atoms: C_5  and  C_10
REMARK    4  A    between atoms: C_8  and  O_9
REMARK    5  A    between atoms: N_18  and  C_21
REMARK    6  A    between atoms: C_27  and  C_29
REMARK    7  A    between atoms: C_27  and  C_37
REMARK    8  A    between atoms: C_29  and  C_30
REMARK    9  A    between atoms: C_33  and  O_36
REMARK                            x       y       z     vdW  Elec       q    Type
REMARK                         _______ _______ _______ _____ _____    ______ ____
ROOT
ATOM      1  C   UNL     1       0.399   6.870  -0.891  0.00  0.00    -0.027 C 
ATOM      2  C   UNL     1       1.301   5.660  -1.058  0.00  0.00    +0.077 C 
ATOM      3  C   UNL     1       1.539   5.323   0.460  0.00  0.00    +0.086 C 
ATOM      4  C   UNL     1       2.013   3.968   0.407  0.00  0.00    +0.225 C 
ATOM      5  O   UNL     1       2.804   3.436   1.156  0.00  0.00    -0.275 OA
ATOM      6  N   UNL     1       1.380   3.404  -0.673  0.00  0.00    -0.239 N 
ATOM      7  C   UNL     1       0.754   4.328  -1.461  0.00  0.00    +0.225 C 
ATOM      8  O   UNL     1      -0.078   4.112  -2.316  0.00  0.00    -0.275 OA
ATOM      9  C   UNL     1       1.845   6.638   1.039  0.00  0.00    +0.052 C 
ATOM     10  N   UNL     1       0.836   7.532   0.375  0.00  0.00    +0.396 N 
ATOM     11  H   UNL     1       1.286   8.508   0.142  0.00  0.00    -0.083 HD
ATOM     12  H   UNL     1      -0.035   7.677   1.032  0.00  0.00    -0.083 HD
ENDROOT
BRANCH   1  15
ATOM     13  C   UNL     1      -2.882   5.676   0.552  0.00  0.00    +0.161 A 
ATOM     14  C   UNL     1      -1.559   6.077   0.449  0.00  0.00    +0.051 A 
ATOM     15  C   UNL     1      -1.039   6.435  -0.781  0.00  0.00    -0.057 A 
ATOM     16  C   UNL     1      -1.837   6.400  -1.909  0.00  0.00    +0.006 A 
ATOM     17  C   UNL     1      -3.156   5.996  -1.815  0.00  0.00    +0.049 A 
ATOM     18  C   UNL     1      -3.684   5.636  -0.585  0.00  0.00    +0.158 A 
BRANCH  13  20
ATOM     19  C   UNL     1      -2.514   5.389   2.884  0.00  0.00    +0.277 C 
ATOM     20  O   UNL     1      -3.395   5.323   1.761  0.00  0.00    -0.491 OA
ENDBRANCH  13  20
BRANCH  18  21
ATOM     21  O   UNL     1      -4.982   5.243  -0.489  0.00  0.00    -0.503 OA
ATOM     22  H   UNL     1      -5.615   5.212  -1.389  0.00  0.00    +0.292 HD
ENDBRANCH  18  21
ENDBRANCH   1  15
BRANCH   6  23
ATOM     23  C   UNL     1       1.372   1.965  -0.948  0.00  0.00    +0.084 C 
ATOM     24  C   UNL     1      -0.071   1.455  -0.953  0.00  0.00    +0.023 C 
ATOM     25  C   UNL     1      -0.080  -0.048  -1.240  0.00  0.00    +0.002 C 
ATOM     26  C   UNL     1       0.558  -0.310  -2.606  0.00  0.00    +0.000 C 
ATOM     27  C   UNL     1       2.001   0.200  -2.601  0.00  0.00    +0.002 C 
ATOM     28  C   UNL     1       2.010   1.703  -2.314  0.00  0.00    +0.023 C 
ENDBRANCH   6  23
BRANCH   9  29
ATOM     29  C   UNL     1       3.248   7.065   0.691  0.00  0.00    +0.347 C 
ATOM     30  O   UNL     1       4.110   6.234   0.528  0.00  0.00    -0.248 OA
ATOM     31  O   UNL     1       3.540   8.369   0.563  0.00  0.00    -0.248 OA
ENDBRANCH   9  29
BRANCH   9  32
ATOM     32  C   UNL     1       1.645   6.624   2.555  0.00  0.00    +0.035 C 
BRANCH  32  33
ATOM     33  C   UNL     1       1.717   8.033   3.085  0.00  0.00    -0.048 A 
ATOM     34  C   UNL     1       2.931   8.557   3.488  0.00  0.00    +0.007 A 
ATOM     35  C   UNL     1       3.001   9.850   3.969  0.00  0.00    +0.045 A 
ATOM     36  C   UNL     1       1.850  10.619   4.057  0.00  0.00    +0.117 A 
ATOM     37  C   UNL     1       0.632  10.089   3.657  0.00  0.00    +0.045 A 
ATOM     38  C   UNL     1       0.568   8.797   3.172  0.00  0.00    +0.007 A 
BRANCH  36  39
ATOM     39  O   UNL     1       1.915  11.890   4.536  0.00  0.00    -0.507 OA
ATOM     40  H   UNL     1       1.002  12.498   4.606  0.00  0.00    +0.292 HD
ENDBRANCH  36  39
ENDBRANCH  32  33
ENDBRANCH   9  32
TORSDOF 8
