REMARK  Name = ZINC66452172
REMARK  5 active torsions:
REMARK  status: ('A' for Active; 'I' for Inactive)
REMARK    1  A    between atoms: C_7  and  S_14
REMARK    2  A    between atoms: C_9  and  C_11
REMARK    3  A    between atoms: S_14  and  C_15
REMARK    4  A    between atoms: C_19  and  C_21
REMARK    5  A    between atoms: C_21  and  C_22
REMARK                            x       y       z     vdW  Elec       q    Type
REMARK                         _______ _______ _______ _____ _____    ______ ____
ROOT
ATOM      1  C   UNL     1      -0.016   1.360   0.009  0.00  0.00    +0.001 A 
ATOM      2  C   UNL     1       1.168   2.091   0.002  0.00  0.00    +0.002 A 
ATOM      3  C   UNL     1       2.380   1.466  -0.013  0.00  0.00    +0.028 A 
ATOM      4  C   UNL     1       2.436   0.066  -0.021  0.00  0.00    +0.076 A 
ATOM      5  C   UNL     1       1.229  -0.676  -0.013  0.00  0.00    +0.033 A 
ATOM      6  C   UNL     1       0.002  -0.004   0.002  0.00  0.00    +0.012 A 
ATOM      7  C   UNL     1       1.313  -2.090  -0.021  0.00  0.00    +0.116 A 
ATOM      8  N   UNL     1       2.518  -2.646  -0.035  0.00  0.00    -0.219 NA
ATOM      9  C   UNL     1       3.618  -1.911  -0.042  0.00  0.00    +0.197 A 
ATOM     10  N   UNL     1       3.600  -0.599  -0.035  0.00  0.00    -0.227 NA
ENDROOT
BRANCH   9  11
ATOM     11  C   UNL     1       4.952  -2.613  -0.058  0.00  0.00    +0.408 C 
ATOM     12  F   UNL     1       4.826  -3.837  -0.722  0.00  0.00    -0.201 F 
ATOM     13  F   UNL     1       5.890  -1.816  -0.722  0.00  0.00    -0.201 F 
ENDBRANCH   9  11
BRANCH   7  14
ATOM     14  S   UNL     1      -0.142  -3.083  -0.012  0.00  0.00    -0.030 S 
BRANCH  14  15
ATOM     15  C   UNL     1       0.469  -4.736  -0.026  0.00  0.00    +0.190 A 
ATOM     16  N   UNL     1      -0.278  -5.860  -0.030  0.00  0.00    -0.253 N 
ATOM     17  H   UNL     1      -1.246  -5.915  -0.026  0.00  0.00    +0.191 HD
ATOM     18  N   UNL     1       0.626  -6.935  -0.042  0.00  0.00    -0.156 NA
ATOM     19  C   UNL     1       1.827  -6.423  -0.045  0.00  0.00    +0.157 A 
ATOM     20  N   UNL     1       1.736  -5.093  -0.041  0.00  0.00    -0.205 NA
BRANCH  19  21
ATOM     21  C   UNL     1       3.113  -7.210  -0.058  0.00  0.00    +0.120 C 
BRANCH  21  22
ATOM     22  C   UNL     1       3.534  -7.462  -1.483  0.00  0.00    -0.003 A 
ATOM     23  C   UNL     1       4.327  -6.710  -2.284  0.00  0.00    +0.011 A 
ATOM     24  C   UNL     1       4.581  -7.142  -3.572  0.00  0.00    +0.008 A 
ATOM     25  C   UNL     1       4.030  -8.306  -3.996  0.00  0.00    +0.045 A 
ATOM     26  S   UNL     1       3.124  -8.833  -2.550  0.00  0.00    -0.101 S 
ENDBRANCH  21  22
ENDBRANCH  19  21
ENDBRANCH  14  15
ENDBRANCH   7  14
TORSDOF 5
