REMARK  Name = ZINC51714038
REMARK  4 active torsions:
REMARK  status: ('A' for Active; 'I' for Inactive)
REMARK    1  A    between atoms: C_4  and  C_7
REMARK    2  A    between atoms: C_7  and  N_8
REMARK    3  A    between atoms: C_11  and  N_14
REMARK    4  A    between atoms: C_21  and  C_24
REMARK                            x       y       z     vdW  Elec       q    Type
REMARK                         _______ _______ _______ _____ _____    ______ ____
ROOT
ATOM      1  N   UNL     1       4.504  -5.860  -2.481  0.00  0.00    -0.297 N 
ATOM      2  C   UNL     1       5.371  -6.570  -3.229  0.00  0.00    +0.303 C 
ATOM      3  O   UNL     1       6.093  -6.001  -4.026  0.00  0.00    -0.253 OA
ATOM      4  N   UNL     1       5.439  -7.909  -3.095  0.00  0.00    -0.281 N 
ATOM      5  C   UNL     1       4.496  -8.632  -2.228  0.00  0.00    +0.137 C 
ATOM      6  C   UNL     1       3.892  -9.791  -3.029  0.00  0.00    +0.180 C 
ATOM      7  O   UNL     1       4.947 -10.565  -3.604  0.00  0.00    -0.364 OA
ATOM      8  C   UNL     1       5.759  -9.847  -4.537  0.00  0.00    +0.221 C 
ATOM      9  C   UNL     1       6.455  -8.692  -3.816  0.00  0.00    +0.150 C 
ATOM     10  H   UNL     1       3.878  -6.319  -1.898  0.00  0.00    +0.151 HD
ENDROOT
BRANCH   1  14
ATOM     11  N   UNL     1       2.999  -1.923  -2.469  0.00  0.00    +0.380 N 
ATOM     12  C   UNL     1       3.870  -2.300  -1.350  0.00  0.00    -0.077 C 
ATOM     13  C   UNL     1       3.940  -3.825  -1.243  0.00  0.00    +0.004 C 
ATOM     14  C   UNL     1       4.505  -4.397  -2.547  0.00  0.00    +0.071 C 
ATOM     15  C   UNL     1       3.631  -3.936  -3.716  0.00  0.00    +0.004 C 
ATOM     16  C   UNL     1       3.572  -2.407  -3.731  0.00  0.00    -0.077 C 
ATOM     17  H   UNL     1       2.087  -2.334  -2.336  0.00  0.00    -0.082 HD
BRANCH  11  18
ATOM     18  C   UNL     1       2.873  -0.461  -2.519  0.00  0.00    -0.075 C 
BRANCH  18  22
ATOM     19  C   UNL     1      -0.005   1.528   0.028  0.00  0.00    +0.000 C 
ATOM     20  C   UNL     1       1.431   2.057   0.011  0.00  0.00    +0.000 C 
ATOM     21  C   UNL     1       2.142   1.563  -1.250  0.00  0.00    +0.002 C 
ATOM     22  C   UNL     1       2.162   0.033  -1.258  0.00  0.00    -0.028 C 
ATOM     23  C   UNL     1       0.727  -0.496  -1.241  0.00  0.00    +0.002 C 
ATOM     24  C   UNL     1       0.016  -0.002   0.021  0.00  0.00    +0.000 C 
ENDBRANCH  18  22
ENDBRANCH  11  18
ENDBRANCH   1  14
BRANCH   8  25
ATOM     25  C   UNL     1       6.793 -10.774  -5.122  0.00  0.00    +0.241 C 
ATOM     26  O   UNL     1       6.891 -11.911  -4.711  0.00  0.00    -0.273 OA
ATOM     27  N   UNL     1       7.609 -10.341  -6.104  0.00  0.00    -0.327 N 
ATOM     28  H   UNL     1       7.530  -9.431  -6.433  0.00  0.00    +0.145 HD
ATOM     29  H   UNL     1       8.274 -10.937  -6.480  0.00  0.00    +0.145 HD
ENDBRANCH   8  25
TORSDOF 4
