REMARK  Name = ZINC19689660
REMARK  2 active torsions:
REMARK  status: ('A' for Active; 'I' for Inactive)
REMARK    1  A    between atoms: C_3  and  N_8
REMARK    2  A    between atoms: C_6  and  N_7
REMARK                            x       y       z     vdW  Elec       q    Type
REMARK                         _______ _______ _______ _____ _____    ______ ____
ROOT
ATOM      1  N   UNL     1       7.934   2.984  -2.360  0.00  0.00    -0.327 N 
ATOM      2  C   UNL     1       6.805   3.925  -2.370  0.00  0.00    +0.124 C 
ATOM      3  C   UNL     1       5.540   3.205  -1.899  0.00  0.00    +0.127 C 
ATOM      4  N   UNL     1       5.274   2.059  -2.781  0.00  0.00    -0.298 N 
ATOM      5  C   UNL     1       6.403   1.118  -2.771  0.00  0.00    +0.127 C 
ATOM      6  C   UNL     1       7.669   1.839  -3.242  0.00  0.00    +0.124 C 
ATOM      7  C   UNL     1       4.109   1.431  -2.432  0.00  0.00    +0.199 A 
ATOM      8  N   UNL     1       3.748   0.285  -3.071  0.00  0.00    -0.295 N 
ATOM      9  H   UNL     1       4.393  -0.132  -3.859  0.00  0.00    +0.172 HD
ATOM     10  C   UNL     1       2.598  -0.330  -2.730  0.00  0.00    +0.256 A 
ATOM     11  O   UNL     1       2.258  -1.359  -3.292  0.00  0.00    -0.267 OA
ATOM     12  C   UNL     1       1.793   0.231  -1.716  0.00  0.00    +0.038 A 
ATOM     13  C   UNL     1       2.206   1.371  -1.106  0.00  0.00    +0.053 A 
ATOM     14  N   UNL     1       3.355   1.945  -1.485  0.00  0.00    -0.220 NA
ATOM     15  C   UNL     1       1.424   2.031  -0.001  0.00  0.00    +0.056 C 
ATOM     16  C   UNL     1      -0.019   1.529   0.011  0.00  0.00    +0.006 C 
ATOM     17  C   UNL     1       0.002  -0.004   0.002  0.00  0.00    +0.005 C 
ATOM     18  C   UNL     1       0.510  -0.470  -1.362  0.00  0.00    +0.042 C 
ENDROOT
BRANCH   1  21
ATOM     19  C   UNL     1      11.489   3.541  -3.118  0.00  0.00    +0.024 A 
ATOM     20  C   UNL     1      10.313   2.908  -2.767  0.00  0.00    +0.025 A 
ATOM     21  C   UNL     1       9.126   3.626  -2.716  0.00  0.00    +0.030 A 
ATOM     22  C   UNL     1       9.120   4.980  -3.025  0.00  0.00    +0.025 A 
ATOM     23  C   UNL     1      10.296   5.615  -3.371  0.00  0.00    +0.024 A 
ATOM     24  C   UNL     1      11.484   4.896  -3.421  0.00  0.00    +0.025 A 
BRANCH  24  25
ATOM     25  N   UNL     1      12.676   5.539  -3.776  0.00  0.00    -0.358 N 
ATOM     26  H   UNL     1      12.672   6.612  -4.016  0.00  0.00    +0.142 HD
ATOM     27  H   UNL     1      13.617   4.970  -3.816  0.00  0.00    +0.142 HD
ENDBRANCH  24  25
ENDBRANCH   1  21
TORSDOF 2
