REMARK  Name = ZINC63932317
REMARK  5 active torsions:
REMARK  status: ('A' for Active; 'I' for Inactive)
REMARK    1  A    between atoms: C_8  and  C_13
REMARK    2  A    between atoms: N_9  and  C_10
REMARK    3  A    between atoms: C_13  and  S_14
REMARK    4  A    between atoms: S_14  and  C_15
REMARK    5  A    between atoms: C_19  and  C_21
REMARK                            x       y       z     vdW  Elec       q    Type
REMARK                         _______ _______ _______ _____ _____    ______ ____
ROOT
ATOM      1  C   UNL     1       3.607  -3.423  -0.051  0.00  0.00    +0.148 C 
ENDROOT
BRANCH   1   9
ATOM      2  C   UNL     1      -0.016   1.362   0.009  0.00  0.00    +0.002 A 
ATOM      3  C   UNL     1       1.167   2.086   0.002  0.00  0.00    +0.002 A 
ATOM      4  C   UNL     1       2.383   1.437  -0.013  0.00  0.00    +0.028 A 
ATOM      5  C   UNL     1       2.422   0.049  -0.021  0.00  0.00    +0.074 A 
ATOM      6  C   UNL     1       1.223  -0.684  -0.013  0.00  0.00    +0.089 A 
ATOM      7  C   UNL     1       0.002  -0.004   0.002  0.00  0.00    +0.030 A 
ATOM      8  N   UNL     1       1.563  -1.998  -0.024  0.00  0.00    -0.231 NA
ATOM      9  C   UNL     1       2.858  -2.115  -0.037  0.00  0.00    +0.125 A 
ATOM     10  N   UNL     1       3.439  -0.885  -0.036  0.00  0.00    -0.270 N 
BRANCH  10  11
ATOM     11  C   UNL     1       4.876  -0.603  -0.050  0.00  0.00    +0.449 C 
ATOM     12  F   UNL     1       5.547  -1.631  -0.721  0.00  0.00    -0.185 F 
ATOM     13  F   UNL     1       5.107   0.611  -0.705  0.00  0.00    -0.185 F 
ENDBRANCH  10  11
ENDBRANCH   1   9
BRANCH   1  14
ATOM     14  S   UNL     1       3.891  -3.939  -1.767  0.00  0.00    -0.089 S 
BRANCH  14  15
ATOM     15  C   UNL     1       4.790  -5.506  -1.611  0.00  0.00    +0.339 C 
ATOM     16  N   UNL     1       6.036  -5.312  -0.849  0.00  0.00    -0.219 N 
ATOM     17  N   UNL     1       5.912  -6.126   0.286  0.00  0.00    -0.144 NA
ATOM     18  C   UNL     1       4.773  -6.749   0.270  0.00  0.00    +0.254 C 
ATOM     19  O   UNL     1       4.035  -6.442  -0.829  0.00  0.00    -0.442 OA
ATOM     20  H   UNL     1       6.785  -4.742  -1.084  0.00  0.00    +0.173 HD
BRANCH  18  21
ATOM     21  C   UNL     1       4.349  -7.648   1.280  0.00  0.00    +0.108 C 
ATOM     22  N   UNL     1       3.222  -8.310   1.321  0.00  0.00    -0.255 NA
ATOM     23  C   UNL     1       3.104  -9.090   2.413  0.00  0.00    +0.107 C 
ATOM     24  C   UNL     1       4.167  -9.012   3.212  0.00  0.00    -0.001 C 
ATOM     25  C   UNL     1       5.113  -8.042   2.530  0.00  0.00    +0.089 C 
ENDBRANCH  18  21
ENDBRANCH  14  15
ENDBRANCH   1  14
TORSDOF 5
