REMARK  Name = ZINC29132256
REMARK  11 active torsions:
REMARK  status: ('A' for Active; 'I' for Inactive)
REMARK    1  A    between atoms: C_1  and  C_2
REMARK    2  A    between atoms: C_5  and  C_11
REMARK    3  A    between atoms: C_6  and  C_10
REMARK    4  A    between atoms: C_12  and  C_23
REMARK    5  A    between atoms: C_13  and  C_22
REMARK    6  A    between atoms: C_15  and  C_21
REMARK    7  A    between atoms: C_16  and  C_17
REMARK    8  A    between atoms: C_17  and  O_19
REMARK    9  A    between atoms: O_19  and  C_20
REMARK   10  A    between atoms: C_23  and  O_25
REMARK   11  A    between atoms: O_25  and  C_26
REMARK                            x       y       z     vdW  Elec       q    Type
REMARK                         _______ _______ _______ _____ _____    ______ ____
ROOT
ATOM      1  C   UNL     1       2.550   4.345   0.075  0.00  0.00    +0.115 C 
ATOM      2  C   UNL     1       2.716   5.280   1.240  0.00  0.00    +0.067 C 
ATOM      3  C   UNL     1       2.433   6.589   1.134  0.00  0.00    +0.016 C 
ATOM      4  N   UNL     1       1.989   7.117  -0.048  0.00  0.00    -0.321 N 
ATOM      5  C   UNL     1       2.163   6.430  -1.218  0.00  0.00    +0.016 C 
ATOM      6  C   UNL     1       2.435   5.114  -1.211  0.00  0.00    +0.067 C 
ATOM      7  C   UNL     1       2.047   7.158  -2.532  0.00  0.00    +0.061 C 
ATOM      8  C   UNL     1       2.606   7.487   2.332  0.00  0.00    +0.061 C 
ATOM      9  H   UNL     1       1.491   8.097  -0.059  0.00  0.00    +0.152 HD
ENDROOT
BRANCH   1  14
ATOM     10  C   UNL     1       2.434  -1.478   0.484  0.00  0.00    +0.053 C 
ATOM     11  C   UNL     1       1.662  -0.184   0.485  0.00  0.00    +0.007 A 
ATOM     12  C   UNL     1       2.113   1.062   0.349  0.00  0.00    +0.104 A 
ATOM     13  N   UNL     1       1.246   2.133   0.375  0.00  0.00    -0.296 N 
ATOM     14  C   UNL     1       1.305   3.520   0.274  0.00  0.00    +0.059 A 
ATOM     15  C   UNL     1       0.052   3.992   0.386  0.00  0.00    +0.062 A 
ATOM     16  N   UNL     1      -0.778   2.951   0.556  0.00  0.00    -0.226 NA
ATOM     17  C   UNL     1      -0.084   1.851   0.546  0.00  0.00    +0.178 A 
ATOM     18  S   UNL     1      -0.095   0.077   0.668  0.00  0.00    -0.055 S 
ATOM     19  C   UNL     1      -0.352   5.443   0.333  0.00  0.00    +0.067 C 
ENDBRANCH   1  14
BRANCH   6  20
ATOM     20  C   UNL     1       2.615   4.437  -2.439  0.00  0.00    +0.337 C 
ATOM     21  O   UNL     1       3.732   4.107  -2.793  0.00  0.00    -0.245 OA
BRANCH  20  22
ATOM     22  O   UNL     1       1.550   4.159  -3.219  0.00  0.00    -0.465 OA
ATOM     23  C   UNL     1       1.806   3.473  -4.447  0.00  0.00    +0.280 C 
ENDBRANCH  20  22
ENDBRANCH   6  20
BRANCH   2  24
ATOM     24  C   UNL     1       3.180   4.771   2.475  0.00  0.00    +0.337 C 
ATOM     25  O   UNL     1       3.319   5.517   3.426  0.00  0.00    -0.245 OA
BRANCH  24  26
ATOM     26  O   UNL     1       3.469   3.459   2.598  0.00  0.00    -0.465 OA
ATOM     27  C   UNL     1       3.933   3.014   3.874  0.00  0.00    +0.280 C 
ENDBRANCH  24  26
ENDBRANCH   2  24
TORSDOF 5
