REMARK  Name = ZINC64425080
REMARK  8 active torsions:
REMARK  status: ('A' for Active; 'I' for Inactive)
REMARK    1  A    between atoms: C_1  and  C_2
REMARK    2  A    between atoms: C_2  and  C_3
REMARK    3  A    between atoms: C_3  and  C_4
REMARK    4  A    between atoms: C_4  and  N_5
REMARK    5  A    between atoms: N_8  and  N_9
REMARK    6  A    between atoms: C_10  and  C_12
REMARK    7  A    between atoms: C_15  and  C_17
REMARK    8  A    between atoms: N_20  and  C_22
REMARK                            x       y       z     vdW  Elec       q    Type
REMARK                         _______ _______ _______ _____ _____    ______ ____
ROOT
ATOM      1  N   UNL     1       2.795  -3.384   4.639  0.00  0.00    -0.228 N 
ATOM      2  C   UNL     1       3.447  -3.831   5.731  0.00  0.00    +0.279 C 
ATOM      3  O   UNL     1       3.576  -5.026   5.915  0.00  0.00    -0.267 OA
ATOM      4  H   UNL     1       2.692  -2.431   4.491  0.00  0.00    +0.173 HD
ENDROOT
BRANCH   1   8
ATOM      5  N   UNL     1       1.471  -2.526   2.420  0.00  0.00    -0.298 N 
ATOM      6  C   UNL     1       1.615  -3.850   2.625  0.00  0.00    +0.316 C 
ATOM      7  O   UNL     1       1.156  -4.643   1.825  0.00  0.00    -0.251 OA
ATOM      8  N   UNL     1       2.266  -4.297   3.717  0.00  0.00    -0.218 N 
ATOM      9  H   UNL     1       1.837  -1.894   3.058  0.00  0.00    +0.150 HD
ATOM     10  H   UNL     1       2.369  -5.250   3.864  0.00  0.00    +0.174 HD
BRANCH   5  11
ATOM     11  C   UNL     1       0.763  -2.041   1.233  0.00  0.00    +0.106 C 
BRANCH  11  12
ATOM     12  C   UNL     1       0.742  -0.511   1.242  0.00  0.00    +0.018 C 
BRANCH  12  14
ATOM     13  C   UNL     1      -0.019   1.526   0.010  0.00  0.00    +0.004 C 
ATOM     14  C   UNL     1       0.002  -0.004   0.002  0.00  0.00    -0.002 C 
ENDBRANCH  12  14
ENDBRANCH  11  12
ENDBRANCH   5  11
ENDBRANCH   1   8
BRANCH   2  15
ATOM     15  C   UNL     1       4.003  -2.872   6.700  0.00  0.00    +0.135 A 
ATOM     16  C   UNL     1       4.671  -3.314   7.809  0.00  0.00    +0.080 A 
ATOM     17  S   UNL     1       5.097  -1.878   8.576  0.00  0.00    -0.075 S 
ATOM     18  C   UNL     1       4.378  -0.741   7.404  0.00  0.00    +0.112 A 
ATOM     19  N   UNL     1       3.868  -1.565   6.507  0.00  0.00    -0.234 NA
BRANCH  18  20
ATOM     20  C   UNL     1       4.362   0.738   7.428  0.00  0.00    +0.045 A 
ATOM     21  C   UNL     1       3.766   1.582   6.468  0.00  0.00    +0.145 A 
ATOM     22  N   UNL     1       3.963   2.819   6.838  0.00  0.00    -0.179 NA
ATOM     23  N   UNL     1       4.685   2.817   8.038  0.00  0.00    -0.274 N 
ATOM     24  C   UNL     1       4.917   1.537   8.389  0.00  0.00    +0.118 A 
ATOM     25  C   UNL     1       5.110   4.002   8.786  0.00  0.00    +0.172 C 
ENDBRANCH  18  20
ENDBRANCH   2  15
TORSDOF 6
