REMARK  Name = ZINC00930930
REMARK  7 active torsions:
REMARK  status: ('A' for Active; 'I' for Inactive)
REMARK    1  A    between atoms: C_9  and  C_12
REMARK    2  A    between atoms: N_14  and  C_15
REMARK    3  A    between atoms: N_14  and  C_24
REMARK    4  A    between atoms: C_24  and  C_26
REMARK    5  A    between atoms: C_24  and  C_33
REMARK    6  A    between atoms: C_29  and  O_32
REMARK    7  A    between atoms: N_35  and  C_36
REMARK                            x       y       z     vdW  Elec       q    Type
REMARK                         _______ _______ _______ _____ _____    ______ ____
ROOT
ATOM      1  C   UNL     1       3.870   0.470   1.465  0.00  0.00    +0.265 C 
ATOM      2  O   UNL     1       2.948   0.181   2.198  0.00  0.00    -0.271 OA
ATOM      3  N   UNL     1       3.684   1.354   0.464  0.00  0.00    -0.252 N 
ENDROOT
BRANCH   1  12
ATOM      4  C   UNL     1       8.479  -3.123   3.942  0.00  0.00    +0.004 A 
ATOM      5  C   UNL     1       7.843  -2.416   4.947  0.00  0.00    +0.004 A 
ATOM      6  C   UNL     1       6.803  -1.560   4.640  0.00  0.00    +0.049 A 
ATOM      7  C   UNL     1       6.393  -1.408   3.324  0.00  0.00    +0.163 A 
ATOM      8  C   UNL     1       7.033  -2.117   2.314  0.00  0.00    +0.162 A 
ATOM      9  C   UNL     1       8.076  -2.975   2.629  0.00  0.00    +0.049 A 
ATOM     10  O   UNL     1       6.649  -1.980   1.016  0.00  0.00    -0.484 OA
ATOM     11  C   UNL     1       5.360  -1.401   0.783  0.00  0.00    +0.283 C 
ATOM     12  C   UNL     1       5.224  -0.158   1.673  0.00  0.00    +0.296 C 
ATOM     13  O   UNL     1       5.362  -0.567   3.038  0.00  0.00    -0.472 OA
ENDBRANCH   1  12
BRANCH   3  14
ATOM     14  C   UNL     1       4.761   1.727  -0.350  0.00  0.00    +0.041 A 
ATOM     15  C   UNL     1       4.838   1.262  -1.656  0.00  0.00    +0.027 A 
ATOM     16  C   UNL     1       5.897   1.634  -2.462  0.00  0.00    +0.051 A 
ATOM     17  C   UNL     1       6.891   2.462  -1.966  0.00  0.00    +0.166 A 
ATOM     18  C   UNL     1       6.819   2.925  -0.655  0.00  0.00    +0.168 A 
ATOM     19  C   UNL     1       5.755   2.557   0.150  0.00  0.00    +0.073 A 
ATOM     20  O   UNL     1       7.906   3.715  -0.411  0.00  0.00    -0.453 OA
ATOM     21  C   UNL     1       8.429   4.061  -1.707  0.00  0.00    +0.466 C 
ATOM     22  O   UNL     1       8.023   2.961  -2.544  0.00  0.00    -0.453 OA
ENDBRANCH   3  14
BRANCH   3  23
ATOM     23  C   UNL     1       2.355   1.924   0.228  0.00  0.00    +0.197 C 
BRANCH  23  24
ATOM     24  C   UNL     1       1.925   2.713   1.438  0.00  0.00    -0.018 A 
ATOM     25  C   UNL     1       0.655   2.541   1.958  0.00  0.00    +0.009 A 
ATOM     26  C   UNL     1       0.256   3.267   3.063  0.00  0.00    +0.046 A 
ATOM     27  C   UNL     1       1.135   4.161   3.658  0.00  0.00    +0.117 A 
ATOM     28  C   UNL     1       2.408   4.331   3.135  0.00  0.00    +0.046 A 
ATOM     29  C   UNL     1       2.800   3.607   2.026  0.00  0.00    +0.009 A 
BRANCH  27  30
ATOM     30  O   UNL     1       0.747   4.873   4.749  0.00  0.00    -0.507 OA
ATOM     31  H   UNL     1       0.332   5.721   4.539  0.00  0.00    +0.292 HD
ENDBRANCH  27  30
ENDBRANCH  23  24
BRANCH  23  32
ATOM     32  C   UNL     1       2.404   2.833  -0.973  0.00  0.00    +0.239 C 
ATOM     33  O   UNL     1       3.348   3.578  -1.131  0.00  0.00    -0.273 OA
ATOM     34  N   UNL     1       1.400   2.817  -1.871  0.00  0.00    -0.311 N 
ATOM     35  H   UNL     1       0.645   2.221  -1.745  0.00  0.00    +0.149 HD
BRANCH  34  36
ATOM     36  C   UNL     1       1.448   3.701  -3.039  0.00  0.00    +0.073 C 
ATOM     37  C   UNL     1       0.893   5.076  -2.662  0.00  0.00    +0.022 C 
ATOM     38  C   UNL     1       0.943   5.998  -3.881  0.00  0.00    +0.002 C 
ATOM     39  C   UNL     1       0.100   5.400  -5.008  0.00  0.00    +0.000 C 
ATOM     40  C   UNL     1       0.654   4.025  -5.386  0.00  0.00    +0.002 C 
ATOM     41  C   UNL     1       0.604   3.102  -4.167  0.00  0.00    +0.022 C 
ENDBRANCH  34  36
ENDBRANCH  23  32
ENDBRANCH   3  23
TORSDOF 7
