REMARK  Name = ZINC45233355
REMARK  7 active torsions:
REMARK  status: ('A' for Active; 'I' for Inactive)
REMARK    1  A    between atoms: C_1  and  N_2
REMARK    2  A    between atoms: C_6  and  C_7
REMARK    3  A    between atoms: C_7  and  C_9
REMARK    4  A    between atoms: C_7  and  N_16
REMARK    5  A    between atoms: N_19  and  N_20
REMARK    6  A    between atoms: C_21  and  O_23
REMARK    7  A    between atoms: O_23  and  C_24
REMARK                            x       y       z     vdW  Elec       q    Type
REMARK                         _______ _______ _______ _____ _____    ______ ____
ROOT
ATOM      1  C   UNL     1       0.030  -0.354   2.521  0.00  0.00    +0.171 C 
ENDROOT
BRANCH   1   2
ATOM      2  C   UNL     1      -1.334  -0.572   3.123  0.00  0.00    -0.020 A 
ATOM      3  C   UNL     1      -1.701  -1.829   3.566  0.00  0.00    +0.009 A 
ATOM      4  C   UNL     1      -2.951  -2.030   4.119  0.00  0.00    +0.038 A 
ATOM      5  C   UNL     1      -3.837  -0.971   4.230  0.00  0.00    +0.123 A 
ATOM      6  C   UNL     1      -3.468   0.288   3.786  0.00  0.00    +0.038 A 
ATOM      7  C   UNL     1      -2.216   0.487   3.238  0.00  0.00    +0.009 A 
ATOM      8  F   UNL     1      -5.060  -1.166   4.770  0.00  0.00    -0.205 F 
ENDBRANCH   1   2
BRANCH   1  14
ATOM      9  C   UNL     1      -0.018   1.461   0.010  0.00  0.00    +0.150 C 
ATOM     10  N   UNL     1       0.002  -0.004   0.002  0.00  0.00    -0.336 N 
ATOM     11  C   UNL     1       0.009  -0.810  -1.104  0.00  0.00    +0.106 A 
ATOM     12  C   UNL     1       0.029  -2.081  -0.660  0.00  0.00    +0.130 A 
ATOM     13  N   UNL     1       0.034  -2.052   0.681  0.00  0.00    -0.238 NA
ATOM     14  C   UNL     1       0.023  -0.811   1.085  0.00  0.00    +0.134 A 
ENDBRANCH   1  14
BRANCH   1  15
ATOM     15  N   UNL     1       1.024  -1.123   3.273  0.00  0.00    -0.284 N 
ATOM     16  C   UNL     1       2.315  -0.733   3.278  0.00  0.00    +0.317 C 
ATOM     17  O   UNL     1       2.653   0.256   2.658  0.00  0.00    -0.251 OA
ATOM     18  N   UNL     1       3.229  -1.441   3.970  0.00  0.00    -0.216 N 
ATOM     19  H   UNL     1       0.754  -1.913   3.768  0.00  0.00    +0.151 HD
ATOM     20  H   UNL     1       4.158  -1.160   3.974  0.00  0.00    +0.174 HD
BRANCH  18  21
ATOM     21  N   UNL     1       2.839  -2.581   4.684  0.00  0.00    -0.198 N 
ATOM     22  C   UNL     1       3.754  -3.288   5.377  0.00  0.00    +0.417 C 
ATOM     23  O   UNL     1       3.416  -4.278   5.996  0.00  0.00    -0.225 OA
ATOM     24  H   UNL     1       1.911  -2.862   4.681  0.00  0.00    +0.176 HD
BRANCH  22  25
ATOM     25  O   UNL     1       5.043  -2.899   5.382  0.00  0.00    -0.453 OA
ATOM     26  C   UNL     1       5.959  -3.696   6.137  0.00  0.00    +0.282 C 
ENDBRANCH  22  25
ENDBRANCH  18  21
ENDBRANCH   1  15
TORSDOF 5
