REMARK  Name = ZINC40914205
REMARK  9 active torsions:
REMARK  status: ('A' for Active; 'I' for Inactive)
REMARK    1  A    between atoms: C_1  and  C_2
REMARK    2  A    between atoms: C_2  and  O_3
REMARK    3  A    between atoms: O_3  and  C_4
REMARK    4  A    between atoms: C_6  and  C_20
REMARK    5  A    between atoms: C_9  and  O_10
REMARK    6  A    between atoms: O_10  and  C_11
REMARK    7  A    between atoms: C_11  and  C_12
REMARK    8  A    between atoms: C_22  and  C_31
REMARK    9  A    between atoms: C_23  and  C_30
REMARK                            x       y       z     vdW  Elec       q    Type
REMARK                         _______ _______ _______ _____ _____    ______ ____
ROOT
ATOM      1  C   UNL     1      -1.750  -1.979  -0.433  0.00  0.00    +0.163 A 
ATOM      2  C   UNL     1      -0.603  -2.738  -0.260  0.00  0.00    +0.055 A 
ATOM      3  C   UNL     1      -0.684  -4.117  -0.231  0.00  0.00    -0.014 A 
ATOM      4  C   UNL     1      -1.908  -4.744  -0.374  0.00  0.00    +0.025 A 
ATOM      5  C   UNL     1      -3.056  -3.993  -0.547  0.00  0.00    +0.063 A 
ATOM      6  C   UNL     1      -2.982  -2.609  -0.571  0.00  0.00    +0.176 A 
ATOM      7 BR   UNL     1      -4.728  -4.855  -0.744  0.00  0.00    -0.046 Br
ENDROOT
BRANCH   3   8
ATOM      8  C   UNL     1       0.565  -4.940  -0.043  0.00  0.00    +0.177 C 
ATOM      9  C   UNL     1       0.434  -5.773   1.205  0.00  0.00    +0.060 C 
ATOM     10  C   UNL     1       0.247  -7.101   1.182  0.00  0.00    +0.018 C 
ATOM     11  N   UNL     1       0.172  -7.809   0.008  0.00  0.00    -0.287 N 
ATOM     12  C   UNL     1       0.556  -7.159  -1.157  0.00  0.00    +0.218 A 
ATOM     13  N   UNL     1       0.749  -5.816  -1.196  0.00  0.00    -0.221 N 
ATOM     14  N   UNL     1       1.130  -5.508  -2.501  0.00  0.00    -0.156 NA
ATOM     15  C   UNL     1       1.145  -6.637  -3.166  0.00  0.00    +0.247 A 
ATOM     16  N   UNL     1       0.793  -7.634  -2.348  0.00  0.00    -0.201 NA
ATOM     17  C   UNL     1       0.116  -7.840   2.489  0.00  0.00    +0.061 C 
ATOM     18  H   UNL     1      -0.137  -8.729  -0.007  0.00  0.00    +0.155 HD
BRANCH   9  19
ATOM     19  C   UNL     1       0.512  -5.124   2.460  0.00  0.00    +0.241 C 
ATOM     20  O   UNL     1       1.587  -4.736   2.879  0.00  0.00    -0.271 OA
ATOM     21  N   UNL     1      -0.604  -4.937   3.192  0.00  0.00    -0.325 N 
ATOM     22  H   UNL     1      -1.461  -5.246   2.858  0.00  0.00    +0.145 HD
ATOM     23  H   UNL     1      -0.550  -4.492   4.052  0.00  0.00    +0.145 HD
ENDBRANCH   9  19
ENDBRANCH   3   8
BRANCH   1  24
ATOM     24  O   UNL     1      -1.671  -0.622  -0.463  0.00  0.00    -0.489 OA
BRANCH  24  26
ATOM     25  C   UNL     1      -0.483   1.481  -0.373  0.00  0.00    +0.048 C 
ATOM     26  C   UNL     1      -0.372  -0.044  -0.315  0.00  0.00    +0.226 C 
ENDBRANCH  24  26
ENDBRANCH   1  24
BRANCH   6  27
ATOM     27  O   UNL     1      -4.111  -1.869  -0.736  0.00  0.00    -0.483 OA
BRANCH  27  28
ATOM     28  C   UNL     1      -4.490  -1.552  -2.077  0.00  0.00    +0.266 C 
BRANCH  28  29
ATOM     29  C   UNL     1      -5.755  -0.734  -2.062  0.00  0.00    +0.008 A 
ATOM     30  C   UNL     1      -6.351  -0.404  -0.859  0.00  0.00    +0.008 A 
ATOM     31  C   UNL     1      -7.511   0.347  -0.845  0.00  0.00    +0.000 A 
ATOM     32  C   UNL     1      -8.076   0.769  -2.034  0.00  0.00    +0.001 A 
ATOM     33  C   UNL     1      -7.481   0.441  -3.237  0.00  0.00    +0.020 A 
ATOM     34  C   UNL     1      -6.317  -0.306  -3.252  0.00  0.00    +0.047 A 
ATOM     35 CL   UNL     1      -5.565  -0.714  -4.762  0.00  0.00    -0.083 Cl
ENDBRANCH  28  29
ENDBRANCH  27  28
ENDBRANCH   6  27
TORSDOF 7
