REMARK  Name = ZINC56744931
REMARK  10 active torsions:
REMARK  status: ('A' for Active; 'I' for Inactive)
REMARK    1  A    between atoms: C_1  and  C_2
REMARK    2  A    between atoms: C_2  and  C_3
REMARK    3  A    between atoms: C_3  and  N_4
REMARK    4  A    between atoms: C_5  and  C_7
REMARK    5  A    between atoms: C_7  and  C_8
REMARK    6  A    between atoms: C_8  and  N_9
REMARK    7  A    between atoms: N_12  and  C_13
REMARK    8  A    between atoms: C_18  and  O_19
REMARK    9  A    between atoms: O_19  and  C_20
REMARK   10  A    between atoms: C_20  and  C_21
REMARK                            x       y       z     vdW  Elec       q    Type
REMARK                         _______ _______ _______ _____ _____    ______ ____
ROOT
ATOM      1  N   UNL     1       1.554  -6.219  -3.776  0.00  0.00    -0.299 N 
ATOM      2  C   UNL     1       2.127  -6.884  -4.798  0.00  0.00    +0.304 C 
ATOM      3  O   UNL     1       2.147  -6.392  -5.909  0.00  0.00    -0.253 OA
ATOM      4  N   UNL     1       2.679  -8.096  -4.587  0.00  0.00    -0.266 N 
ATOM      5  H   UNL     1       1.538  -6.612  -2.889  0.00  0.00    +0.150 HD
ATOM      6  H   UNL     1       2.721  -8.460  -3.689  0.00  0.00    +0.156 HD
ENDROOT
BRANCH   4   7
ATOM      7  C   UNL     1       3.192  -8.829  -5.666  0.00  0.00    +0.077 A 
ATOM      8  C   UNL     1       3.797  -8.173  -6.728  0.00  0.00    +0.027 A 
ATOM      9  C   UNL     1       4.302  -8.898  -7.790  0.00  0.00    +0.002 A 
ATOM     10  C   UNL     1       4.205 -10.277  -7.799  0.00  0.00    +0.004 A 
ATOM     11  C   UNL     1       3.603 -10.938  -6.745  0.00  0.00    +0.047 A 
ATOM     12  C   UNL     1       3.099 -10.219  -5.673  0.00  0.00    +0.142 A 
BRANCH  12  13
ATOM     13  O   UNL     1       2.512 -10.868  -4.632  0.00  0.00    -0.488 OA
BRANCH  13  14
ATOM     14  C   UNL     1       2.453 -12.294  -4.707  0.00  0.00    +0.260 C 
BRANCH  14  15
ATOM     15  C   UNL     1       1.762 -12.842  -3.457  0.00  0.00    +0.156 C 
ATOM     16  C   UNL     1       1.809 -14.372  -3.477  0.00  0.00    +0.035 C 
ATOM     17  C   UNL     1       1.064 -14.914  -2.253  0.00  0.00    +0.005 C 
ATOM     18  C   UNL     1      -0.370 -14.376  -2.263  0.00  0.00    +0.028 C 
ATOM     19  C   UNL     1      -0.333 -12.846  -2.290  0.00  0.00    +0.160 C 
ATOM     20  O   UNL     1       0.401 -12.408  -3.435  0.00  0.00    -0.373 OA
ENDBRANCH  14  15
ENDBRANCH  13  14
ENDBRANCH  12  13
ENDBRANCH   4   7
BRANCH   1  21
ATOM     21  C   UNL     1       0.954  -4.902  -4.004  0.00  0.00    +0.115 C 
BRANCH  21  22
ATOM     22  C   UNL     1       0.378  -4.369  -2.691  0.00  0.00    +0.114 C 
BRANCH  22  24
ATOM     23  N   UNL     1      -0.813  -2.349  -1.904  0.00  0.00    -0.315 N 
ATOM     24  C   UNL     1      -0.239  -3.014  -2.925  0.00  0.00    +0.215 C 
ATOM     25  O   UNL     1      -0.220  -2.523  -4.034  0.00  0.00    -0.276 OA
ATOM     26  H   UNL     1      -0.829  -2.741  -1.017  0.00  0.00    +0.149 HD
BRANCH  23  27
ATOM     27  C   UNL     1      -1.413  -1.032  -2.132  0.00  0.00    +0.104 C 
BRANCH  27  29
ATOM     28  C   UNL     1      -2.615   0.876  -1.057  0.00  0.00    +0.005 C 
ATOM     29  C   UNL     1      -1.989  -0.499  -0.819  0.00  0.00    +0.015 C 
ENDBRANCH  27  29
ENDBRANCH  23  27
ENDBRANCH  22  24
ENDBRANCH  21  22
ENDBRANCH   1  21
TORSDOF 9
