REMARK  Name = ZINC13141768
REMARK  6 active torsions:
REMARK  status: ('A' for Active; 'I' for Inactive)
REMARK    1  A    between atoms: C_1  and  N_2
REMARK    2  A    between atoms: C_3  and  C_5
REMARK    3  A    between atoms: C_5  and  O_6
REMARK    4  A    between atoms: O_6  and  C_7
REMARK    5  A    between atoms: C_7  and  C_9
REMARK    6  A    between atoms: C_23  and  C_24
REMARK                            x       y       z     vdW  Elec       q    Type
REMARK                         _______ _______ _______ _____ _____    ______ ____
ROOT
ATOM      1  C   UNL     1      -4.057  -4.390   0.053  0.00  0.00    +0.073 A 
ATOM      2  C   UNL     1      -4.644  -4.910  -1.182  0.00  0.00    +0.015 A 
ATOM      3  C   UNL     1      -4.025  -4.723  -2.422  0.00  0.00    +0.011 A 
ATOM      4  C   UNL     1      -4.607  -5.227  -3.548  0.00  0.00    +0.001 A 
ATOM      5  C   UNL     1      -5.810  -5.925  -3.479  0.00  0.00    +0.002 A 
ATOM      6  C   UNL     1      -6.439  -6.124  -2.289  0.00  0.00    +0.028 A 
ATOM      7  C   UNL     1      -5.870  -5.620  -1.105  0.00  0.00    +0.072 A 
ATOM      8  N   UNL     1      -6.462  -5.798   0.074  0.00  0.00    -0.247 NA
ATOM      9  C   UNL     1      -5.953  -5.338   1.205  0.00  0.00    +0.072 A 
ATOM     10  C   UNL     1      -4.737  -4.631   1.240  0.00  0.00    -0.007 A 
ATOM     11  C   UNL     1      -4.147  -4.127   2.528  0.00  0.00    +0.038 C 
ATOM     12  C   UNL     1      -5.217  -3.980   3.607  0.00  0.00    +0.009 C 
ATOM     13  C   UNL     1      -5.961  -5.311   3.768  0.00  0.00    +0.037 C 
ATOM     14  C   UNL     1      -6.689  -5.580   2.466  0.00  0.00    -0.021 C 
ATOM     15  C   UNL     1      -7.953  -6.038   2.455  0.00  0.00    +0.013 C 
ENDROOT
BRANCH  15  16
ATOM     16  C   UNL     1      -8.603  -6.434   3.716  0.00  0.00    -0.021 A 
ATOM     17  C   UNL     1      -9.978  -6.245   3.885  0.00  0.00    +0.012 A 
ATOM     18  C   UNL     1     -10.584  -6.618   5.066  0.00  0.00    +0.050 A 
ATOM     19  C   UNL     1      -9.834  -7.180   6.089  0.00  0.00    +0.166 A 
ATOM     20  C   UNL     1      -8.462  -7.372   5.927  0.00  0.00    +0.167 A 
ATOM     21  C   UNL     1      -7.848  -7.006   4.744  0.00  0.00    +0.057 A 
ATOM     22  O   UNL     1      -7.963  -7.934   7.067  0.00  0.00    -0.453 OA
ATOM     23  C   UNL     1      -8.964  -7.708   8.077  0.00  0.00    +0.466 C 
ATOM     24  O   UNL     1     -10.191  -7.623   7.330  0.00  0.00    -0.453 OA
ENDBRANCH  15  16
BRANCH   1  25
ATOM     25  C   UNL     1      -2.783  -3.641   0.039  0.00  0.00    +0.341 C 
ATOM     26  O   UNL     1      -1.729  -4.233   0.155  0.00  0.00    -0.245 OA
BRANCH  25  27
ATOM     27  O   UNL     1      -2.791  -2.301  -0.102  0.00  0.00    -0.452 OA
BRANCH  27  28
ATOM     28  C   UNL     1      -1.524  -1.642  -0.107  0.00  0.00    +0.328 C 
BRANCH  28  31
ATOM     29  C   UNL     1      -0.868   2.112  -0.469  0.00  0.00    +0.128 C 
ATOM     30  N   UNL     1      -0.667   0.670  -0.307  0.00  0.00    -0.316 N 
ATOM     31  C   UNL     1      -1.730  -0.159  -0.274  0.00  0.00    +0.251 C 
ATOM     32  O   UNL     1      -2.852   0.290  -0.378  0.00  0.00    -0.272 OA
ATOM     33  H   UNL     1       0.230   0.311  -0.224  0.00  0.00    +0.148 HD
ENDBRANCH  28  31
ENDBRANCH  27  28
ENDBRANCH  25  27
ENDBRANCH   1  25
TORSDOF 5
