REMARK  Name = ZINC15799733
REMARK  6 active torsions:
REMARK  status: ('A' for Active; 'I' for Inactive)
REMARK    1  A    between atoms: C_4  and  N_27
REMARK    2  A    between atoms: C_5  and  N_7
REMARK    3  A    between atoms: C_8  and  C_10
REMARK    4  A    between atoms: C_10  and  C_11
REMARK    5  A    between atoms: C_11  and  N_12
REMARK    6  A    between atoms: C_16  and  C_17
REMARK                            x       y       z     vdW  Elec       q    Type
REMARK                         _______ _______ _______ _____ _____    ______ ____
ROOT
ATOM      1  C   UNL     1       2.375   0.899   0.252  0.00  0.00    +0.124 C 
ENDROOT
BRANCH   1   2
ATOM      2  N   UNL     1       3.498   1.840   0.212  0.00  0.00    -0.255 N 
ATOM      3  C   UNL     1       3.985   2.216  -0.958  0.00  0.00    +0.258 C 
ATOM      4  O   UNL     1       3.525   1.801  -2.006  0.00  0.00    -0.269 OA
ATOM      5  C   UNL     1       5.114   3.170  -0.929  0.00  0.00    +0.077 C 
ATOM      6  C   UNL     1       5.803   3.725  -1.957  0.00  0.00    +0.028 C 
ATOM      7  S   UNL     1       5.325   3.385   0.833  0.00  0.00    -0.061 S 
ATOM      8  C   UNL     1       4.014   2.298   1.371  0.00  0.00    +0.121 C 
ATOM      9  S   UNL     1       3.530   1.927   2.971  0.00  0.00    -0.027 S 
BRANCH   6  10
ATOM     10  C   UNL     1       5.340   3.537  -3.339  0.00  0.00    -0.024 A 
ATOM     11  C   UNL     1       6.266   3.345  -4.371  0.00  0.00    +0.009 A 
ATOM     12  C   UNL     1       5.824   3.164  -5.664  0.00  0.00    +0.020 A 
ATOM     13  C   UNL     1       4.467   3.183  -5.945  0.00  0.00    +0.041 A 
ATOM     14  C   UNL     1       3.545   3.377  -4.929  0.00  0.00    +0.020 A 
ATOM     15  C   UNL     1       3.971   3.554  -3.631  0.00  0.00    +0.009 A 
ATOM     16 CL   UNL     1       3.920   2.961  -7.577  0.00  0.00    -0.084 Cl
ENDBRANCH   6  10
ENDBRANCH   1   2
BRANCH   1  17
ATOM     17  C   UNL     1       1.058   1.677   0.241  0.00  0.00    +0.115 C 
BRANCH  17  19
ATOM     18  N   UNL     1      -1.363   1.170   0.275  0.00  0.00    -0.284 N 
ATOM     19  C   UNL     1      -0.097   0.709   0.282  0.00  0.00    +0.219 C 
ATOM     20  O   UNL     1       0.113  -0.485   0.316  0.00  0.00    -0.275 OA
ATOM     21  H   UNL     1      -1.532   2.124   0.322  0.00  0.00    +0.155 HD
BRANCH  18  26
ATOM     22  C   UNL     1      -3.373  -1.776  -0.621  0.00  0.00    +0.002 A 
ATOM     23  C   UNL     1      -4.552  -1.501   0.048  0.00  0.00    +0.002 A 
ATOM     24  C   UNL     1      -4.675  -0.342   0.790  0.00  0.00    +0.034 A 
ATOM     25  C   UNL     1      -3.618   0.543   0.873  0.00  0.00    +0.147 A 
ATOM     26  C   UNL     1      -2.434   0.273   0.198  0.00  0.00    +0.064 A 
ATOM     27  C   UNL     1      -2.314  -0.892  -0.548  0.00  0.00    +0.025 A 
BRANCH  25  28
ATOM     28  N   UNL     1      -3.748   1.781   1.674  0.00  0.00    +0.058 N 
ATOM     29  O   UNL     1      -4.753   1.977   2.333  0.00  0.00    -0.126 OA
ATOM     30  O   UNL     1      -2.849   2.603   1.675  0.00  0.00    -0.126 OA
ENDBRANCH  25  28
ENDBRANCH  18  26
ENDBRANCH  17  19
ENDBRANCH   1  17
TORSDOF 6
