REMARK  Name = ZINC37822344
REMARK  8 active torsions:
REMARK  status: ('A' for Active; 'I' for Inactive)
REMARK    1  A    between atoms: C_6  and  C_7
REMARK    2  A    between atoms: C_7  and  N_8
REMARK    3  A    between atoms: N_8  and  C_9
REMARK    4  A    between atoms: C_9  and  C_10
REMARK    5  A    between atoms: C_13  and  C_15
REMARK    6  A    between atoms: C_15  and  C_17
REMARK    7  A    between atoms: C_15  and  N_21
REMARK    8  A    between atoms: C_17  and  C_18
REMARK                            x       y       z     vdW  Elec       q    Type
REMARK                         _______ _______ _______ _____ _____    ______ ____
ROOT
ATOM      1  N   UNL     1      -1.726  -1.017  -1.368  0.00  0.00    -0.290 N 
ATOM      2  C   UNL     1      -2.522  -0.126  -1.991  0.00  0.00    +0.202 C 
ATOM      3  O   UNL     1      -2.880   0.877  -1.411  0.00  0.00    -0.277 OA
ENDROOT
BRANCH   1   4
ATOM      4  C   UNL     1      -1.293  -0.775   0.010  0.00  0.00    +0.143 C 
BRANCH   4  10
ATOM      5  C   UNL     1      -0.017   1.378   0.010  0.00  0.00    +0.006 A 
ATOM      6  C   UNL     1       1.171   2.086   0.002  0.00  0.00    +0.015 A 
ATOM      7  C   UNL     1       2.378   1.411  -0.013  0.00  0.00    +0.018 A 
ATOM      8  C   UNL     1       2.396   0.027  -0.021  0.00  0.00    +0.015 A 
ATOM      9  C   UNL     1       1.208  -0.679  -0.013  0.00  0.00    +0.006 A 
ATOM     10  C   UNL     1       0.002  -0.004   0.002  0.00  0.00    -0.030 A 
ATOM     11 BR   UNL     1       4.003   2.378  -0.024  0.00  0.00    -0.050 Br
ENDBRANCH   4  10
ENDBRANCH   1   4
BRANCH   1  12
ATOM     12  C   UNL     1      -1.293  -2.229  -2.070  0.00  0.00    +0.203 C 
BRANCH  12  13
ATOM     13  C   UNL     1      -2.291  -3.332  -1.829  0.00  0.00    +0.228 C 
ATOM     14  O   UNL     1      -3.268  -3.127  -1.140  0.00  0.00    -0.274 OA
ATOM     15  N   UNL     1      -2.099  -4.547  -2.380  0.00  0.00    -0.328 N 
ATOM     16  H   UNL     1      -1.317  -4.711  -2.931  0.00  0.00    +0.145 HD
ATOM     17  H   UNL     1      -2.741  -5.257  -2.225  0.00  0.00    +0.145 HD
ENDBRANCH  12  13
ENDBRANCH   1  12
BRANCH   2  18
ATOM     18  C   UNL     1      -2.967  -0.375  -3.409  0.00  0.00    +0.022 C 
BRANCH  18  19
ATOM     19  N   UNL     1      -4.160   0.432  -3.697  0.00  0.00    +0.386 N 
ATOM     20  H   UNL     1      -3.939   1.410  -3.581  0.00  0.00    -0.089 HD
ATOM     21  H   UNL     1      -4.458   0.266  -4.647  0.00  0.00    -0.089 HD
ATOM     22  H   UNL     1      -4.901   0.176  -3.062  0.00  0.00    -0.089 HD
ENDBRANCH  18  19
BRANCH  18  23
ATOM     23  C   UNL     1      -1.843   0.013  -4.372  0.00  0.00    +0.088 C 
BRANCH  23  24
ATOM     24  C   UNL     1      -2.240  -0.350  -5.780  0.00  0.00    +0.209 C 
ATOM     25  O   UNL     1      -3.316  -0.869  -5.992  0.00  0.00    -0.276 OA
ATOM     26  N   UNL     1      -1.400  -0.099  -6.803  0.00  0.00    -0.329 N 
ATOM     27  H   UNL     1      -0.539   0.315  -6.634  0.00  0.00    +0.145 HD
ATOM     28  H   UNL     1      -1.655  -0.333  -7.709  0.00  0.00    +0.145 HD
ENDBRANCH  23  24
ENDBRANCH  18  23
ENDBRANCH   2  18
TORSDOF 8
