REMARK  Name = ZINC03433502
REMARK  11 active torsions:
REMARK  status: ('A' for Active; 'I' for Inactive)
REMARK    1  A    between atoms: C_1  and  C_2
REMARK    2  A    between atoms: C_5  and  N_9
REMARK    3  A    between atoms: C_6  and  C_8
REMARK    4  A    between atoms: C_13  and  C_15
REMARK    5  A    between atoms: C_15  and  O_16
REMARK    6  A    between atoms: O_16  and  C_17
REMARK    7  A    between atoms: C_17  and  C_19
REMARK    8  A    between atoms: C_19  and  C_20
REMARK    9  A    between atoms: C_20  and  N_21
REMARK   10  A    between atoms: N_21  and  S_22
REMARK   11  A    between atoms: S_22  and  C_25
REMARK                            x       y       z     vdW  Elec       q    Type
REMARK                         _______ _______ _______ _____ _____    ______ ____
ROOT
ATOM      1  C   UNL     1      -1.810   4.961  -3.293  0.00  0.00    +0.309 C 
ATOM      2  O   UNL     1      -1.592   5.776  -2.428  0.00  0.00    -0.251 OA
ENDROOT
BRANCH   1   3
ATOM      3  O   UNL     1      -2.262   5.358  -4.492  0.00  0.00    -0.455 OA
BRANCH   3   4
ATOM      4  C   UNL     1      -2.467   6.784  -4.680  0.00  0.00    +0.328 C 
BRANCH   4   9
ATOM      5  N   UNL     1      -3.950   9.785  -8.130  0.00  0.00    -0.269 N 
ATOM      6  C   UNL     1      -3.688   8.526  -7.728  0.00  0.00    +0.310 C 
ATOM      7  O   UNL     1      -3.859   7.596  -8.491  0.00  0.00    -0.252 OA
ATOM      8  N   UNL     1      -3.235   8.298  -6.479  0.00  0.00    -0.237 N 
ATOM      9  C   UNL     1      -2.973   7.039  -6.077  0.00  0.00    +0.258 C 
ATOM     10  O   UNL     1      -3.144   6.111  -6.838  0.00  0.00    -0.272 OA
ATOM     11  H   UNL     1      -3.891  10.519  -7.498  0.00  0.00    +0.156 HD
ATOM     12  H   UNL     1      -3.098   9.040  -5.870  0.00  0.00    +0.159 HD
BRANCH   5  17
ATOM     13  C   UNL     1      -5.396  10.797 -13.521  0.00  0.00    +0.044 C 
ATOM     14  C   UNL     1      -5.011  10.529 -12.089  0.00  0.00    -0.050 A 
ATOM     15  C   UNL     1      -4.266   9.407 -11.774  0.00  0.00    +0.005 A 
ATOM     16  C   UNL     1      -3.913   9.158 -10.462  0.00  0.00    +0.024 A 
ATOM     17  C   UNL     1      -4.306  10.035  -9.460  0.00  0.00    +0.038 A 
ATOM     18  C   UNL     1      -5.059  11.157  -9.779  0.00  0.00    -0.029 A 
ATOM     19  C   UNL     1      -5.404  11.404 -11.094  0.00  0.00    +0.008 A 
ATOM     20  C   UNL     1      -5.493  12.108  -8.694  0.00  0.00    +0.045 C 
ENDBRANCH   5  17
ENDBRANCH   4   9
ENDBRANCH   3   4
ENDBRANCH   1   3
BRANCH   1  21
ATOM     21  C   UNL     1      -1.574   3.497  -3.024  0.00  0.00    +0.137 C 
BRANCH  21  22
ATOM     22  C   UNL     1      -1.063   3.317  -1.593  0.00  0.00    +0.117 C 
BRANCH  22  23
ATOM     23  N   UNL     1      -0.834   1.894  -1.332  0.00  0.00    -0.189 NA
ATOM     24  H   UNL     1      -1.205   1.225  -1.929  0.00  0.00    +0.148 HD
BRANCH  23  25
ATOM     25  S   UNL     1       0.059   1.426  -0.018  0.00  0.00    +0.059 S 
ATOM     26  O   UNL     1       0.078   0.005  -0.024  0.00  0.00    -0.153 OA
ATOM     27  O   UNL     1       1.248   2.204  -0.037  0.00  0.00    -0.153 OA
BRANCH  25  28
ATOM     28  C   UNL     1      -0.837   1.912   1.420  0.00  0.00    +0.109 A 
ATOM     29  C   UNL     1      -0.620   3.158   1.979  0.00  0.00    +0.032 A 
ATOM     30  C   UNL     1      -1.323   3.547   3.105  0.00  0.00    +0.051 A 
ATOM     31  C   UNL     1      -2.239   2.680   3.677  0.00  0.00    +0.162 A 
ATOM     32  C   UNL     1      -2.453   1.428   3.119  0.00  0.00    +0.164 A 
ATOM     33  C   UNL     1      -1.751   1.043   1.989  0.00  0.00    +0.078 A 
ATOM     34  O   UNL     1      -3.358   0.582   3.689  0.00  0.00    -0.488 OA
ATOM     35  C   UNL     1      -3.006   0.065   4.974  0.00  0.00    +0.232 C 
ATOM     36  C   UNL     1      -3.395   1.042   6.073  0.00  0.00    +0.082 C 
ATOM     37  C   UNL     1      -2.617   2.345   5.991  0.00  0.00    +0.232 C 
ATOM     38  O   UNL     1      -2.936   3.051   4.790  0.00  0.00    -0.488 OA
ENDBRANCH  25  28
ENDBRANCH  23  25
ENDBRANCH  22  23
ENDBRANCH  21  22
ENDBRANCH   1  21
TORSDOF 9
