REMARK  Name = ZINC36938960
REMARK  5 active torsions:
REMARK  status: ('A' for Active; 'I' for Inactive)
REMARK    1  A    between atoms: C_1  and  C_2
REMARK    2  A    between atoms: C_3  and  C_21
REMARK    3  A    between atoms: N_4  and  C_12
REMARK    4  A    between atoms: C_7  and  N_11
REMARK    5  A    between atoms: C_18  and  C_20
REMARK                            x       y       z     vdW  Elec       q    Type
REMARK                         _______ _______ _______ _____ _____    ______ ____
ROOT
ATOM      1  C   UNL     1      -0.168   1.497   0.016  0.00  0.00    +0.046 C 
ATOM      2  C   UNL     1      -0.066  -0.007   0.005  0.00  0.00    -0.017 A 
ATOM      3  C   UNL     1      -0.090  -0.803  -1.077  0.00  0.00    +0.021 A 
ATOM      4  N   UNL     1       0.028  -2.113  -0.692  0.00  0.00    -0.326 N 
ATOM      5  C   UNL     1       0.133  -2.194   0.669  0.00  0.00    +0.146 A 
ATOM      6  C   UNL     1       0.086  -0.879   1.168  0.00  0.00    +0.062 A 
ATOM      7  C   UNL     1       0.181  -0.681   2.554  0.00  0.00    +0.129 A 
ATOM      8  N   UNL     1       0.316  -1.748   3.336  0.00  0.00    -0.220 NA
ATOM      9  C   UNL     1       0.359  -2.965   2.826  0.00  0.00    +0.225 A 
ATOM     10  N   UNL     1       0.265  -3.198   1.534  0.00  0.00    -0.218 NA
ATOM     11  C   UNL     1      -0.227  -0.327  -2.500  0.00  0.00    +0.064 C 
ENDROOT
BRANCH   4  12
ATOM     12  C   UNL     1       0.039  -3.259  -1.605  0.00  0.00    +0.092 C 
ATOM     13  C   UNL     1      -1.129  -4.189  -1.270  0.00  0.00    +0.025 C 
ATOM     14  C   UNL     1      -0.990  -4.684   0.172  0.00  0.00    +0.002 C 
ATOM     15  C   UNL     1       0.329  -5.445   0.324  0.00  0.00    +0.000 C 
ATOM     16  C   UNL     1       1.496  -4.515  -0.011  0.00  0.00    +0.005 C 
ATOM     17  C   UNL     1       1.357  -4.020  -1.452  0.00  0.00    +0.009 C 
ATOM     18  C   UNL     1       2.525  -3.090  -1.787  0.00  0.00    +0.009 C 
ENDBRANCH   4  12
BRANCH   7  19
ATOM     19  N   UNL     1       0.137   0.593   3.092  0.00  0.00    -0.343 N 
ATOM     20  H   UNL     1       0.039   1.362   2.510  0.00  0.00    +0.144 HD
ATOM     21  H   UNL     1       0.204   0.716   4.052  0.00  0.00    +0.144 HD
ENDBRANCH   7  19
TORSDOF 2
