REMARK  Name = ZINC45680822
REMARK  11 active torsions:
REMARK  status: ('A' for Active; 'I' for Inactive)
REMARK    1  A    between atoms: C_1  and  C_2
REMARK    2  A    between atoms: C_2  and  C_4
REMARK    3  A    between atoms: C_2  and  O_13
REMARK    4  A    between atoms: N_9  and  C_10
REMARK    5  A    between atoms: C_10  and  C_11
REMARK    6  A    between atoms: C_10  and  C_12
REMARK    7  A    between atoms: O_13  and  C_14
REMARK    8  A    between atoms: C_14  and  C_16
REMARK    9  A    between atoms: C_22  and  O_24
REMARK   10  A    between atoms: O_24  and  C_25
REMARK   11  A    between atoms: C_25  and  C_26
REMARK                            x       y       z     vdW  Elec       q    Type
REMARK                         _______ _______ _______ _____ _____    ______ ____
ROOT
ATOM      1  C   UNL     1      -0.085  -0.672  -2.263  0.00  0.00    +0.311 C 
ATOM      2  O   UNL     1      -1.276  -0.469  -2.220  0.00  0.00    -0.251 OA
ENDROOT
BRANCH   1   3
ATOM      3  C   UNL     1       0.551  -1.158  -3.540  0.00  0.00    +0.101 C 
ATOM      4  C   UNL     1       1.601  -0.146  -4.004  0.00  0.00    +0.034 C 
ATOM      5  C   UNL     1       2.269  -0.660  -5.283  0.00  0.00    +0.112 C 
ATOM      6  N   UNL     1       1.227  -0.948  -6.279  0.00  0.00    -0.267 N 
ATOM      7  C   UNL     1       0.120  -1.839  -5.905  0.00  0.00    +0.112 C 
ATOM      8  C   UNL     1      -0.524  -1.312  -4.619  0.00  0.00    +0.034 C 
ATOM      9  C   UNL     1       1.286  -0.405  -7.511  0.00  0.00    +0.403 C 
ATOM     10  O   UNL     1       2.206   0.330  -7.807  0.00  0.00    -0.226 OA
BRANCH   9  11
ATOM     11  O   UNL     1       0.324  -0.677  -8.413  0.00  0.00    -0.441 OA
BRANCH  11  12
ATOM     12  C   UNL     1       0.449  -0.067  -9.699  0.00  0.00    +0.346 C 
BRANCH  12  13
ATOM     13  C   UNL     1      -0.727  -0.491 -10.581  0.00  0.00    +0.424 C 
ATOM     14  F   UNL     1      -1.926  -0.083  -9.987  0.00  0.00    -0.167 F 
ATOM     15  F   UNL     1      -0.604   0.106 -11.840  0.00  0.00    -0.167 F 
ATOM     16  F   UNL     1      -0.726  -1.883 -10.723  0.00  0.00    -0.167 F 
ENDBRANCH  12  13
ENDBRANCH  11  12
ENDBRANCH   9  11
ENDBRANCH   1   3
BRANCH   1  17
ATOM     17  O   UNL     1       0.671  -0.465  -1.174  0.00  0.00    -0.452 OA
BRANCH  17  19
ATOM     18  C   UNL     1      -0.019   1.526   0.010  0.00  0.00    +0.062 C 
ATOM     19  C   UNL     1       0.002  -0.004   0.002  0.00  0.00    +0.259 C 
BRANCH  19  20
ATOM     20  C   UNL     1       0.731  -0.503   1.223  0.00  0.00    +0.261 C 
ATOM     21  O   UNL     1       1.774  -1.109   1.101  0.00  0.00    -0.271 OA
ATOM     22  N   UNL     1       0.223  -0.277   2.451  0.00  0.00    -0.237 N 
ATOM     23  C   UNL     1       0.875  -0.723   3.542  0.00  0.00    +0.306 C 
ATOM     24  O   UNL     1       1.921  -1.330   3.420  0.00  0.00    -0.252 OA
ATOM     25  N   UNL     1       0.367  -0.496   4.770  0.00  0.00    -0.297 N 
ATOM     26  H   UNL     1      -0.611   0.208   2.548  0.00  0.00    +0.159 HD
ATOM     27  H   UNL     1      -0.467  -0.011   4.868  0.00  0.00    +0.151 HD
BRANCH  25  28
ATOM     28  C   UNL     1       1.076  -0.981   5.957  0.00  0.00    +0.068 C 
ATOM     29  C   UNL     1       0.697  -0.121   7.164  0.00  0.00    +0.027 C 
ATOM     30  C   UNL     1       0.685  -2.436   6.225  0.00  0.00    +0.027 C 
ENDBRANCH  25  28
ENDBRANCH  19  20
ENDBRANCH  17  19
ENDBRANCH   1  17
TORSDOF 8
