REMARK  Name = ZINC54095363
REMARK  9 active torsions:
REMARK  status: ('A' for Active; 'I' for Inactive)
REMARK    1  A    between atoms: C_1  and  C_2
REMARK    2  A    between atoms: C_2  and  C_3
REMARK    3  A    between atoms: C_2  and  C_4
REMARK    4  A    between atoms: C_2  and  N_5
REMARK    5  A    between atoms: C_6  and  C_8
REMARK    6  A    between atoms: C_8  and  N_9
REMARK    7  A    between atoms: N_9  and  C_10
REMARK    8  A    between atoms: N_13  and  N_14
REMARK    9  A    between atoms: C_15  and  C_17
REMARK                            x       y       z     vdW  Elec       q    Type
REMARK                         _______ _______ _______ _____ _____    ______ ____
ROOT
ATOM      1  N   UNL     1       4.100  -0.047  -2.696  0.00  0.00    -0.279 N 
ATOM      2  C   UNL     1       5.321  -0.628  -2.134  0.00  0.00    +0.134 C 
ATOM      3  C   UNL     1       4.148   1.143  -3.328  0.00  0.00    +0.319 C 
ATOM      4  O   UNL     1       3.121   1.670  -3.710  0.00  0.00    -0.251 OA
ATOM      5  N   UNL     1       5.334   1.748  -3.535  0.00  0.00    -0.218 N 
ATOM      6  H   UNL     1       6.158   1.294  -3.298  0.00  0.00    +0.174 HD
ENDROOT
BRANCH   5   7
ATOM      7  N   UNL     1       5.377   3.032  -4.095  0.00  0.00    -0.228 N 
ATOM      8  C   UNL     1       6.554   3.678  -4.209  0.00  0.00    +0.276 C 
ATOM      9  O   UNL     1       7.580   3.146  -3.827  0.00  0.00    -0.267 OA
ATOM     10  H   UNL     1       4.559   3.456  -4.399  0.00  0.00    +0.173 HD
BRANCH   8  11
ATOM     11  C   UNL     1       6.599   5.022  -4.794  0.00  0.00    +0.104 A 
ATOM     12  C   UNL     1       7.727   5.793  -4.978  0.00  0.00    +0.047 A 
ATOM     13  C   UNL     1       7.313   6.994  -5.564  0.00  0.00    +0.036 A 
ATOM     14  C   UNL     1       5.969   6.936  -5.725  0.00  0.00    +0.098 A 
ATOM     15  N   UNL     1       5.524   5.740  -5.266  0.00  0.00    -0.356 N 
ATOM     16  H   UNL     1       4.601   5.442  -5.267  0.00  0.00    +0.166 HD
ATOM     17 BR   UNL     1       8.431   8.441  -6.046  0.00  0.00    -0.049 Br
ENDBRANCH   8  11
ENDBRANCH   5   7
BRANCH   1  18
ATOM     18  C   UNL     1       2.826  -0.760  -2.572  0.00  0.00    +0.204 C 
BRANCH  18  20
ATOM     19  N   UNL     1       0.941  -0.870  -0.974  0.00  0.00    -0.309 N 
ATOM     20  C   UNL     1       2.137  -0.341  -1.299  0.00  0.00    +0.231 C 
ATOM     21  O   UNL     1       2.659   0.473  -0.567  0.00  0.00    -0.274 OA
ATOM     22  H   UNL     1       0.524  -1.521  -1.559  0.00  0.00    +0.149 HD
BRANCH  19  24
ATOM     23  C   UNL     1       0.012   1.045   0.231  0.00  0.00    +0.031 C 
ATOM     24  C   UNL     1       0.272  -0.463   0.264  0.00  0.00    +0.026 C 
ATOM     25  C   UNL     1       1.164  -0.800   1.461  0.00  0.00    +0.031 C 
ATOM     26  C   UNL     1      -1.058  -1.207   0.394  0.00  0.00    +0.031 C 
ENDBRANCH  19  24
ENDBRANCH  18  20
ENDBRANCH   1  18
TORSDOF 5
