REMARK  Name = ZINC36499404
REMARK  13 active torsions:
REMARK  status: ('A' for Active; 'I' for Inactive)
REMARK    1  A    between atoms: C_1  and  C_2
REMARK    2  A    between atoms: C_5  and  S_8
REMARK    3  A    between atoms: S_8  and  C_11
REMARK    4  A    between atoms: C_11  and  N_12
REMARK    5  A    between atoms: C_13  and  C_15
REMARK    6  A    between atoms: C_15  and  C_17
REMARK    7  A    between atoms: C_15  and  N_27
REMARK    8  A    between atoms: C_20  and  O_25
REMARK    9  A    between atoms: C_21  and  O_23
REMARK   10  A    between atoms: O_23  and  C_24
REMARK   11  A    between atoms: O_25  and  C_26
REMARK   12  A    between atoms: N_27  and  C_28
REMARK   13  A    between atoms: C_28  and  C_29
REMARK                            x       y       z     vdW  Elec       q    Type
REMARK                         _______ _______ _______ _____ _____    ______ ____
ROOT
ATOM      1  C   UNL     1       3.204  -4.940   3.531  0.00  0.00    +0.192 C 
ENDROOT
BRANCH   1   2
ATOM      2  C   UNL     1       4.702  -4.964   3.368  0.00  0.00    -0.015 A 
ATOM      3  C   UNL     1       5.258  -4.946   2.102  0.00  0.00    +0.010 A 
ATOM      4  C   UNL     1       6.631  -4.968   1.947  0.00  0.00    +0.050 A 
ATOM      5  C   UNL     1       7.454  -5.007   3.062  0.00  0.00    +0.162 A 
ATOM      6  C   UNL     1       6.894  -5.024   4.336  0.00  0.00    +0.162 A 
ATOM      7  C   UNL     1       5.516  -4.997   4.484  0.00  0.00    +0.055 A 
BRANCH   6   8
ATOM      8  O   UNL     1       7.697  -5.063   5.433  0.00  0.00    -0.491 OA
ATOM      9  C   UNL     1       7.053  -5.079   6.708  0.00  0.00    +0.277 C 
ENDBRANCH   6   8
BRANCH   5  10
ATOM     10  O   UNL     1       8.805  -5.029   2.911  0.00  0.00    -0.491 OA
ATOM     11  C   UNL     1       9.309  -5.010   1.574  0.00  0.00    +0.277 C 
ENDBRANCH   5  10
ENDBRANCH   1   2
BRANCH   1  13
ATOM     12  N   UNL     1       2.420  -4.532   1.221  0.00  0.00    -0.294 N 
ATOM     13  C   UNL     1       2.552  -5.392   2.250  0.00  0.00    +0.239 C 
ATOM     14  O   UNL     1       2.146  -6.530   2.145  0.00  0.00    -0.273 OA
ATOM     15  H   UNL     1       2.744  -3.622   1.304  0.00  0.00    +0.150 HD
BRANCH  12  16
ATOM     16  C   UNL     1       1.786  -4.972  -0.025  0.00  0.00    +0.278 C 
BRANCH  16  17
ATOM     17  S   UNL     1       0.026  -4.532   0.004  0.00  0.00    +0.013 S 
ATOM     18  O   UNL     1      -0.553  -4.911   1.245  0.00  0.00    -0.168 OA
ATOM     19  O   UNL     1      -0.590  -4.895  -1.224  0.00  0.00    -0.168 OA
BRANCH  17  24
ATOM     20  C   UNL     1      -0.065   1.501   0.044  0.00  0.00    +0.044 C 
ATOM     21  C   UNL     1      -0.042  -0.005   0.034  0.00  0.00    -0.050 A 
ATOM     22  C   UNL     1      -0.049  -0.689  -1.168  0.00  0.00    +0.005 A 
ATOM     23  C   UNL     1      -0.027  -2.071  -1.177  0.00  0.00    +0.027 A 
ATOM     24  C   UNL     1       0.000  -2.770   0.016  0.00  0.00    +0.090 A 
ATOM     25  C   UNL     1       0.008  -2.086   1.217  0.00  0.00    +0.027 A 
ATOM     26  C   UNL     1      -0.009  -0.704   1.226  0.00  0.00    +0.005 A 
ENDBRANCH  17  24
ENDBRANCH  16  17
ENDBRANCH  12  16
ENDBRANCH   1  13
BRANCH   1  27
ATOM     27  N   UNL     1       2.817  -5.840   4.620  0.00  0.00    -0.281 N 
ATOM     28  C   UNL     1       3.207  -7.130   4.600  0.00  0.00    +0.329 C 
ATOM     29  O   UNL     1       3.956  -7.523   3.730  0.00  0.00    -0.279 OA
BRANCH  27  30
ATOM     30  C   UNL     1       2.005  -5.338   5.732  0.00  0.00    +0.182 C 
BRANCH  30  31
ATOM     31  C   UNL     1       0.544  -5.513   5.406  0.00  0.00    +0.122 A 
ATOM     32  C   UNL     1      -0.204  -6.592   5.699  0.00  0.00    +0.046 A 
ATOM     33  C   UNL     1      -1.506  -6.331   5.215  0.00  0.00    +0.041 A 
ATOM     34  C   UNL     1      -1.477  -5.109   4.655  0.00  0.00    +0.195 A 
ATOM     35  O   UNL     1      -0.234  -4.615   4.778  0.00  0.00    -0.466 OA
ENDBRANCH  30  31
ENDBRANCH  27  30
ENDBRANCH   1  27
TORSDOF 10
