REMARK  Name = ZINC44320521
REMARK  9 active torsions:
REMARK  status: ('A' for Active; 'I' for Inactive)
REMARK    1  A    between atoms: C_1  and  C_2
REMARK    2  A    between atoms: C_2  and  C_36
REMARK    3  A    between atoms: C_7  and  C_12
REMARK    4  A    between atoms: C_12  and  CA_13
REMARK    5  A    between atoms: CA_13  and  C_15
REMARK    6  A    between atoms: CA_13  and  N_18
REMARK    7  A    between atoms: C_19  and  O_21
REMARK    8  A    between atoms: O_21  and  C_22
REMARK    9  A    between atoms: C_22  and  C_23
REMARK                            x       y       z     vdW  Elec       q    Type
REMARK                         _______ _______ _______ _____ _____    ______ ____
ROOT
ATOM      1  N   UNL     1       6.066   2.060   3.099  0.00  0.00    -0.267 N 
ATOM      2  C   UNL     1       5.766   3.349   3.358  0.00  0.00    +0.401 C 
ATOM      3  O   UNL     1       5.933   4.195   2.502  0.00  0.00    -0.226 OA
ATOM      4  H   UNL     1       5.933   1.385   3.782  0.00  0.00    +0.153 HD
ENDROOT
BRANCH   1   5
ATOM      5  CA  UNL     1       6.593   1.681   1.786  0.00  0.00    +0.193 C 
BRANCH   5   6
ATOM      6  C   UNL     1       8.087   1.882   1.767  0.00  0.00    +0.376 C 
ATOM      7  O   UNL     1       8.700   1.800   0.716  0.00  0.00    -0.244 OA
ATOM      8  OXT UNL     1       8.682   2.126   2.803  0.00  0.00    -0.244 OA
ENDBRANCH   5   6
BRANCH   5   9
ATOM      9  C   UNL     1       6.274   0.210   1.514  0.00  0.00    +0.069 C 
BRANCH   9  16
ATOM     10  C   UNL     1      -0.019   1.526   0.010  0.00  0.00    +0.055 C 
ATOM     11  C   UNL     1       0.002  -0.004   0.002  0.00  0.00    +0.105 C 
ATOM     12  C   UNL     1       0.743  -0.504  -1.245  0.00  0.00    +0.052 C 
ATOM     13  C   UNL     1       2.132   0.137  -1.268  0.00  0.00    +0.042 C 
ATOM     14  C   UNL     1       2.782  -0.009   0.085  0.00  0.00    -0.005 A 
ATOM     15  C   UNL     1       4.153   0.154   0.187  0.00  0.00    +0.011 A 
ATOM     16  C   UNL     1       4.781   0.031   1.411  0.00  0.00    -0.045 A 
ATOM     17  C   UNL     1       4.039  -0.257   2.542  0.00  0.00    +0.007 A 
ATOM     18  C   UNL     1       2.673  -0.423   2.446  0.00  0.00    +0.046 A 
ATOM     19  C   UNL     1       2.037  -0.302   1.214  0.00  0.00    +0.124 A 
ATOM     20  O   UNL     1       0.692  -0.482   1.158  0.00  0.00    -0.486 OA
ATOM     21  C   UNL     1      -1.431  -0.539  -0.000  0.00  0.00    +0.055 C 
ENDBRANCH   9  16
ENDBRANCH   5   9
ENDBRANCH   1   5
BRANCH   2  22
ATOM     22  O   UNL     1       5.281   3.697   4.565  0.00  0.00    -0.449 OA
BRANCH  22  23
ATOM     23  C   UNL     1       4.985   5.080   4.770  0.00  0.00    +0.246 C 
BRANCH  23  24
ATOM     24  C   UNL     1       4.449   5.282   6.189  0.00  0.00    +0.088 C 
ATOM     25  C   UNL     1       5.544   5.037   7.198  0.00  0.00    -0.029 A 
ATOM     26  C   UNL     1       6.308   3.926   7.484  0.00  0.00    +0.005 A 
ATOM     27  C   UNL     1       7.263   3.980   8.483  0.00  0.00    +0.000 A 
ATOM     28  C   UNL     1       7.455   5.150   9.196  0.00  0.00    +0.001 A 
ATOM     29  C   UNL     1       6.696   6.267   8.916  0.00  0.00    +0.009 A 
ATOM     30  C   UNL     1       5.730   6.219   7.910  0.00  0.00    -0.014 A 
ATOM     31  C   UNL     1       4.789   7.251   7.408  0.00  0.00    -0.014 A 
ATOM     32  C   UNL     1       4.016   6.715   6.382  0.00  0.00    -0.029 A 
ATOM     33  C   UNL     1       3.063   7.487   5.752  0.00  0.00    +0.005 A 
ATOM     34  C   UNL     1       2.871   8.801   6.138  0.00  0.00    +0.000 A 
ATOM     35  C   UNL     1       3.634   9.344   7.156  0.00  0.00    +0.001 A 
ATOM     36  C   UNL     1       4.590   8.579   7.792  0.00  0.00    +0.009 A 
ENDBRANCH  23  24
ENDBRANCH  22  23
ENDBRANCH   2  22
TORSDOF 7
