REMARK  Name = ZINC13726464
REMARK  14 active torsions:
REMARK  status: ('A' for Active; 'I' for Inactive)
REMARK    1  A    between atoms: C_1  and  C_2
REMARK    2  A    between atoms: C_2  and  C_4
REMARK    3  A    between atoms: C_2  and  N_66
REMARK    4  A    between atoms: C_4  and  C_5
REMARK    5  A    between atoms: C_5  and  C_6
REMARK    6  A    between atoms: C_12  and  C_13
REMARK    7  A    between atoms: C_12  and  N_66
REMARK    8  A    between atoms: C_16  and  O_19
REMARK    9  A    between atoms: O_19  and  C_20
REMARK   10  A    between atoms: C_20  and  C_21
REMARK   11  A    between atoms: C_21  and  C_23
REMARK   12  A    between atoms: C_21  and  O_35
REMARK   13  A    between atoms: N_29  and  C_34
REMARK   14  A    between atoms: N_32  and  C_33
REMARK                            x       y       z     vdW  Elec       q    Type
REMARK                         _______ _______ _______ _____ _____    ______ ____
ROOT
ATOM      1  C   UNL     1       8.672  -0.744   0.204  0.00  0.00    -0.064 A 
ATOM      2  C   UNL     1       9.713  -0.293  -0.587  0.00  0.00    +0.005 A 
ATOM      3  C   UNL     1      10.675   0.544  -0.056  0.00  0.00    +0.046 A 
ATOM      4  C   UNL     1      10.603   0.923   1.277  0.00  0.00    +0.121 A 
ATOM      5  C   UNL     1       9.561   0.464   2.071  0.00  0.00    +0.046 A 
ATOM      6  C   UNL     1       8.599  -0.368   1.533  0.00  0.00    +0.005 A 
ENDROOT
BRANCH   1   7
ATOM      7  C   UNL     1       7.621  -1.651  -0.380  0.00  0.00    -0.046 C 
BRANCH   7   8
ATOM      8  N   UNL     1       6.523  -0.831  -0.924  0.00  0.00    +0.383 N 
ATOM      9  H   UNL     1       6.115  -0.267  -0.170  0.00  0.00    -0.085 HD
ATOM     10  H   UNL     1       6.893  -0.211  -1.654  0.00  0.00    -0.085 HD
BRANCH   8  12
ATOM     11  C   UNL     1       5.846  -2.046  -2.947  0.00  0.00    -0.014 C 
ATOM     12  C   UNL     1       5.477  -1.695  -1.504  0.00  0.00    -0.074 C 
BRANCH  12  13
ATOM     13  C   UNL     1       4.142  -0.948  -1.487  0.00  0.00    -0.011 C 
BRANCH  13  14
ATOM     14  C   UNL     1       3.711  -0.707  -0.039  0.00  0.00    +0.033 C 
BRANCH  14  15
ATOM     15  C   UNL     1       2.396   0.029  -0.022  0.00  0.00    -0.047 A 
ATOM     16  C   UNL     1       1.208  -0.679  -0.014  0.00  0.00    +0.003 A 
ATOM     17  C   UNL     1       0.002  -0.004   0.002  0.00  0.00    +0.000 A 
ATOM     18  C   UNL     1      -0.017   1.378   0.010  0.00  0.00    +0.000 A 
ATOM     19  C   UNL     1       1.171   2.086   0.002  0.00  0.00    +0.000 A 
ATOM     20  C   UNL     1       2.377   1.411  -0.014  0.00  0.00    +0.003 A 
ENDBRANCH  14  15
ENDBRANCH  13  14
ENDBRANCH  12  13
ENDBRANCH   8  12
ENDBRANCH   7   8
ENDBRANCH   1   7
BRANCH   4  21
ATOM     21  O   UNL     1      11.550   1.742   1.804  0.00  0.00    -0.489 OA
BRANCH  21  22
ATOM     22  C   UNL     1      12.593   2.175   0.928  0.00  0.00    +0.265 C 
BRANCH  22  23
ATOM     23  C   UNL     1      13.558   3.082   1.694  0.00  0.00    +0.182 C 
BRANCH  23  24
ATOM     24  C   UNL     1      14.588   3.637   0.743  0.00  0.00    -0.014 A 
ATOM     25  C   UNL     1      15.673   2.861   0.372  0.00  0.00    +0.008 A 
ATOM     26  C   UNL     1      16.618   3.358  -0.503  0.00  0.00    +0.028 A 
ATOM     27  C   UNL     1      16.486   4.645  -1.003  0.00  0.00    +0.070 A 
ATOM     28  C   UNL     1      15.395   5.429  -0.625  0.00  0.00    +0.070 A 
ATOM     29  C   UNL     1      14.447   4.919   0.250  0.00  0.00    +0.034 A 
ATOM     30  N   UNL     1      15.532   6.652  -1.278  0.00  0.00    -0.295 N 
ATOM     31  C   UNL     1      16.655   6.612  -2.020  0.00  0.00    +0.330 A 
ATOM     32  O   UNL     1      17.068   7.522  -2.715  0.00  0.00    -0.246 OA
ATOM     33  N   UNL     1      17.253   5.415  -1.875  0.00  0.00    -0.295 N 
ATOM     34  C   UNL     1      18.498   4.993  -2.522  0.00  0.00    +0.154 C 
ATOM     35  C   UNL     1      14.611   7.787  -1.177  0.00  0.00    +0.154 C 
ENDBRANCH  23  24
BRANCH  23  36
ATOM     36  O   UNL     1      14.212   2.327   2.716  0.00  0.00    -0.384 OA
ATOM     37  H   UNL     1      14.727   1.579   2.385  0.00  0.00    +0.210 HD
ENDBRANCH  23  36
ENDBRANCH  22  23
ENDBRANCH  21  22
ENDBRANCH   4  21
TORSDOF 11
