REMARK  Name = ZINC57003482
REMARK  4 active torsions:
REMARK  status: ('A' for Active; 'I' for Inactive)
REMARK    1  A    between atoms: C_1  and  C_2
REMARK    2  A    between atoms: C_8  and  N_10
REMARK    3  A    between atoms: N_13  and  C_14
REMARK    4  A    between atoms: C_23  and  O_25
REMARK                            x       y       z     vdW  Elec       q    Type
REMARK                         _______ _______ _______ _____ _____    ______ ____
ROOT
ATOM      1  N   UNL     1       2.116  -0.004   1.231  0.00  0.00    -0.296 N 
ATOM      2  C   UNL     1       2.795   0.128   2.388  0.00  0.00    +0.300 C 
ATOM      3  O   UNL     1       2.266  -0.174   3.441  0.00  0.00    -0.253 OA
ATOM      4  N   UNL     1       4.059   0.594   2.379  0.00  0.00    -0.290 N 
ATOM      5  H   UNL     1       2.538   0.237   0.392  0.00  0.00    +0.151 HD
ATOM      6  H   UNL     1       4.481   0.835   1.539  0.00  0.00    +0.151 HD
ENDROOT
BRANCH   4   7
ATOM      7  C   UNL     1       4.797   0.737   3.636  0.00  0.00    +0.134 C 
ATOM      8  C   UNL     1       4.530   2.095   4.250  0.00  0.00    -0.021 A 
ATOM      9  C   UNL     1       3.438   2.557   4.966  0.00  0.00    +0.006 A 
ATOM     10  C   UNL     1       3.413   3.856   5.435  0.00  0.00    +0.000 A 
ATOM     11  C   UNL     1       4.482   4.698   5.191  0.00  0.00    +0.000 A 
ATOM     12  C   UNL     1       5.572   4.239   4.478  0.00  0.00    +0.004 A 
ATOM     13  C   UNL     1       5.598   2.937   4.006  0.00  0.00    -0.040 A 
ATOM     14  C   UNL     1       6.657   2.203   3.211  0.00  0.00    +0.069 C 
ATOM     15  C   UNL     1       6.317   0.703   3.373  0.00  0.00    +0.143 C 
BRANCH  15  16
ATOM     16  O   UNL     1       6.609  -0.018   2.174  0.00  0.00    -0.389 OA
ATOM     17  H   UNL     1       7.551  -0.068   1.964  0.00  0.00    +0.210 HD
ENDBRANCH  15  16
ENDBRANCH   4   7
BRANCH   1  24
ATOM     18  C   UNL     1      -0.019   1.526   0.010  0.00  0.00    +0.009 C 
ATOM     19  C   UNL     1       0.002  -0.004   0.002  0.00  0.00    +0.006 C 
ATOM     20  C   UNL     1       0.718  -0.497  -1.257  0.00  0.00    +0.005 C 
ATOM     21  C   UNL     1       0.739  -2.027  -1.265  0.00  0.00    +0.000 C 
ATOM     22  C   UNL     1       1.479  -2.534  -0.026  0.00  0.00    +0.002 C 
ATOM     23  C   UNL     1       0.763  -2.041   1.233  0.00  0.00    +0.022 C 
ATOM     24  C   UNL     1       0.742  -0.511   1.242  0.00  0.00    +0.077 C 
ENDBRANCH   1  24
TORSDOF 3
