REMARK  Name = ZINC37036852
REMARK  7 active torsions:
REMARK  status: ('A' for Active; 'I' for Inactive)
REMARK    1  A    between atoms: C_1  and  C_2
REMARK    2  A    between atoms: C_3  and  S_8
REMARK    3  A    between atoms: S_8  and  C_9
REMARK    4  A    between atoms: C_9  and  C_10
REMARK    5  A    between atoms: C_10  and  N_11
REMARK    6  A    between atoms: C_14  and  C_18
REMARK    7  A    between atoms: C_14  and  C_19
REMARK                            x       y       z     vdW  Elec       q    Type
REMARK                         _______ _______ _______ _____ _____    ______ ____
ROOT
ATOM      1  C   UNL     1       0.003  -1.562  -3.855  0.00  0.00    +0.094 C 
ENDROOT
BRANCH   1   2
ATOM      2  S   UNL     1      -0.012  -0.066  -2.829  0.00  0.00    -0.115 S 
BRANCH   2   5
ATOM      3  C   UNL     1      -0.018   1.503   0.010  0.00  0.00    +0.067 C 
ATOM      4  C   UNL     1       0.002  -0.004   0.002  0.00  0.00    +0.061 A 
ATOM      5  C   UNL     1       0.005  -0.682  -1.178  0.00  0.00    +0.069 A 
ATOM      6  S   UNL     1       0.031  -2.370  -0.589  0.00  0.00    -0.046 S 
ATOM      7  C   UNL     1       0.035  -1.995   1.158  0.00  0.00    +0.157 A 
ATOM      8  N   UNL     1       0.022  -0.675   1.141  0.00  0.00    -0.229 NA
ATOM      9  N   UNL     1       0.052  -2.861   2.245  0.00  0.00    -0.337 N 
ATOM     10  H   UNL     1       0.065  -3.820   2.100  0.00  0.00    +0.144 HD
ATOM     11  H   UNL     1       0.052  -2.507   3.148  0.00  0.00    +0.144 HD
ENDBRANCH   2   5
ENDBRANCH   1   2
BRANCH   1  12
ATOM     12  C   UNL     1      -0.010  -1.167  -5.333  0.00  0.00    +0.129 C 
BRANCH  12  13
ATOM     13  N   UNL     1       0.002  -2.374  -6.162  0.00  0.00    -0.223 N 
ATOM     14  C   UNL     1       1.124  -2.986  -6.592  0.00  0.00    +0.246 C 
ATOM     15  O   UNL     1       2.269  -2.654  -6.374  0.00  0.00    -0.273 OA
ATOM     16  C   UNL     1       0.655  -4.177  -7.404  0.00  0.00    +0.107 C 
ATOM     17  N   UNL     1      -0.814  -4.090  -7.330  0.00  0.00    -0.285 N 
ATOM     18  C   UNL     1      -1.098  -3.010  -6.581  0.00  0.00    +0.309 C 
ATOM     19  O   UNL     1      -2.228  -2.649  -6.317  0.00  0.00    -0.252 OA
ATOM     20  C   UNL     1       1.149  -5.483  -6.778  0.00  0.00    +0.041 C 
ATOM     21  C   UNL     1       1.129  -4.061  -8.853  0.00  0.00    +0.041 C 
ATOM     22  H   UNL     1      -1.451  -4.696  -7.739  0.00  0.00    +0.151 HD
ENDBRANCH  12  13
ENDBRANCH   1  12
TORSDOF 4
