REMARK  Name = ZINC63802968
REMARK  9 active torsions:
REMARK  status: ('A' for Active; 'I' for Inactive)
REMARK    1  A    between atoms: C_1  and  C_2
REMARK    2  A    between atoms: C_6  and  C_8
REMARK    3  A    between atoms: C_6  and  N_18
REMARK    4  A    between atoms: C_8  and  N_9
REMARK    5  A    between atoms: C_10  and  C_12
REMARK    6  A    between atoms: C_12  and  C_13
REMARK    7  A    between atoms: C_12  and  N_14
REMARK    8  A    between atoms: N_18  and  C_19
REMARK    9  A    between atoms: N_18  and  C_20
REMARK                            x       y       z     vdW  Elec       q    Type
REMARK                         _______ _______ _______ _____ _____    ______ ____
ROOT
ATOM      1  N   UNL     1      -0.700  -4.079   0.966  0.00  0.00    -0.315 N 
ATOM      2  C   UNL     1      -1.874  -4.698   0.732  0.00  0.00    +0.233 C 
ATOM      3  O   UNL     1      -2.843  -4.053   0.393  0.00  0.00    -0.274 OA
ATOM      4  H   UNL     1       0.075  -4.596   1.238  0.00  0.00    +0.149 HD
ENDROOT
BRANCH   2   5
ATOM      5  C   UNL     1      -1.983  -6.193   0.892  0.00  0.00    +0.157 C 
ATOM      6  C   UNL     1      -1.643  -6.578   2.333  0.00  0.00    +0.038 C 
BRANCH   5   7
ATOM      7  N   UNL     1      -3.350  -6.619   0.582  0.00  0.00    -0.289 N 
ATOM      8  C   UNL     1      -3.585  -7.879   0.164  0.00  0.00    +0.298 C 
ATOM      9  O   UNL     1      -2.662  -8.661   0.045  0.00  0.00    -0.253 OA
ATOM     10  N   UNL     1      -4.843  -8.271  -0.120  0.00  0.00    -0.313 N 
ATOM     11  H   UNL     1      -4.086  -5.995   0.678  0.00  0.00    +0.151 HD
ATOM     12  H   UNL     1      -5.579  -7.646  -0.025  0.00  0.00    +0.146 HD
ATOM     13  H   UNL     1      -5.012  -9.177  -0.421  0.00  0.00    +0.146 HD
ENDBRANCH   5   7
ENDBRANCH   2   5
BRANCH   1  14
ATOM     14  C   UNL     1      -0.595  -2.626   0.811  0.00  0.00    +0.092 C 
BRANCH  14  20
ATOM     15  C   UNL     1       0.647   1.336  -0.408  0.00  0.00    +0.007 C 
ATOM     16  C   UNL     1       0.560  -0.190  -0.335  0.00  0.00    -0.015 C 
ATOM     17  C   UNL     1       1.542  -0.805  -1.334  0.00  0.00    +0.003 C 
ATOM     18  C   UNL     1       1.456  -2.331  -1.260  0.00  0.00    -0.001 C 
ATOM     19  C   UNL     1       1.810  -2.794   0.154  0.00  0.00    -0.010 C 
ATOM     20  C   UNL     1       0.828  -2.179   1.153  0.00  0.00    -0.050 C 
ATOM     21  C   UNL     1       0.914  -0.653   1.079  0.00  0.00    -0.007 C 
BRANCH  20  22
ATOM     22  N   UNL     1       1.168  -2.624   2.511  0.00  0.00    +0.381 N 
ATOM     23  C   UNL     1       2.504  -2.128   2.869  0.00  0.00    -0.096 C 
ATOM     24  C   UNL     1       0.180  -2.096   3.461  0.00  0.00    -0.096 C 
ATOM     25  H   UNL     1       1.163  -3.632   2.546  0.00  0.00    -0.082 HD
ENDBRANCH  20  22
ENDBRANCH  14  20
ENDBRANCH   1  14
TORSDOF 5
