REMARK  Name = ZINC36629533
REMARK  6 active torsions:
REMARK  status: ('A' for Active; 'I' for Inactive)
REMARK    1  A    between atoms: C_1  and  C_2
REMARK    2  A    between atoms: C_2  and  C_3
REMARK    3  A    between atoms: C_3  and  N_4
REMARK    4  A    between atoms: C_10  and  N_15
REMARK    5  A    between atoms: C_11  and  C_12
REMARK    6  A    between atoms: C_16  and  C_18
REMARK                            x       y       z     vdW  Elec       q    Type
REMARK                         _______ _______ _______ _____ _____    ______ ____
ROOT
ATOM      1  N   UNL     1       0.762  -1.980   1.234  0.00  0.00    +0.383 N 
ATOM      2  C   UNL     1       1.362  -2.467   2.482  0.00  0.00    -0.074 C 
ATOM      3  C   UNL     1       1.113  -3.971   2.636  0.00  0.00    +0.018 C 
ATOM      4  C   UNL     1       1.567  -4.654   1.354  0.00  0.00    -0.027 A 
ATOM      5  C   UNL     1       1.756  -3.929   0.228  0.00  0.00    -0.021 A 
ATOM      6  S   UNL     1       2.272  -5.109  -0.981  0.00  0.00    -0.079 S 
ATOM      7  C   UNL     1       2.241  -6.507  -0.050  0.00  0.00    +0.084 A 
ATOM      8  C   UNL     1       1.832  -6.071   1.202  0.00  0.00    +0.068 A 
ATOM      9  C   UNL     1       1.555  -2.454   0.084  0.00  0.00    -0.035 C 
ATOM     10  H   UNL     1      -0.182  -2.328   1.157  0.00  0.00    -0.081 HD
ENDROOT
BRANCH   8  11
ATOM     11  C   UNL     1       1.675  -7.003   2.323  0.00  0.00    +0.244 C 
ATOM     12  O   UNL     1       0.604  -7.549   2.515  0.00  0.00    -0.270 OA
ATOM     13  N   UNL     1       2.716  -7.256   3.141  0.00  0.00    -0.325 N 
ATOM     14  H   UNL     1       3.570  -6.821   2.988  0.00  0.00    +0.145 HD
ATOM     15  H   UNL     1       2.612  -7.872   3.882  0.00  0.00    +0.145 HD
ENDBRANCH   8  11
BRANCH   7  16
ATOM     16  N   UNL     1       2.552  -7.800  -0.442  0.00  0.00    -0.279 N 
ATOM     17  C   UNL     1       2.936  -8.045  -1.711  0.00  0.00    +0.230 C 
ATOM     18  O   UNL     1       3.009  -7.135  -2.509  0.00  0.00    -0.274 OA
ATOM     19  H   UNL     1       2.494  -8.528   0.196  0.00  0.00    +0.155 HD
BRANCH  17  20
ATOM     20  C   UNL     1       3.274  -9.450  -2.138  0.00  0.00    +0.142 C 
ATOM     21  C   UNL     1       4.401  -9.971  -1.287  0.00  0.00    +0.011 A 
ATOM     22  C   UNL     1       4.134 -10.410  -0.002  0.00  0.00    +0.008 A 
ATOM     23  C   UNL     1       5.155 -10.892   0.794  0.00  0.00    +0.001 A 
ATOM     24  C   UNL     1       6.449 -10.936   0.309  0.00  0.00    +0.004 A 
ATOM     25  C   UNL     1       6.721 -10.499  -0.972  0.00  0.00    +0.046 A 
ATOM     26  C   UNL     1       5.696 -10.014  -1.776  0.00  0.00    +0.133 A 
ATOM     27  O   UNL     1       5.982  -9.591  -3.031  0.00  0.00    -0.455 OA
ATOM     28  C   UNL     1       5.001  -9.518  -3.962  0.00  0.00    +0.133 A 
ATOM     29  C   UNL     1       3.668  -9.448  -3.590  0.00  0.00    +0.011 A 
ATOM     30  C   UNL     1       2.684  -9.374  -4.560  0.00  0.00    +0.008 A 
ATOM     31  C   UNL     1       3.027  -9.371  -5.899  0.00  0.00    +0.001 A 
ATOM     32  C   UNL     1       4.356  -9.442  -6.273  0.00  0.00    +0.004 A 
ATOM     33  C   UNL     1       5.342  -9.515  -5.310  0.00  0.00    +0.046 A 
ENDBRANCH  17  20
ENDBRANCH   7  16
BRANCH   1  34
ATOM     34  C   UNL     1       0.742  -0.511   1.242  0.00  0.00    -0.079 C 
BRANCH  34  36
ATOM     35  C   UNL     1      -0.019   1.526   0.010  0.00  0.00    +0.002 C 
ATOM     36  C   UNL     1       0.002  -0.004   0.002  0.00  0.00    -0.022 C 
ENDBRANCH  34  36
ENDBRANCH   1  34
TORSDOF 5
