REMARK  Name = ZINC50871213
REMARK  4 active torsions:
REMARK  status: ('A' for Active; 'I' for Inactive)
REMARK    1  A    between atoms: C_1  and  C_2
REMARK    2  A    between atoms: C_5  and  C_7
REMARK    3  A    between atoms: C_10  and  C_14
REMARK    4  A    between atoms: C_11  and  N_13
REMARK                            x       y       z     vdW  Elec       q    Type
REMARK                         _______ _______ _______ _____ _____    ______ ____
ROOT
ATOM      1  C   UNL     1       1.663  -3.222  -0.024  0.00  0.00    +0.108 A 
ATOM      2  C   UNL     1       3.044  -3.002  -0.023  0.00  0.00    +0.033 A 
ATOM      3  C   UNL     1       3.898  -4.072  -0.033  0.00  0.00    +0.024 A 
ATOM      4  C   UNL     1       3.354  -5.365  -0.042  0.00  0.00    +0.091 A 
ATOM      5  C   UNL     1       1.956  -5.518  -0.042  0.00  0.00    +0.134 A 
ATOM      6  N   UNL     1       1.167  -4.457  -0.028  0.00  0.00    -0.228 NA
ENDROOT
BRANCH   1  11
ATOM      7  C   UNL     1      -0.018   1.503   0.010  0.00  0.00    +0.086 C 
ATOM      8  C   UNL     1       0.002  -0.004   0.002  0.00  0.00    +0.103 A 
ATOM      9  C   UNL     1      -1.083  -0.805   0.003  0.00  0.00    +0.045 A 
ATOM     10  C   UNL     1      -0.617  -2.133  -0.007  0.00  0.00    +0.052 A 
ATOM     11  C   UNL     1       0.744  -2.070  -0.013  0.00  0.00    +0.153 A 
ATOM     12  O   UNL     1       1.103  -0.771  -0.013  0.00  0.00    -0.458 OA
ENDBRANCH   1  11
BRANCH   5  13
ATOM     13  N   UNL     1       1.402  -6.786  -0.051  0.00  0.00    -0.342 N 
ATOM     14  H   UNL     1       1.978  -7.567  -0.058  0.00  0.00    +0.144 HD
ATOM     15  H   UNL     1       0.438  -6.895  -0.051  0.00  0.00    +0.144 HD
ENDBRANCH   5  13
BRANCH   4  16
ATOM     16  C   UNL     1       4.210  -6.513  -0.052  0.00  0.00    +0.103 C 
ATOM     17  N   UNL     1       4.889  -7.423  -0.060  0.00  0.00    -0.191 NA
ENDBRANCH   4  16
TORSDOF 3
