REMARK  Name = ZINC22785128
REMARK  11 active torsions:
REMARK  status: ('A' for Active; 'I' for Inactive)
REMARK    1  A    between atoms: C_1  and  C_2
REMARK    2  A    between atoms: C_2  and  N_3
REMARK    3  A    between atoms: N_6  and  C_9
REMARK    4  A    between atoms: C_9  and  C_11
REMARK    5  A    between atoms: C_9  and  C_16
REMARK    6  A    between atoms: C_16  and  C_18
REMARK    7  A    between atoms: C_16  and  N_19
REMARK    8  A    between atoms: N_19  and  C_20
REMARK    9  A    between atoms: C_20  and  N_22
REMARK   10  A    between atoms: N_22  and  C_23
REMARK   11  A    between atoms: C_28  and  C_29
REMARK                            x       y       z     vdW  Elec       q    Type
REMARK                         _______ _______ _______ _____ _____    ______ ____
ROOT
ATOM      1  C   UNL     1       0.848   6.122   1.129  0.00  0.00    +0.091 C 
ATOM      2  C   UNL     1       2.296   5.686   1.362  0.00  0.00    +0.030 C 
ENDROOT
BRANCH   1   3
ATOM      3  N   UNL     1       0.003   5.603   2.207  0.00  0.00    -0.322 N 
ATOM      4  H   UNL     1      -0.538   4.654   2.073  0.00  0.00    +0.148 HD
BRANCH   3   5
ATOM      5  C   UNL     1      -0.113   6.287   3.362  0.00  0.00    +0.135 C 
ATOM      6  S   UNL     1       0.728   7.763   3.571  0.00  0.00    -0.019 S 
BRANCH   5   7
ATOM      7  N   UNL     1      -0.891   5.809   4.353  0.00  0.00    -0.297 N 
ATOM      8  H   UNL     1      -1.502   4.909   4.188  0.00  0.00    +0.154 HD
BRANCH   7   9
ATOM      9  C   UNL     1      -0.922   6.457   5.593  0.00  0.00    +0.037 A 
ATOM     10  C   UNL     1       0.260   6.880   6.186  0.00  0.00    +0.023 A 
ATOM     11  C   UNL     1       0.227   7.520   7.410  0.00  0.00    +0.003 A 
ATOM     12  C   UNL     1      -0.982   7.740   8.044  0.00  0.00    +0.020 A 
ATOM     13  C   UNL     1      -2.162   7.320   7.456  0.00  0.00    +0.046 A 
ATOM     14  C   UNL     1      -2.135   6.683   6.229  0.00  0.00    -0.011 A 
ATOM     15  C   UNL     1      -3.421   6.231   5.585  0.00  0.00    +0.047 C 
ATOM     16 CL   UNL     1      -3.677   7.598   8.256  0.00  0.00    -0.083 Cl
ENDBRANCH   7   9
ENDBRANCH   5   7
ENDBRANCH   3   5
ENDBRANCH   1   3
BRANCH   1  17
ATOM     17  C   UNL     1       0.359   5.573  -0.213  0.00  0.00    +0.113 C 
BRANCH  17  21
ATOM     18  N   UNL     1       1.996   7.344  -3.681  0.00  0.00    +0.381 N 
ATOM     19  C   UNL     1       1.861   5.881  -3.653  0.00  0.00    -0.063 C 
ATOM     20  C   UNL     1       0.839   5.487  -2.585  0.00  0.00    +0.066 C 
ATOM     21  N   UNL     1       1.277   5.997  -1.278  0.00  0.00    -0.297 NA
ATOM     22  C   UNL     1       1.413   7.460  -1.306  0.00  0.00    +0.066 C 
ATOM     23  C   UNL     1       2.435   7.855  -2.375  0.00  0.00    -0.063 C 
ATOM     24  H   UNL     1       1.007   7.773  -3.898  0.00  0.00    -0.082 HD
BRANCH  18  26
ATOM     25  C   UNL     1       3.225   9.258  -4.590  0.00  0.00    -0.017 C 
ATOM     26  C   UNL     1       2.914   7.768  -4.747  0.00  0.00    -0.082 C 
ENDBRANCH  18  26
ENDBRANCH  17  21
BRANCH  17  27
ATOM     27  C   UNL     1       0.318   4.068  -0.154  0.00  0.00    +0.009 A 
ATOM     28  C   UNL     1      -0.744   3.251   0.046  0.00  0.00    +0.013 A 
ATOM     29  C   UNL     1      -0.545   1.883   0.056  0.00  0.00    +0.008 A 
ATOM     30  C   UNL     1       0.708   1.400  -0.125  0.00  0.00    +0.045 A 
ATOM     31  S   UNL     1       1.656   2.899  -0.331  0.00  0.00    -0.100 S 
ENDBRANCH  17  27
ENDBRANCH   1  17
TORSDOF 8
