REMARK  Name = ZINC19315184
REMARK  7 active torsions:
REMARK  status: ('A' for Active; 'I' for Inactive)
REMARK    1  A    between atoms: C_1  and  C_2
REMARK    2  A    between atoms: C_3  and  C_20
REMARK    3  A    between atoms: C_4  and  C_14
REMARK    4  A    between atoms: C_20  and  O_22
REMARK    5  A    between atoms: O_22  and  C_23
REMARK    6  A    between atoms: C_23  and  C_24
REMARK    7  A    between atoms: C_23  and  C_25
REMARK                            x       y       z     vdW  Elec       q    Type
REMARK                         _______ _______ _______ _____ _____    ______ ____
ROOT
ATOM      1  C   UNL     1      -6.411   1.887  -1.191  0.00  0.00    +0.061 C 
ATOM      2  C   UNL     1      -4.908   2.003  -1.204  0.00  0.00    +0.016 C 
ATOM      3  C   UNL     1      -4.245   1.963  -2.372  0.00  0.00    +0.065 C 
ATOM      4  C   UNL     1      -2.750   2.084  -2.423  0.00  0.00    +0.092 C 
ATOM      5  C   UNL     1      -2.139   1.814  -1.071  0.00  0.00    +0.024 C 
ATOM      6  C   UNL     1      -2.893   1.859   0.048  0.00  0.00    +0.015 C 
ATOM      7  N   UNL     1      -4.229   2.148  -0.026  0.00  0.00    -0.321 N 
ATOM      8  C   UNL     1      -2.289   1.587   1.403  0.00  0.00    +0.051 C 
ATOM      9  C   UNL     1      -0.819   2.021   1.411  0.00  0.00    +0.014 C 
ATOM     10  C   UNL     1      -0.084   1.256   0.305  0.00  0.00    +0.080 C 
ATOM     11  C   UNL     1      -0.766   1.517  -1.010  0.00  0.00    +0.162 C 
ATOM     12  O   UNL     1      -0.119   1.471  -2.037  0.00  0.00    -0.292 OA
ATOM     13  H   UNL     1      -4.755   2.501   0.873  0.00  0.00    +0.152 HD
ENDROOT
BRANCH   4  14
ATOM     14  C   UNL     1      -2.382   3.477  -2.864  0.00  0.00    -0.032 A 
ATOM     15  C   UNL     1      -2.755   4.581  -2.113  0.00  0.00    +0.024 A 
ATOM     16  C   UNL     1      -2.396   5.843  -2.546  0.00  0.00    +0.111 A 
ATOM     17  N   UNL     1      -1.715   6.004  -3.664  0.00  0.00    -0.263 NA
ATOM     18  C   UNL     1      -1.347   4.978  -4.406  0.00  0.00    +0.111 A 
ATOM     19  C   UNL     1      -1.666   3.686  -4.033  0.00  0.00    +0.024 A 
ENDBRANCH   4  14
BRANCH   3  20
ATOM     20  C   UNL     1      -4.970   1.804  -3.576  0.00  0.00    +0.338 C 
ATOM     21  O   UNL     1      -6.166   1.583  -3.542  0.00  0.00    -0.245 OA
BRANCH  20  22
ATOM     22  O   UNL     1      -4.335   1.898  -4.763  0.00  0.00    -0.459 OA
BRANCH  22  23
ATOM     23  C   UNL     1      -5.129   1.727  -5.939  0.00  0.00    +0.171 C 
ATOM     24  C   UNL     1      -4.530   2.548  -7.083  0.00  0.00    +0.052 C 
ATOM     25  C   UNL     1      -5.149   0.247  -6.330  0.00  0.00    +0.052 C 
ENDBRANCH  22  23
ENDBRANCH  20  22
ENDBRANCH   3  20
TORSDOF 4
