REMARK  Name = ZINC04147993
REMARK  10 active torsions:
REMARK  status: ('A' for Active; 'I' for Inactive)
REMARK    1  A    between atoms: C_1  and  N_2
REMARK    2  A    between atoms: N_2  and  C_3
REMARK    3  A    between atoms: N_2  and  C_4
REMARK    4  A    between atoms: C_7  and  C_10
REMARK    5  A    between atoms: C_16  and  C_19
REMARK    6  A    between atoms: N_21  and  C_22
REMARK    7  A    between atoms: C_22  and  C_24
REMARK    8  A    between atoms: C_22  and  C_31
REMARK    9  A    between atoms: C_24  and  C_25
REMARK   10  A    between atoms: C_34  and  C_36
REMARK                            x       y       z     vdW  Elec       q    Type
REMARK                         _______ _______ _______ _____ _____    ______ ____
ROOT
ATOM      1  C   UNL     1       2.163   6.657  -4.447  0.00  0.00    +0.247 C 
ATOM      2  O   UNL     1       3.219   6.126  -4.732  0.00  0.00    -0.270 OA
ATOM      3  N   UNL     1       1.646   6.507  -3.212  0.00  0.00    -0.294 N 
ATOM      4  C   UNL     1       0.429   7.231  -2.818  0.00  0.00    +0.127 C 
ATOM      5  C   UNL     1      -0.608   6.215  -2.324  0.00  0.00    +0.128 C 
ATOM      6  N   UNL     1       0.032   5.322  -1.348  0.00  0.00    -0.283 N 
ATOM      7  C   UNL     1       1.251   4.601  -1.741  0.00  0.00    +0.179 C 
ATOM      8  C   UNL     1       2.288   5.618  -2.234  0.00  0.00    +0.140 C 
ATOM      9  C   UNL     1      -0.487   5.170  -0.113  0.00  0.00    +0.254 C 
ATOM     10  O   UNL     1       0.137   4.565   0.739  0.00  0.00    -0.269 OA
ENDROOT
BRANCH   1  14
ATOM     11  C   UNL     1       0.106   8.982  -7.344  0.00  0.00    +0.029 A 
ATOM     12  C   UNL     1       0.804   7.843  -7.736  0.00  0.00    +0.024 A 
ATOM     13  C   UNL     1       1.471   7.087  -6.799  0.00  0.00    +0.015 A 
ATOM     14  C   UNL     1       1.448   7.465  -5.454  0.00  0.00    +0.037 A 
ATOM     15  C   UNL     1       0.742   8.606  -5.062  0.00  0.00    +0.015 A 
ATOM     16  C   UNL     1       0.081   9.360  -6.004  0.00  0.00    +0.024 A 
BRANCH  11  18
ATOM     17  C   UNL     1      -0.544   9.346  -9.702  0.00  0.00    +0.129 C 
ATOM     18  N   UNL     1      -0.569   9.743  -8.292  0.00  0.00    -0.336 N 
ATOM     19  C   UNL     1      -1.304  10.942  -7.882  0.00  0.00    +0.129 C 
ENDBRANCH  11  18
ENDBRANCH   1  14
BRANCH   9  20
ATOM     20  C   UNL     1      -1.802   5.734   0.203  0.00  0.00    +0.074 A 
ATOM     21  C   UNL     1      -2.438   5.833   1.431  0.00  0.00    +0.021 A 
ATOM     22  C   UNL     1      -3.682   6.413   1.446  0.00  0.00    +0.008 A 
ATOM     23  C   UNL     1      -4.222   6.854   0.280  0.00  0.00    +0.046 A 
ATOM     24  S   UNL     1      -2.999   6.479  -0.890  0.00  0.00    -0.092 S 
ENDBRANCH   9  20
BRANCH   7  25
ATOM     25  C   UNL     1       1.801   3.853  -0.554  0.00  0.00    +0.236 C 
ATOM     26  O   UNL     1       2.112   4.456   0.452  0.00  0.00    -0.274 OA
ATOM     27  N   UNL     1       1.947   2.515  -0.610  0.00  0.00    -0.302 N 
ATOM     28  H   UNL     1       1.698   2.033  -1.414  0.00  0.00    +0.150 HD
BRANCH  27  29
ATOM     29  C   UNL     1       2.482   1.787   0.544  0.00  0.00    +0.159 C 
BRANCH  29  30
ATOM     30  C   UNL     1       3.988   1.809   0.498  0.00  0.00    +0.231 C 
ATOM     31  O   UNL     1       4.559   2.376  -0.410  0.00  0.00    -0.274 OA
ATOM     32  N   UNL     1       4.701   1.198   1.465  0.00  0.00    -0.328 N 
ATOM     33  H   UNL     1       4.245   0.745   2.191  0.00  0.00    +0.145 HD
ATOM     34  H   UNL     1       5.670   1.212   1.435  0.00  0.00    +0.145 HD
ENDBRANCH  29  30
BRANCH  29  35
ATOM     35  C   UNL     1       1.991   0.339   0.506  0.00  0.00    +0.035 C 
BRANCH  35  36
ATOM     36  C   UNL     1       0.465   0.315   0.606  0.00  0.00    -0.009 C 
ATOM     37  C   UNL     1      -0.034  -1.123   0.449  0.00  0.00    +0.003 C 
ATOM     38  C   UNL     1      -1.561  -1.147   0.549  0.00  0.00    +0.000 C 
ATOM     39  C   UNL     1      -1.991  -0.604   1.913  0.00  0.00    +0.000 C 
ATOM     40  C   UNL     1      -1.492   0.834   2.070  0.00  0.00    +0.000 C 
ATOM     41  C   UNL     1       0.034   0.858   1.970  0.00  0.00    +0.003 C 
ENDBRANCH  35  36
ENDBRANCH  29  35
ENDBRANCH  27  29
ENDBRANCH   7  25
TORSDOF 8
