REMARK  Name = ZINC13264198
REMARK  11 active torsions:
REMARK  status: ('A' for Active; 'I' for Inactive)
REMARK    1  A    between atoms: C_1  and  C_2
REMARK    2  A    between atoms: C_2  and  C_16
REMARK    3  A    between atoms: N_3  and  N_4
REMARK    4  A    between atoms: N_4  and  C_5
REMARK    5  A    between atoms: C_5  and  N_7
REMARK    6  A    between atoms: N_7  and  C_8
REMARK    7  A    between atoms: C_8  and  C_9
REMARK    8  A    between atoms: C_9  and  C_10
REMARK    9  A    between atoms: C_19  and  S_22
REMARK   10  A    between atoms: S_22  and  N_25
REMARK   11  A    between atoms: C_28  and  C_31
REMARK                            x       y       z     vdW  Elec       q    Type
REMARK                         _______ _______ _______ _____ _____    ______ ____
ROOT
ATOM      1  C   UNL     1      -0.163  12.079  -0.051  0.00  0.00    -0.002 A 
ATOM      2  C   UNL     1      -0.176  13.476  -0.039  0.00  0.00    +0.011 A 
ATOM      3  C   UNL     1      -0.179  14.152   1.163  0.00  0.00    +0.029 A 
ATOM      4  C   UNL     1      -0.159  13.451   2.355  0.00  0.00    +0.106 A 
ATOM      5  C   UNL     1      -0.140  12.067   2.351  0.00  0.00    +0.029 A 
ATOM      6  C   UNL     1      -0.142  11.377   1.157  0.00  0.00    +0.011 A 
ENDROOT
BRANCH   1   8
ATOM      7  C   UNL     1      -0.188  12.109  -2.633  0.00  0.00    +0.068 C 
ATOM      8  C   UNL     1      -0.165  11.349  -1.332  0.00  0.00    +0.063 C 
ATOM      9  N   UNL     1      -0.148  10.051  -1.339  0.00  0.00    -0.185 NA
BRANCH   9  10
ATOM     10  N   UNL     1      -0.150   9.357  -2.556  0.00  0.00    -0.218 N 
ATOM     11  H   UNL     1      -0.164   9.847  -3.394  0.00  0.00    +0.176 HD
BRANCH  10  12
ATOM     12  C   UNL     1      -0.131   8.010  -2.564  0.00  0.00    +0.150 C 
ATOM     13  S   UNL     1      -0.134   7.162  -4.051  0.00  0.00    -0.017 S 
BRANCH  12  14
ATOM     14  N   UNL     1      -0.111   7.330  -1.400  0.00  0.00    -0.325 N 
ATOM     15  H   UNL     1      -0.110   7.810  -0.558  0.00  0.00    +0.148 HD
BRANCH  14  16
ATOM     16  C   UNL     1      -0.091   5.865  -1.409  0.00  0.00    +0.108 C 
BRANCH  16  17
ATOM     17  C   UNL     1      -0.070   5.347   0.031  0.00  0.00    +0.054 C 
BRANCH  17  18
ATOM     18  C   UNL     1      -0.050   3.840   0.023  0.00  0.00    -0.046 A 
ATOM     19  C   UNL     1       1.156   3.165   0.008  0.00  0.00    +0.004 A 
ATOM     20  C   UNL     1       1.175   1.783   0.000  0.00  0.00    +0.000 A 
ATOM     21  C   UNL     1      -0.013   1.076   0.008  0.00  0.00    +0.000 A 
ATOM     22  C   UNL     1      -1.219   1.751   0.017  0.00  0.00    +0.000 A 
ATOM     23  C   UNL     1      -1.238   3.133   0.030  0.00  0.00    +0.004 A 
ENDBRANCH  17  18
ENDBRANCH  16  17
ENDBRANCH  14  16
ENDBRANCH  12  14
ENDBRANCH  10  12
ENDBRANCH   9  10
ENDBRANCH   1   8
BRANCH   4  24
ATOM     24  S   UNL     1      -0.156  14.323   3.886  0.00  0.00    +0.061 S 
ATOM     25  O   UNL     1      -0.727  15.599   3.627  0.00  0.00    -0.153 OA
ATOM     26  O   UNL     1      -0.686  13.435   4.861  0.00  0.00    -0.153 OA
BRANCH  24  27
ATOM     27  N   UNL     1       1.426  14.588   4.296  0.00  0.00    -0.177 NA
ATOM     28  C   UNL     1       2.161  13.612   5.113  0.00  0.00    +0.110 C 
ATOM     29  C   UNL     1       2.766  14.327   6.319  0.00  0.00    +0.032 C 
ATOM     30  C   UNL     1       3.612  15.508   5.838  0.00  0.00    +0.105 C 
ATOM     31  C   UNL     1       2.724  16.499   5.081  0.00  0.00    +0.032 C 
ATOM     32  C   UNL     1       2.121  15.805   3.856  0.00  0.00    +0.110 C 
BRANCH  30  33
ATOM     33  C   UNL     1       4.235  16.197   7.024  0.00  0.00    +0.359 C 
ATOM     34  O   UNL     1       3.994  17.360   7.243  0.00  0.00    -0.246 OA
ATOM     35  O   UNL     1       5.057  15.518   7.839  0.00  0.00    -0.246 OA
ENDBRANCH  30  33
ENDBRANCH  24  27
ENDBRANCH   4  24
TORSDOF 10
