REMARK  Name = ZINC23125398
REMARK  8 active torsions:
REMARK  status: ('A' for Active; 'I' for Inactive)
REMARK    1  A    between atoms: C_1  and  C_2
REMARK    2  A    between atoms: C_7  and  C_8
REMARK    3  A    between atoms: C_10  and  C_13
REMARK    4  A    between atoms: C_14  and  N_31
REMARK    5  A    between atoms: N_15  and  C_20
REMARK    6  A    between atoms: N_18  and  C_19
REMARK    7  A    between atoms: C_20  and  C_21
REMARK    8  A    between atoms: N_23  and  C_24
REMARK                            x       y       z     vdW  Elec       q    Type
REMARK                         _______ _______ _______ _____ _____    ______ ____
ROOT
ATOM      1  C   UNL     1       5.662   6.957  -0.216  0.00  0.00    +0.117 A 
ATOM      2  C   UNL     1       4.440   6.539  -0.733  0.00  0.00    +0.127 A 
ATOM      3  N   UNL     1       3.666   6.179   0.312  0.00  0.00    -0.262 N 
ATOM      4  N   UNL     1       4.391   6.374   1.492  0.00  0.00    -0.282 N 
ATOM      5  C   UNL     1       5.581   6.830   1.194  0.00  0.00    +0.127 A 
ATOM      6  N   UNL     1       6.591   7.144   2.105  0.00  0.00    -0.332 N 
ATOM      7  C   UNL     1       6.365   6.961   3.541  0.00  0.00    +0.127 C 
ATOM      8  H   UNL     1       7.557   7.528   1.745  0.00  0.00    +0.147 HD
ATOM      9  H   UNL     1       3.931   6.145   2.465  0.00  0.00    +0.188 HD
ENDROOT
BRANCH   1  12
ATOM     10  C   UNL     1       8.722   8.187  -1.569  0.00  0.00    +0.203 A 
ATOM     11  N   UNL     1       7.981   7.838  -0.496  0.00  0.00    -0.187 NA
ATOM     12  C   UNL     1       6.817   7.439  -0.986  0.00  0.00    +0.265 A 
ATOM     13  O   UNL     1       6.899   7.555  -2.322  0.00  0.00    -0.332 OA
ATOM     14  N   UNL     1       7.988   7.987  -2.634  0.00  0.00    -0.056 NA
BRANCH  10  21
ATOM     15  C   UNL     1      10.048   8.849  -4.053  0.00  0.00    +0.044 C 
ATOM     16  C   UNL     1      10.761   9.024  -2.736  0.00  0.00    -0.040 A 
ATOM     17  C   UNL     1      12.055   9.502  -2.708  0.00  0.00    +0.004 A 
ATOM     18  C   UNL     1      12.710   9.663  -1.501  0.00  0.00    +0.000 A 
ATOM     19  C   UNL     1      12.072   9.345  -0.315  0.00  0.00    +0.001 A 
ATOM     20  C   UNL     1      10.776   8.871  -0.331  0.00  0.00    +0.012 A 
ATOM     21  C   UNL     1      10.114   8.702  -1.545  0.00  0.00    +0.025 A 
ENDBRANCH  10  21
ENDBRANCH   1  12
BRANCH   2  22
ATOM     22  N   UNL     1       4.085   6.499  -2.069  0.00  0.00    -0.343 N 
ATOM     23  H   UNL     1       3.085   6.147  -2.361  0.00  0.00    +0.144 HD
ATOM     24  H   UNL     1       4.803   6.819  -2.838  0.00  0.00    +0.144 HD
ENDBRANCH   2  22
BRANCH   3  25
ATOM     25  C   UNL     1       2.293   5.674   0.225  0.00  0.00    +0.239 C 
BRANCH  25  26
ATOM     26  C   UNL     1       2.317   4.172   0.104  0.00  0.00    +0.239 C 
ATOM     27  O   UNL     1       3.376   3.582   0.091  0.00  0.00    -0.273 OA
ATOM     28  N   UNL     1       1.161   3.486   0.009  0.00  0.00    -0.284 N 
ATOM     29  H   UNL     1       0.205   4.025  -0.067  0.00  0.00    +0.155 HD
BRANCH  28  30
ATOM     30  C   UNL     1       1.177   2.086   0.008  0.00  0.00    +0.034 A 
ATOM     31  C   UNL     1       2.133   1.400   0.745  0.00  0.00    +0.024 A 
ATOM     32  C   UNL     1       2.146   0.019   0.742  0.00  0.00    +0.017 A 
ATOM     33  C   UNL     1       1.207  -0.681   0.006  0.00  0.00    +0.018 A 
ATOM     34  C   UNL     1       0.253  -0.000  -0.729  0.00  0.00    +0.017 A 
ATOM     35  C   UNL     1       0.235   1.381  -0.730  0.00  0.00    +0.024 A 
ATOM     36 BR   UNL     1       1.228  -2.572   0.004  0.00  0.00    -0.050 Br
ENDBRANCH  28  30
ENDBRANCH  25  26
ENDBRANCH   3  25
TORSDOF 6
