REMARK  Name = ZINC39370450
REMARK  6 active torsions:
REMARK  status: ('A' for Active; 'I' for Inactive)
REMARK    1  A    between atoms: C_1  and  C_2
REMARK    2  A    between atoms: C_3  and  C_21
REMARK    3  A    between atoms: C_4  and  C_16
REMARK    4  A    between atoms: C_21  and  O_23
REMARK    5  A    between atoms: O_23  and  C_24
REMARK    6  A    between atoms: C_24  and  C_25
REMARK                            x       y       z     vdW  Elec       q    Type
REMARK                         _______ _______ _______ _____ _____    ______ ____
ROOT
ATOM      1  C   UNL     1      -0.018   1.503   0.010  0.00  0.00    +0.061 C 
ATOM      2  C   UNL     1       0.002  -0.004   0.002  0.00  0.00    +0.016 C 
ATOM      3  C   UNL     1      -1.156  -0.678   0.004  0.00  0.00    +0.062 C 
ATOM      4  C   UNL     1      -1.237  -2.178  -0.025  0.00  0.00    +0.083 C 
ATOM      5  C   UNL     1       0.065  -2.790   0.498  0.00  0.00    +0.149 C 
ATOM      6  C   UNL     1       1.182  -2.015  -0.182  0.00  0.00    +0.106 C 
ATOM      7  N   UNL     1       2.045  -2.662  -0.909  0.00  0.00    -0.151 NA
ATOM      8  C   UNL     1       1.965  -3.986  -1.099  0.00  0.00    +0.331 C 
ATOM      9  O   UNL     1       2.833  -4.514  -1.768  0.00  0.00    -0.250 OA
ATOM     10  N   UNL     1       0.998  -4.767  -0.603  0.00  0.00    -0.238 N 
ATOM     11  C   UNL     1       0.013  -4.277   0.199  0.00  0.00    +0.231 C 
ATOM     12  O   UNL     1      -0.864  -4.984   0.649  0.00  0.00    -0.275 OA
ATOM     13  N   UNL     1       1.211  -0.665  -0.013  0.00  0.00    -0.307 N 
ATOM     14  H   UNL     1       1.001  -5.713  -0.817  0.00  0.00    +0.159 HD
ATOM     15  H   UNL     1       2.049  -0.188   0.095  0.00  0.00    +0.153 HD
ENDROOT
BRANCH   4  16
ATOM     16  C   UNL     1      -2.382  -2.633   0.843  0.00  0.00    -0.001 A 
ATOM     17  C   UNL     1      -3.479  -3.352   0.502  0.00  0.00    +0.012 A 
ATOM     18  C   UNL     1      -4.410  -3.658   1.476  0.00  0.00    +0.008 A 
ATOM     19  C   UNL     1      -4.199  -3.229   2.744  0.00  0.00    +0.045 A 
ATOM     20  S   UNL     1      -2.642  -2.370   2.590  0.00  0.00    -0.101 S 
ENDBRANCH   4  16
BRANCH   3  21
ATOM     21  C   UNL     1      -2.363   0.059   0.035  0.00  0.00    +0.338 C 
ATOM     22  O   UNL     1      -2.333   1.276   0.059  0.00  0.00    -0.245 OA
BRANCH  21  23
ATOM     23  O   UNL     1      -3.548  -0.586   0.038  0.00  0.00    -0.457 OA
BRANCH  23  24
ATOM     24  C   UNL     1      -4.727   0.222   0.070  0.00  0.00    +0.259 C 
BRANCH  24  25
ATOM     25  C   UNL     1      -5.944  -0.666   0.068  0.00  0.00    +0.006 C 
ATOM     26  C   UNL     1      -6.935  -0.420   0.889  0.00  0.00    +0.007 C 
ENDBRANCH  24  25
ENDBRANCH  23  24
ENDBRANCH  21  23
ENDBRANCH   3  21
TORSDOF 5
