REMARK  Name = ZINC22179243
REMARK  10 active torsions:
REMARK  status: ('A' for Active; 'I' for Inactive)
REMARK    1  A    between atoms: C_1  and  C_2
REMARK    2  A    between atoms: C_6  and  C_9
REMARK    3  A    between atoms: C_7  and  N_8
REMARK    4  A    between atoms: C_9  and  O_11
REMARK    5  A    between atoms: O_11  and  C_12
REMARK    6  A    between atoms: C_12  and  C_14
REMARK    7  A    between atoms: C_12  and  C_15
REMARK    8  A    between atoms: N_17  and  C_18
REMARK    9  A    between atoms: C_18  and  C_19
REMARK   10  A    between atoms: N_21  and  C_22
REMARK                            x       y       z     vdW  Elec       q    Type
REMARK                         _______ _______ _______ _____ _____    ______ ____
ROOT
ATOM      1  C   UNL     1      -0.793  -6.044   3.335  0.00  0.00    +0.254 C 
ATOM      2  O   UNL     1      -1.238  -6.365   2.253  0.00  0.00    -0.272 OA
ATOM      3  N   UNL     1      -1.000  -6.831   4.409  0.00  0.00    -0.304 N 
ATOM      4  H   UNL     1      -0.644  -6.574   5.274  0.00  0.00    +0.149 HD
ENDROOT
BRANCH   1   5
ATOM      5  C   UNL     1      -0.008  -4.765   3.478  0.00  0.00    +0.259 C 
ATOM      6  C   UNL     1       1.437  -5.094   3.859  0.00  0.00    +0.062 C 
BRANCH   5   7
ATOM      7  O   UNL     1      -0.025  -4.055   2.238  0.00  0.00    -0.449 OA
BRANCH   7   8
ATOM      8  C   UNL     1       0.048  -2.711   2.301  0.00  0.00    +0.342 C 
ATOM      9  O   UNL     1       0.124  -2.157   3.380  0.00  0.00    -0.245 OA
BRANCH   8  15
ATOM     10  C   UNL     1      -0.045   1.735   0.010  0.00  0.00    +0.045 C 
ATOM     11  C   UNL     1      -0.008   0.230  -0.049  0.00  0.00    -0.029 A 
ATOM     12  C   UNL     1       0.015  -0.412  -1.271  0.00  0.00    +0.005 A 
ATOM     13  C   UNL     1       0.048  -1.796  -1.336  0.00  0.00    +0.001 A 
ATOM     14  C   UNL     1       0.059  -2.548  -0.182  0.00  0.00    +0.017 A 
ATOM     15  C   UNL     1       0.037  -1.914   1.063  0.00  0.00    +0.080 A 
ATOM     16  C   UNL     1       0.008  -0.511   1.126  0.00  0.00    +0.042 A 
BRANCH  16  17
ATOM     17  N   UNL     1      -0.008   0.132   2.357  0.00  0.00    -0.357 N 
ATOM     18  H   UNL     1      -0.107   1.096   2.398  0.00  0.00    +0.142 HD
ATOM     19  H   UNL     1       0.078  -0.382   3.174  0.00  0.00    +0.142 HD
ENDBRANCH  16  17
ENDBRANCH   8  15
ENDBRANCH   7   8
ENDBRANCH   5   7
ENDBRANCH   1   5
BRANCH   3  20
ATOM     20  C   UNL     1      -1.763  -8.074   4.271  0.00  0.00    +0.200 C 
BRANCH  20  21
ATOM     21  C   UNL     1      -1.850  -8.762   5.608  0.00  0.00    +0.234 C 
ATOM     22  O   UNL     1      -1.326  -8.263   6.582  0.00  0.00    -0.274 OA
ATOM     23  N   UNL     1      -2.510  -9.932   5.723  0.00  0.00    -0.282 N 
ATOM     24  H   UNL     1      -2.859 -10.371   4.932  0.00  0.00    +0.155 HD
BRANCH  23  25
ATOM     25  C   UNL     1      -2.692 -10.513   6.985  0.00  0.00    +0.072 A 
ATOM     26  C   UNL     1      -2.681  -9.720   8.124  0.00  0.00    +0.029 A 
ATOM     27  C   UNL     1      -2.859 -10.293   9.368  0.00  0.00    +0.043 A 
ATOM     28  C   UNL     1      -3.050 -11.660   9.481  0.00  0.00    +0.161 A 
ATOM     29  C   UNL     1      -3.061 -12.457   8.347  0.00  0.00    +0.195 A 
ATOM     30  C   UNL     1      -2.888 -11.884   7.098  0.00  0.00    +0.182 A 
ATOM     31  F   UNL     1      -2.905 -12.659   5.991  0.00  0.00    -0.200 F 
ATOM     32  F   UNL     1      -3.246 -13.790   8.460  0.00  0.00    -0.199 F 
ATOM     33  F   UNL     1      -3.224 -12.218  10.699  0.00  0.00    -0.202 F 
ENDBRANCH  23  25
ENDBRANCH  20  21
ENDBRANCH   3  20
TORSDOF 8
