REMARK  Name = ZINC39674824
REMARK  7 active torsions:
REMARK  status: ('A' for Active; 'I' for Inactive)
REMARK    1  A    between atoms: C_1  and  C_2
REMARK    2  A    between atoms: C_4  and  C_14
REMARK    3  A    between atoms: C_7  and  C_12
REMARK    4  A    between atoms: C_14  and  C_15
REMARK    5  A    between atoms: C_15  and  N_16
REMARK    6  A    between atoms: C_17  and  C_19
REMARK    7  A    between atoms: C_30  and  C_32
REMARK                            x       y       z     vdW  Elec       q    Type
REMARK                         _______ _______ _______ _____ _____    ______ ____
ROOT
ATOM      1  C   UNL     1      -7.099  -1.325  -3.350  0.00  0.00    +0.100 C 
ATOM      2  C   UNL     1      -7.534   0.054  -2.805  0.00  0.00    +0.121 C 
ATOM      3  N   UNL     1      -9.007   0.075  -2.973  0.00  0.00    -0.300 N 
ATOM      4  C   UNL     1      -9.437  -1.300  -2.623  0.00  0.00    +0.115 C 
ATOM      5  C   UNL     1      -8.351  -2.211  -3.228  0.00  0.00    -0.004 C 
ATOM      6  C   UNL     1      -8.075  -3.390  -2.300  0.00  0.00    -0.010 C 
ATOM      7  C   UNL     1      -9.315  -4.287  -2.240  0.00  0.00    -0.082 C 
ATOM      8  N   UNL     1      -9.639  -4.766  -3.590  0.00  0.00    +0.379 N 
ATOM      9  C   UNL     1      -9.994  -3.632  -4.451  0.00  0.00    -0.082 C 
ATOM     10  C   UNL     1      -8.783  -2.707  -4.604  0.00  0.00    -0.010 C 
ATOM     11  C   UNL     1      -9.779   1.110  -3.358  0.00  0.00    +0.219 C 
ATOM     12  O   UNL     1      -9.268   2.159  -3.689  0.00  0.00    -0.275 OA
ATOM     13  H   UNL     1      -8.840  -5.245  -3.977  0.00  0.00    -0.086 HD
ATOM     14  H   UNL     1     -10.418  -5.405  -3.540  0.00  0.00    -0.086 HD
ENDROOT
BRANCH  11  15
ATOM     15  C   UNL     1     -11.279   0.965  -3.376  0.00  0.00    +0.079 C 
ATOM     16  C   UNL     1     -11.880   1.948  -4.389  0.00  0.00    +0.017 C 
ATOM     17  C   UNL     1     -13.377   1.656  -4.516  0.00  0.00    +0.027 C 
ATOM     18  C   UNL     1     -14.005   1.573  -3.155  0.00  0.00    -0.031 C 
ATOM     19  C   UNL     1     -13.338   1.410  -2.058  0.00  0.00    -0.030 C 
ATOM     20  C   UNL     1     -11.844   1.286  -1.990  0.00  0.00    +0.039 C 
ENDBRANCH  11  15
BRANCH   1  22
ATOM     21  N   UNL     1      -5.086  -2.735  -3.071  0.00  0.00    -0.315 N 
ATOM     22  C   UNL     1      -5.976  -1.887  -2.518  0.00  0.00    +0.218 C 
ATOM     23  O   UNL     1      -5.872  -1.577  -1.350  0.00  0.00    -0.275 OA
ATOM     24  H   UNL     1      -5.169  -2.983  -4.005  0.00  0.00    +0.149 HD
BRANCH  21  25
ATOM     25  C   UNL     1      -3.994  -3.281  -2.262  0.00  0.00    +0.108 C 
BRANCH  25  26
ATOM     26  C   UNL     1      -3.135  -4.209  -3.125  0.00  0.00    +0.052 C 
BRANCH  26  29
ATOM     27  C   UNL     1      -0.108  -5.096  -3.872  0.00  0.00    +0.035 C 
ATOM     28  C   UNL     1      -0.932  -5.727  -2.748  0.00  0.00    +0.103 C 
ATOM     29  C   UNL     1      -2.011  -4.771  -2.292  0.00  0.00    -0.037 C 
ATOM     30  C   UNL     1      -1.762  -4.521  -0.982  0.00  0.00    +0.000 A 
ATOM     31  C   UNL     1      -2.429  -3.706  -0.030  0.00  0.00    +0.028 A 
ATOM     32  C   UNL     1      -1.959  -3.626   1.261  0.00  0.00    +0.052 A 
ATOM     33  C   UNL     1      -0.776  -4.369   1.683  0.00  0.00    +0.021 A 
ATOM     34  C   UNL     1      -0.102  -5.159   0.822  0.00  0.00    +0.027 A 
ATOM     35  C   UNL     1      -0.561  -5.278  -0.567  0.00  0.00    +0.043 A 
ATOM     36  N   UNL     1      -0.086  -5.970  -1.576  0.00  0.00    -0.378 N 
ATOM     37  H   UNL     1       0.695  -6.545  -1.551  0.00  0.00    +0.160 HD
BRANCH  32  38
ATOM     38  C   UNL     1      -2.644  -2.800   2.208  0.00  0.00    +0.099 C 
ATOM     39  N   UNL     1      -3.188  -2.143   2.959  0.00  0.00    -0.191 NA
ENDBRANCH  32  38
ENDBRANCH  26  29
ENDBRANCH  25  26
ENDBRANCH  21  25
ENDBRANCH   1  22
TORSDOF 6
