REMARK  Name = ZINC31868558
REMARK  12 active torsions:
REMARK  status: ('A' for Active; 'I' for Inactive)
REMARK    1  A    between atoms: C_1  and  C_2
REMARK    2  A    between atoms: C_2  and  N_3
REMARK    3  A    between atoms: N_3  and  C_4
REMARK    4  A    between atoms: N_3  and  C_6
REMARK    5  A    between atoms: C_4  and  C_5
REMARK    6  A    between atoms: C_6  and  C_7
REMARK    7  A    between atoms: C_7  and  C_8
REMARK    8  A    between atoms: C_8  and  N_9
REMARK    9  A    between atoms: C_10  and  C_12
REMARK   10  A    between atoms: C_12  and  N_13
REMARK   11  A    between atoms: C_16  and  C_24
REMARK   12  A    between atoms: C_17  and  C_23
REMARK                            x       y       z     vdW  Elec       q    Type
REMARK                         _______ _______ _______ _____ _____    ______ ____
ROOT
ATOM      1  C   UNL     1       3.080   3.777  -2.166  0.00  0.00    +0.198 C 
ENDROOT
BRANCH   1   2
ATOM      2  N   UNL     1       3.122   2.313  -2.221  0.00  0.00    -0.320 N 
ATOM      3  C   UNL     1       1.957   1.595  -2.422  0.00  0.00    +0.131 A 
ATOM      4  C   UNL     1       1.966   0.174  -2.355  0.00  0.00    +0.051 A 
ATOM      5  C   UNL     1       3.067  -0.736  -2.093  0.00  0.00    -0.028 A 
ATOM      6  C   UNL     1       2.835  -2.057  -2.079  0.00  0.00    -0.008 A 
ATOM      7  S   UNL     1       1.090  -2.177  -2.424  0.00  0.00    -0.074 S 
ATOM      8  C   UNL     1       0.719  -0.450  -2.578  0.00  0.00    +0.114 A 
ATOM      9  N   UNL     1      -0.367   0.254  -2.829  0.00  0.00    -0.228 NA
ATOM     10  C   UNL     1      -0.312   1.570  -2.878  0.00  0.00    +0.224 A 
ATOM     11  N   UNL     1       0.820   2.221  -2.680  0.00  0.00    -0.220 NA
ATOM     12  C   UNL     1       3.816  -3.174  -1.831  0.00  0.00    +0.052 C 
ATOM     13  C   UNL     1       4.453  -0.203  -1.838  0.00  0.00    +0.045 C 
ATOM     14  H   UNL     1       4.079   1.786  -2.101  0.00  0.00    +0.148 HD
ENDBRANCH   1   2
BRANCH   1  16
ATOM     15  N   UNL     1       4.676   5.640  -1.853  0.00  0.00    -0.314 N 
ATOM     16  C   UNL     1       4.470   4.311  -1.939  0.00  0.00    +0.230 C 
ATOM     17  O   UNL     1       5.404   3.545  -1.832  0.00  0.00    -0.274 OA
ATOM     18  H   UNL     1       3.829   6.335  -1.950  0.00  0.00    +0.149 HD
BRANCH  15  19
ATOM     19  C   UNL     1       6.028   6.159  -1.632  0.00  0.00    +0.102 C 
BRANCH  19  20
ATOM     20  C   UNL     1       5.984   7.688  -1.576  0.00  0.00    +0.000 C 
BRANCH  20  21
ATOM     21  C   UNL     1       7.396   8.230  -1.345  0.00  0.00    -0.077 C 
BRANCH  21  22
ATOM     22  N   UNL     1       7.374   9.697  -1.413  0.00  0.00    +0.379 N 
ATOM     23  H   UNL     1       6.746   9.986  -2.269  0.00  0.00    -0.082 HD
BRANCH  22  25
ATOM     24  C   UNL     1       6.544  11.770  -0.408  0.00  0.00    -0.017 C 
ATOM     25  C   UNL     1       6.778  10.273  -0.200  0.00  0.00    -0.082 C 
ENDBRANCH  22  25
BRANCH  22  26
ATOM     26  C   UNL     1       8.723  10.234  -1.643  0.00  0.00    -0.082 C 
ATOM     27  C   UNL     1       9.112  10.025  -3.107  0.00  0.00    -0.017 C 
ENDBRANCH  22  26
ENDBRANCH  21  22
ENDBRANCH  20  21
ENDBRANCH  19  20
ENDBRANCH  15  19
ENDBRANCH   1  16
TORSDOF 8
