REMARK  Name = ZINC42349945
REMARK  5 active torsions:
REMARK  status: ('A' for Active; 'I' for Inactive)
REMARK    1  A    between atoms: C_1  and  N_2
REMARK    2  A    between atoms: C_6  and  S_7
REMARK    3  A    between atoms: S_7  and  C_8
REMARK    4  A    between atoms: C_8  and  C_9
REMARK    5  A    between atoms: C_11  and  C_14
REMARK                            x       y       z     vdW  Elec       q    Type
REMARK                         _______ _______ _______ _____ _____    ______ ____
ROOT
ATOM      1  C   UNL     1       0.062  -1.822   3.735  0.00  0.00    +0.176 C 
ENDROOT
BRANCH   1   2
ATOM      2  C   UNL     1       0.071  -1.503   5.207  0.00  0.00    +0.238 A 
ATOM      3  N   UNL     1      -0.981  -1.362   5.962  0.00  0.00    -0.191 NA
ATOM      4  C   UNL     1      -0.608  -1.081   7.224  0.00  0.00    +0.203 A 
ATOM      5  N   UNL     1       0.701  -1.042   7.275  0.00  0.00    -0.056 NA
ATOM      6  O   UNL     1       1.163  -1.323   5.962  0.00  0.00    -0.337 OA
BRANCH   4   7
ATOM      7  C   UNL     1      -1.526  -0.853   8.366  0.00  0.00    +0.029 A 
ATOM      8  C   UNL     1      -1.028  -0.562   9.637  0.00  0.00    +0.019 A 
ATOM      9  C   UNL     1      -1.947  -0.371  10.611  0.00  0.00    +0.046 A 
ATOM     10  S   UNL     1      -3.482  -0.600   9.736  0.00  0.00    -0.104 S 
ATOM     11  C   UNL     1      -2.876  -0.916   8.202  0.00  0.00    +0.057 A 
ENDBRANCH   4   7
ENDBRANCH   1   2
BRANCH   1  12
ATOM     12  S   UNL     1       0.032  -0.278   2.782  0.00  0.00    -0.076 S 
BRANCH  12  18
ATOM     13  C   UNL     1      -0.018   1.461   0.010  0.00  0.00    +0.154 C 
ATOM     14  N   UNL     1       0.002  -0.004   0.002  0.00  0.00    -0.294 N 
ATOM     15  C   UNL     1       0.008  -0.801  -1.108  0.00  0.00    +0.215 A 
ATOM     16  N   UNL     1       0.028  -2.049  -0.710  0.00  0.00    -0.113 NA
ATOM     17  N   UNL     1       0.034  -2.058   0.691  0.00  0.00    -0.121 NA
ATOM     18  C   UNL     1       0.024  -0.813   1.103  0.00  0.00    +0.193 A 
ATOM     19  N   UNL     1      -0.004  -0.364  -2.426  0.00  0.00    -0.328 N 
ATOM     20  H   UNL     1      -0.019   0.586  -2.622  0.00  0.00    +0.145 HD
ATOM     21  H   UNL     1       0.002  -1.009  -3.151  0.00  0.00    +0.145 HD
ENDBRANCH  12  18
ENDBRANCH   1  12
TORSDOF 4
