REMARK  Name = ZINC16024698
REMARK  8 active torsions:
REMARK  status: ('A' for Active; 'I' for Inactive)
REMARK    1  A    between atoms: C_1  and  C_2
REMARK    2  A    between atoms: C_2  and  C_3
REMARK    3  A    between atoms: C_3  and  C_5
REMARK    4  A    between atoms: C_3  and  N_6
REMARK    5  A    between atoms: C_11  and  C_29
REMARK    6  A    between atoms: C_29  and  C_30
REMARK    7  A    between atoms: C_33  and  O_37
REMARK    8  A    between atoms: C_34  and  O_36
REMARK                            x       y       z     vdW  Elec       q    Type
REMARK                         _______ _______ _______ _____ _____    ______ ____
ROOT
ATOM      1  N   UNL     1       1.989  -0.050  -1.089  0.00  0.00    -0.239 N 
ATOM      2  C   UNL     1       2.852  -0.502  -0.172  0.00  0.00    +0.227 C 
ATOM      3  O   UNL     1       2.615  -1.363   0.648  0.00  0.00    -0.275 OA
ATOM      4  C   UNL     1       4.168   0.227  -0.318  0.00  0.00    +0.107 C 
ATOM      5  C   UNL     1       4.383   1.134   0.912  0.00  0.00    +0.072 C 
ATOM      6  N   UNL     1       4.824   2.439   0.352  0.00  0.00    -0.295 NA
ATOM      7  C   UNL     1       4.010   2.602  -0.867  0.00  0.00    +0.136 C 
ATOM      8  C   UNL     1       3.912   1.194  -1.507  0.00  0.00    +0.122 C 
ATOM      9  C   UNL     1       2.480   0.900  -1.893  0.00  0.00    +0.228 C 
ATOM     10  O   UNL     1       1.871   1.442  -2.790  0.00  0.00    -0.275 OA
ATOM     11  C   UNL     1       4.632   3.589  -1.815  0.00  0.00    +0.006 A 
ATOM     12  C   UNL     1       5.847   3.646  -2.460  0.00  0.00    +0.046 A 
ATOM     13  C   UNL     1       6.139   4.714  -3.293  0.00  0.00    +0.124 A 
ATOM     14  C   UNL     1       5.206   5.722  -3.473  0.00  0.00    +0.040 A 
ATOM     15  C   UNL     1       3.988   5.665  -2.829  0.00  0.00    +0.026 A 
ATOM     16  C   UNL     1       3.687   4.596  -1.990  0.00  0.00    +0.039 A 
ATOM     17  N   UNL     1       2.542   4.319  -1.238  0.00  0.00    -0.283 N 
ATOM     18  C   UNL     1       2.652   3.166  -0.550  0.00  0.00    +0.243 C 
ATOM     19  O   UNL     1       1.818   2.676   0.182  0.00  0.00    -0.273 OA
ATOM     20  F   UNL     1       7.331   4.773  -3.926  0.00  0.00    -0.205 F 
ATOM     21  H   UNL     1       4.652   3.189   1.004  0.00  0.00    +0.124 HD
ATOM     22  H   UNL     1       1.758   4.890  -1.215  0.00  0.00    +0.155 HD
ENDROOT
BRANCH   1  23
ATOM     23  C   UNL     1       0.619  -0.557  -1.207  0.00  0.00    +0.081 C 
ATOM     24  C   UNL     1      -0.370   0.595  -1.018  0.00  0.00    +0.028 C 
BRANCH  23  26
ATOM     25  C   UNL     1       1.314  -2.413  -2.729  0.00  0.00    +0.006 C 
ATOM     26  C   UNL     1       0.423  -1.177  -2.592  0.00  0.00    +0.019 C 
ENDBRANCH  23  26
ENDBRANCH   1  23
BRANCH   5  27
ATOM     27  C   UNL     1       5.465   0.550   1.823  0.00  0.00    +0.054 C 
BRANCH  27  28
ATOM     28  C   UNL     1       5.572   1.383   3.074  0.00  0.00    -0.042 A 
ATOM     29  C   UNL     1       6.437   2.460   3.114  0.00  0.00    +0.007 A 
ATOM     30  C   UNL     1       6.539   3.227   4.259  0.00  0.00    +0.049 A 
ATOM     31  C   UNL     1       5.772   2.917   5.371  0.00  0.00    +0.158 A 
ATOM     32  C   UNL     1       4.901   1.833   5.331  0.00  0.00    +0.158 A 
ATOM     33  C   UNL     1       4.800   1.071   4.178  0.00  0.00    +0.052 A 
BRANCH  32  34
ATOM     34  O   UNL     1       4.146   1.524   6.420  0.00  0.00    -0.503 OA
ATOM     35  H   UNL     1       3.285   1.963   6.438  0.00  0.00    +0.292 HD
ENDBRANCH  32  34
BRANCH  31  36
ATOM     36  O   UNL     1       5.872   3.670   6.499  0.00  0.00    -0.503 OA
ATOM     37  H   UNL     1       5.257   4.416   6.529  0.00  0.00    +0.292 HD
ENDBRANCH  31  36
ENDBRANCH  27  28
ENDBRANCH   5  27
TORSDOF 6
