REMARK  Name = ZINC38777193
REMARK  3 active torsions:
REMARK  status: ('A' for Active; 'I' for Inactive)
REMARK    1  A    between atoms: C_1  and  C_2
REMARK    2  A    between atoms: C_4  and  C_8
REMARK    3  A    between atoms: C_12  and  C_15
REMARK                            x       y       z     vdW  Elec       q    Type
REMARK                         _______ _______ _______ _____ _____    ______ ____
ROOT
ATOM      1  C   UNL     1      -0.976  -2.937  -1.266  0.00  0.00    +0.232 C 
ATOM      2  N   UNL     1      -0.461  -4.331  -1.251  0.00  0.00    -0.225 NA
ATOM      3  N   UNL     1      -1.417  -5.028  -2.128  0.00  0.00    -0.223 NA
ATOM      4  C   UNL     1      -2.710  -4.372  -1.829  0.00  0.00    +0.234 C 
ATOM      5  O   UNL     1      -2.408  -3.075  -1.288  0.00  0.00    -0.335 OA
ATOM      6  H   UNL     1       0.474  -4.376  -1.627  0.00  0.00    +0.143 HD
ATOM      7  H   UNL     1      -1.453  -6.014  -1.913  0.00  0.00    +0.144 HD
ENDROOT
BRANCH   4   8
ATOM      8  C   UNL     1      -3.518  -4.228  -3.094  0.00  0.00    +0.011 A 
ATOM      9  C   UNL     1      -2.918  -4.425  -4.323  0.00  0.00    +0.008 A 
ATOM     10  C   UNL     1      -3.658  -4.293  -5.483  0.00  0.00    +0.000 A 
ATOM     11  C   UNL     1      -4.999  -3.964  -5.413  0.00  0.00    +0.001 A 
ATOM     12  C   UNL     1      -5.600  -3.767  -4.185  0.00  0.00    +0.015 A 
ATOM     13  C   UNL     1      -4.860  -3.904  -3.023  0.00  0.00    +0.025 A 
ATOM     14 BR   UNL     1      -5.683  -3.641  -1.341  0.00  0.00    -0.050 Br
ENDBRANCH   4   8
BRANCH   1  18
ATOM     15  C   UNL     1      -0.018   1.503   0.010  0.00  0.00    +0.067 C 
ATOM     16  C   UNL     1       0.002  -0.004   0.002  0.00  0.00    +0.058 C 
ATOM     17  C   UNL     1      -1.086  -0.777   0.003  0.00  0.00    +0.030 C 
ATOM     18  C   UNL     1      -0.531  -2.190  -0.007  0.00  0.00    +0.197 C 
ATOM     19  N   UNL     1       0.926  -1.973  -0.013  0.00  0.00    -0.176 NA
ATOM     20  N   UNL     1       1.125  -0.756  -0.013  0.00  0.00    -0.159 NA
ENDBRANCH   1  18
TORSDOF 2
