REMARK  Name = ZINC51148784
REMARK  6 active torsions:
REMARK  status: ('A' for Active; 'I' for Inactive)
REMARK    1  A    between atoms: C_5  and  O_7
REMARK    2  A    between atoms: O_7  and  C_8
REMARK    3  A    between atoms: C_8  and  C_9
REMARK    4  A    between atoms: C_11  and  N_17
REMARK    5  A    between atoms: C_14  and  N_15
REMARK    6  A    between atoms: N_15  and  N_16
REMARK                            x       y       z     vdW  Elec       q    Type
REMARK                         _______ _______ _______ _____ _____    ______ ____
ROOT
ATOM      1  C   UNL     1       0.191  -4.198  -0.023  0.00  0.00    +0.014 A 
ATOM      2  C   UNL     1       1.475  -4.707  -0.033  0.00  0.00    +0.041 A 
ATOM      3  C   UNL     1       1.678  -6.075  -0.043  0.00  0.00    +0.127 A 
ATOM      4  C   UNL     1       0.597  -6.938  -0.042  0.00  0.00    +0.034 A 
ATOM      5  C   UNL     1      -0.689  -6.436  -0.032  0.00  0.00    +0.027 A 
ATOM      6  C   UNL     1      -0.896  -5.062  -0.017  0.00  0.00    +0.047 A 
ENDROOT
BRANCH   3   7
ATOM      7  N   UNL     1       3.055  -6.617  -0.054  0.00  0.00    +0.056 N 
ATOM      8  O   UNL     1       4.001  -5.864  -0.054  0.00  0.00    -0.126 OA
ATOM      9  O   UNL     1       3.235  -7.813  -0.062  0.00  0.00    -0.126 OA
ENDBRANCH   3   7
BRANCH   6  10
ATOM     10  N   UNL     1      -2.196  -4.551  -0.001  0.00  0.00    -0.283 N 
ATOM     11  H   UNL     1      -2.340  -3.591   0.006  0.00  0.00    +0.166 HD
BRANCH  10  12
ATOM     12  N   UNL     1      -3.265  -5.401   0.005  0.00  0.00    -0.257 NA
ATOM     13  H   UNL     1      -4.134  -4.890   0.017  0.00  0.00    +0.140 HD
ATOM     14  H   UNL     1      -3.228  -6.034  -0.780  0.00  0.00    +0.140 HD
ENDBRANCH  10  12
ENDBRANCH   6  10
BRANCH   1  15
ATOM     15  C   UNL     1      -0.029  -2.708  -0.012  0.00  0.00    +0.266 C 
BRANCH  15  16
ATOM     16  O   UNL     1       1.234  -2.039  -0.021  0.00  0.00    -0.486 OA
BRANCH  16  21
ATOM     17  C   UNL     1      -0.017   1.377   0.010  0.00  0.00    +0.004 A 
ATOM     18  C   UNL     1       1.170   2.087   0.002  0.00  0.00    +0.002 A 
ATOM     19  C   UNL     1       2.379   1.416  -0.013  0.00  0.00    +0.023 A 
ATOM     20  C   UNL     1       2.404   0.034  -0.021  0.00  0.00    +0.083 A 
ATOM     21  C   UNL     1       1.213  -0.680  -0.013  0.00  0.00    +0.139 A 
ATOM     22  C   UNL     1       0.002  -0.004   0.002  0.00  0.00    +0.047 A 
ATOM     23 CL   UNL     1       3.922  -0.809  -0.041  0.00  0.00    -0.080 Cl
ENDBRANCH  16  21
ENDBRANCH  15  16
ENDBRANCH   1  15
TORSDOF 6
