REMARK  Name = ZINC05594644
REMARK  5 active torsions:
REMARK  status: ('A' for Active; 'I' for Inactive)
REMARK    1  A    between atoms: N_7  and  C_10
REMARK    2  A    between atoms: C_12  and  C_24
REMARK    3  A    between atoms: C_14  and  C_22
REMARK    4  A    between atoms: C_22  and  O_23
REMARK    5  A    between atoms: C_24  and  O_25
REMARK                            x       y       z     vdW  Elec       q    Type
REMARK                         _______ _______ _______ _____ _____    ______ ____
ROOT
ATOM      1  C   UNL     1       2.397   3.494  -0.322  0.00  0.00    +0.122 C 
ATOM      2  C   UNL     1       0.979   2.921  -0.157  0.00  0.00    +0.047 C 
ATOM      3  C   UNL     1       0.971   3.538   1.253  0.00  0.00    +0.050 C 
ATOM      4  C   UNL     1       2.006   4.539   0.727  0.00  0.00    +0.088 C 
ATOM      5  S   UNL     1       1.274   6.041   0.022  0.00  0.00    -0.141 S 
ATOM      6  C   UNL     1       2.712   6.957  -0.603  0.00  0.00    +0.071 C 
ATOM      7  C   UNL     1       3.669   7.264   0.543  0.00  0.00    +0.021 C 
ATOM      8  C   UNL     1       4.429   6.015   0.976  0.00  0.00    +0.071 C 
ATOM      9  S   UNL     1       3.327   4.915   1.911  0.00  0.00    -0.141 S 
ENDROOT
BRANCH   1  16
ATOM     10  C   UNL     1       3.186  -0.875  -0.983  0.00  0.00    +0.225 A 
ATOM     11  N   UNL     1       4.274  -1.349  -0.402  0.00  0.00    -0.219 NA
ATOM     12  C   UNL     1       5.064  -0.564   0.322  0.00  0.00    +0.147 A 
ATOM     13  C   UNL     1       4.718   0.791   0.461  0.00  0.00    +0.147 A 
ATOM     14  C   UNL     1       3.548   1.244  -0.171  0.00  0.00    +0.166 A 
ATOM     15  N   UNL     1       2.822   0.386  -0.880  0.00  0.00    -0.216 NA
ATOM     16  N   UNL     1       3.455   2.582   0.121  0.00  0.00    -0.309 N 
ATOM     17  C   UNL     1       4.524   2.905   0.903  0.00  0.00    +0.202 A 
ATOM     18  N   UNL     1       5.263   1.853   1.101  0.00  0.00    -0.231 NA
ATOM     19  N   UNL     1       6.202  -1.070   0.927  0.00  0.00    -0.341 N 
ATOM     20  H   UNL     1       7.006  -0.586   0.582  0.00  0.00    +0.144 HD
ATOM     21  H   UNL     1       6.430  -2.007   0.824  0.00  0.00    +0.144 HD
ENDBRANCH   1  16
BRANCH   3  22
ATOM     22  C   UNL     1       1.516   2.603   2.335  0.00  0.00    +0.162 C 
BRANCH  22  23
ATOM     23  O   UNL     1       0.634   1.489   2.489  0.00  0.00    -0.395 OA
ATOM     24  H   UNL     1       0.918   0.853   3.161  0.00  0.00    +0.209 HD
ENDBRANCH  22  23
ENDBRANCH   3  22
BRANCH   2  25
ATOM     25  C   UNL     1       0.932   1.391  -0.156  0.00  0.00    +0.161 C 
BRANCH  25  26
ATOM     26  O   UNL     1      -0.399   0.955   0.127  0.00  0.00    -0.395 OA
ATOM     27  H   UNL     1      -0.502  -0.006   0.144  0.00  0.00    +0.209 HD
ENDBRANCH  25  26
ENDBRANCH   2  25
TORSDOF 5
