REMARK  Name = ZINC36597664
REMARK  18 active torsions:
REMARK  status: ('A' for Active; 'I' for Inactive)
REMARK    1  A    between atoms: C_1  and  C_2
REMARK    2  A    between atoms: C_5  and  C_7
REMARK    3  A    between atoms: C_7  and  N_8
REMARK    4  A    between atoms: N_8  and  C_9
REMARK    5  A    between atoms: C_9  and  C_11
REMARK    6  A    between atoms: C_9  and  C_18
REMARK    7  A    between atoms: C_14  and  O_17
REMARK    8  A    between atoms: N_20  and  C_21
REMARK    9  A    between atoms: C_21  and  C_22
REMARK   10  A    between atoms: C_21  and  C_23
REMARK   11  A    between atoms: C_21  and  C_24
REMARK   12  A    between atoms: C_24  and  C_25
REMARK   13  A    between atoms: C_25  and  C_26
REMARK   14  A    between atoms: C_25  and  C_27
REMARK   15  A    between atoms: C_25  and  C_28
REMARK   16  A    between atoms: C_29  and  C_31
REMARK   17  A    between atoms: C_35  and  O_38
REMARK   18  A    between atoms: C_36  and  O_37
REMARK                            x       y       z     vdW  Elec       q    Type
REMARK                         _______ _______ _______ _____ _____    ______ ____
ROOT
ATOM      1  C   UNL     1       2.541  -2.871  -1.104  0.00  0.00    +0.193 C 
ENDROOT
BRANCH   1   2
ATOM      2  C   UNL     1       3.823  -3.662  -1.094  0.00  0.00    -0.018 A 
ATOM      3  C   UNL     1       3.931  -4.811  -1.856  0.00  0.00    +0.009 A 
ATOM      4  C   UNL     1       5.105  -5.538  -1.848  0.00  0.00    +0.046 A 
ATOM      5  C   UNL     1       6.177  -5.115  -1.075  0.00  0.00    +0.117 A 
ATOM      6  C   UNL     1       6.066  -3.962  -0.312  0.00  0.00    +0.046 A 
ATOM      7  C   UNL     1       4.891  -3.235  -0.327  0.00  0.00    +0.009 A 
BRANCH   5   8
ATOM      8  O   UNL     1       7.333  -5.830  -1.065  0.00  0.00    -0.507 OA
ATOM      9  H   UNL     1       7.969  -5.558  -1.742  0.00  0.00    +0.292 HD
ENDBRANCH   5   8
ENDBRANCH   1   2
BRANCH   1  10
ATOM     10  C   UNL     1       2.718  -1.637  -1.951  0.00  0.00    +0.239 C 
ATOM     11  O   UNL     1       1.747  -1.043  -2.369  0.00  0.00    -0.273 OA
ATOM     12  N   UNL     1       3.957  -1.194  -2.244  0.00  0.00    -0.308 N 
ATOM     13  H   UNL     1       4.734  -1.669  -1.911  0.00  0.00    +0.149 HD
BRANCH  12  14
ATOM     14  C   UNL     1       4.129   0.005  -3.068  0.00  0.00    +0.030 C 
ATOM     15  C   UNL     1       3.707  -0.299  -4.507  0.00  0.00    +0.031 C 
ATOM     16  C   UNL     1       3.262   1.136  -2.510  0.00  0.00    +0.031 C 
BRANCH  14  17
ATOM     17  C   UNL     1       5.599   0.431  -3.047  0.00  0.00    +0.031 C 
BRANCH  17  18
ATOM     18  C   UNL     1       6.118   0.401  -1.608  0.00  0.00    -0.036 C 
ATOM     19  C   UNL     1       6.699  -0.981  -1.304  0.00  0.00    +0.010 C 
ATOM     20  C   UNL     1       7.207   1.462  -1.436  0.00  0.00    +0.010 C 
ATOM     21  C   UNL     1       4.966   0.693  -0.644  0.00  0.00    +0.010 C 
ENDBRANCH  17  18
ENDBRANCH  14  17
ENDBRANCH  12  14
ENDBRANCH   1  10
BRANCH   1  22
ATOM     22  N   UNL     1       1.463  -3.693  -1.659  0.00  0.00    -0.275 N 
ATOM     23  C   UNL     1       0.862  -4.624  -0.892  0.00  0.00    +0.252 C 
ATOM     24  O   UNL     1       0.009  -5.348  -1.369  0.00  0.00    -0.270 OA
BRANCH  23  25
ATOM     25  C   UNL     1       1.237  -4.764   0.528  0.00  0.00    +0.082 A 
ATOM     26  C   UNL     1       2.429  -4.205   0.998  0.00  0.00    +0.017 A 
ATOM     27  C   UNL     1       2.776  -4.337   2.325  0.00  0.00    +0.005 A 
ATOM     28  C   UNL     1       1.949  -5.023   3.199  0.00  0.00    +0.049 A 
ATOM     29  C   UNL     1       0.766  -5.582   2.749  0.00  0.00    +0.159 A 
ATOM     30  C   UNL     1       0.399  -5.452   1.413  0.00  0.00    +0.171 A 
BRANCH  30  31
ATOM     31  O   UNL     1      -0.764  -5.994   0.969  0.00  0.00    -0.503 OA
ATOM     32  H   UNL     1      -0.678  -6.905   0.654  0.00  0.00    +0.292 HD
ENDBRANCH  30  31
BRANCH  29  33
ATOM     33  O   UNL     1      -0.041  -6.254   3.614  0.00  0.00    -0.503 OA
ATOM     34  H   UNL     1      -0.700  -5.698   4.050  0.00  0.00    +0.292 HD
ENDBRANCH  29  33
ENDBRANCH  23  25
BRANCH  22  35
ATOM     35  C   UNL     1       1.040  -3.505  -3.049  0.00  0.00    +0.183 C 
BRANCH  35  40
ATOM     36  C   UNL     1       4.769  -4.103  -6.393  0.00  0.00    +0.086 C 
ATOM     37  C   UNL     1       3.658  -4.419  -5.425  0.00  0.00    +0.102 A 
ATOM     38  C   UNL     1       3.218  -5.650  -5.107  0.00  0.00    +0.045 A 
ATOM     39  C   UNL     1       2.173  -5.483  -4.170  0.00  0.00    +0.046 A 
ATOM     40  C   UNL     1       2.036  -4.160  -3.971  0.00  0.00    +0.122 A 
ATOM     41  O   UNL     1       2.942  -3.521  -4.729  0.00  0.00    -0.463 OA
ENDBRANCH  35  40
ENDBRANCH  22  35
ENDBRANCH   1  22
TORSDOF 12
