REMARK  Name = ZINC48908510
REMARK  5 active torsions:
REMARK  status: ('A' for Active; 'I' for Inactive)
REMARK    1  A    between atoms: C_1  and  C_2
REMARK    2  A    between atoms: C_2  and  C_3
REMARK    3  A    between atoms: N_6  and  C_9
REMARK    4  A    between atoms: C_10  and  C_17
REMARK    5  A    between atoms: C_18  and  C_19
REMARK                            x       y       z     vdW  Elec       q    Type
REMARK                         _______ _______ _______ _____ _____    ______ ____
ROOT
ATOM      1  C   UNL     1       3.550  -2.626  -3.502  0.00  0.00    +0.132 A 
ATOM      2  C   UNL     1       4.620  -3.502  -3.417  0.00  0.00    +0.087 A 
ATOM      3  N   UNL     1       5.046  -3.754  -4.733  0.00  0.00    -0.292 N 
ATOM      4  C   UNL     1       6.012  -4.493  -5.373  0.00  0.00    +0.101 A 
ATOM      5  C   UNL     1       6.113  -4.479  -6.703  0.00  0.00    +0.067 A 
ATOM      6  S   UNL     1       4.790  -3.370  -7.159  0.00  0.00    -0.058 S 
ATOM      7  C   UNL     1       4.206  -3.014  -5.517  0.00  0.00    +0.180 A 
ATOM      8  N   UNL     1       3.334  -2.366  -4.784  0.00  0.00    -0.207 NA
ENDROOT
BRANCH   1  12
ATOM      9  C   UNL     1       0.718  -0.497  -1.257  0.00  0.00    -0.008 C 
ATOM     10  C   UNL     1       2.191  -0.082  -1.204  0.00  0.00    +0.021 C 
ATOM     11  C   UNL     1       2.919  -0.646  -2.426  0.00  0.00    +0.086 C 
ATOM     12  N   UNL     1       2.822  -2.111  -2.425  0.00  0.00    -0.378 NA
ATOM     13  C   UNL     1       1.417  -2.517  -2.548  0.00  0.00    +0.086 C 
ATOM     14  C   UNL     1       0.631  -2.025  -1.330  0.00  0.00    +0.021 C 
ATOM     15  H   UNL     1       3.201  -2.471  -1.562  0.00  0.00    +0.128 HD
BRANCH   9  17
ATOM     16  C   UNL     1      -0.019   1.526   0.010  0.00  0.00    +0.004 C 
ATOM     17  C   UNL     1       0.002  -0.004   0.002  0.00  0.00    +0.000 C 
ENDBRANCH   9  17
ENDBRANCH   1  12
BRANCH   2  18
ATOM     18  C   UNL     1       5.174  -4.037  -2.241  0.00  0.00    +0.037 C 
ATOM     19  C   UNL     1       5.380  -5.383  -2.133  0.00  0.00    +0.098 C 
BRANCH  19  20
ATOM     20  C   UNL     1       5.933  -5.915  -0.960  0.00  0.00    +0.380 C 
ATOM     21  O   UNL     1       6.257  -5.108   0.051  0.00  0.00    -0.241 OA
ATOM     22  O   UNL     1       6.135  -7.230  -0.856  0.00  0.00    -0.241 OA
ENDBRANCH  19  20
ENDBRANCH   2  18
TORSDOF 4
