REMARK  Name = ZINC40067797
REMARK  9 active torsions:
REMARK  status: ('A' for Active; 'I' for Inactive)
REMARK    1  A    between atoms: C_1  and  C_2
REMARK    2  A    between atoms: C_2  and  C_4
REMARK    3  A    between atoms: C_2  and  N_13
REMARK    4  A    between atoms: N_13  and  C_14
REMARK    5  A    between atoms: N_17  and  C_18
REMARK    6  A    between atoms: C_18  and  C_19
REMARK    7  A    between atoms: C_19  and  C_20
REMARK    8  A    between atoms: C_25  and  O_26
REMARK    9  A    between atoms: O_26  and  C_27
REMARK                            x       y       z     vdW  Elec       q    Type
REMARK                         _______ _______ _______ _____ _____    ______ ____
ROOT
ATOM      1  N   UNL     1      -1.372  -0.511   0.012  0.00  0.00    -0.279 N 
ATOM      2  C   UNL     1      -2.269  -0.175   1.122  0.00  0.00    +0.134 C 
ATOM      3  C   UNL     1      -1.812  -1.286  -0.998  0.00  0.00    +0.303 C 
ATOM      4  O   UNL     1      -1.068  -1.565  -1.919  0.00  0.00    -0.253 OA
ATOM      5  N   UNL     1      -3.077  -1.753  -0.989  0.00  0.00    -0.299 N 
ATOM      6  H   UNL     1      -3.670  -1.531  -0.255  0.00  0.00    +0.150 HD
ENDROOT
BRANCH   1   8
ATOM      7  C   UNL     1      -0.019   1.526   0.010  0.00  0.00    +0.036 C 
ATOM      8  C   UNL     1       0.002  -0.004   0.002  0.00  0.00    +0.140 C 
BRANCH   8   9
ATOM      9  C   UNL     1       0.731  -0.503   1.223  0.00  0.00    +0.126 A 
ATOM     10  C   UNL     1       2.005  -0.917   1.240  0.00  0.00    +0.055 A 
ATOM     11  C   UNL     1       2.290  -1.308   2.626  0.00  0.00    +0.020 A 
ATOM     12  C   UNL     1       3.410  -1.812   3.286  0.00  0.00    +0.011 A 
ATOM     13  C   UNL     1       3.343  -2.081   4.625  0.00  0.00    +0.001 A 
ATOM     14  C   UNL     1       2.169  -1.856   5.329  0.00  0.00    +0.004 A 
ATOM     15  C   UNL     1       1.052  -1.359   4.693  0.00  0.00    +0.047 A 
ATOM     16  C   UNL     1       1.098  -1.078   3.333  0.00  0.00    +0.135 A 
ATOM     17  O   UNL     1       0.199  -0.593   2.454  0.00  0.00    -0.458 OA
ENDBRANCH   8   9
ENDBRANCH   1   8
BRANCH   5  18
ATOM     18  C   UNL     1      -3.555  -2.596  -2.088  0.00  0.00    +0.110 C 
BRANCH  18  19
ATOM     19  C   UNL     1      -5.012  -2.987  -1.834  0.00  0.00    +0.057 C 
BRANCH  19  20
ATOM     20  C   UNL     1      -5.504  -3.853  -2.964  0.00  0.00    -0.004 A 
ATOM     21  C   UNL     1      -6.181  -3.286  -4.027  0.00  0.00    +0.007 A 
ATOM     22  C   UNL     1      -6.633  -4.081  -5.063  0.00  0.00    +0.000 A 
ATOM     23  C   UNL     1      -6.408  -5.445  -5.040  0.00  0.00    +0.004 A 
ATOM     24  C   UNL     1      -5.732  -6.017  -3.981  0.00  0.00    +0.046 A 
ATOM     25  C   UNL     1      -5.273  -5.221  -2.941  0.00  0.00    +0.123 A 
BRANCH  25  26
ATOM     26  O   UNL     1      -4.602  -5.781  -1.900  0.00  0.00    -0.495 OA
ATOM     27  C   UNL     1      -4.400  -7.195  -1.944  0.00  0.00    +0.277 C 
ENDBRANCH  25  26
ENDBRANCH  19  20
ENDBRANCH  18  19
ENDBRANCH   5  18
TORSDOF 6
