REMARK  Name = ZINC50376790
REMARK  8 active torsions:
REMARK  status: ('A' for Active; 'I' for Inactive)
REMARK    1  A    between atoms: C_1  and  C_2
REMARK    2  A    between atoms: C_2  and  C_3
REMARK    3  A    between atoms: C_3  and  C_5
REMARK    4  A    between atoms: C_3  and  C_9
REMARK    5  A    between atoms: N_6  and  O_7
REMARK    6  A    between atoms: N_11  and  C_12
REMARK    7  A    between atoms: C_17  and  O_19
REMARK    8  A    between atoms: O_19  and  C_20
REMARK                            x       y       z     vdW  Elec       q    Type
REMARK                         _______ _______ _______ _____ _____    ______ ____
ROOT
ATOM      1  C   UNL     1       0.632  -2.000  -1.327  0.00  0.00    +0.224 C 
ATOM      2  O   UNL     1       1.645  -2.666  -1.337  0.00  0.00    -0.275 OA
ATOM      3  N   UNL     1      -0.572  -2.604  -1.380  0.00  0.00    -0.309 N 
ATOM      4  H   UNL     1      -1.383  -2.072  -1.372  0.00  0.00    +0.149 HD
ENDROOT
BRANCH   3   5
ATOM      5  C   UNL     1      -0.656  -4.065  -1.449  0.00  0.00    +0.102 C 
ATOM      6  C   UNL     1      -0.584  -4.530  -2.918  0.00  0.00    +0.025 C 
ATOM      7  C   UNL     1      -1.562  -5.729  -2.985  0.00  0.00    +0.004 C 
ATOM      8  C   UNL     1      -2.719  -5.279  -2.060  0.00  0.00    +0.033 C 
ATOM      9  C   UNL     1      -2.014  -4.541  -0.902  0.00  0.00    +0.138 C 
BRANCH   9  10
ATOM     10  O   UNL     1      -2.795  -3.419  -0.488  0.00  0.00    -0.378 OA
ATOM     11  C   UNL     1      -3.693  -3.702   0.587  0.00  0.00    +0.194 C 
ENDBRANCH   9  10
ENDBRANCH   3   5
BRANCH   1  12
ATOM     12  C   UNL     1       0.718  -0.497  -1.257  0.00  0.00    +0.141 C 
BRANCH  12  13
ATOM     13  C   UNL     1       2.165  -0.079  -1.208  0.00  0.00    +0.144 C 
ATOM     14  N   UNL     1       2.736   0.142  -0.070  0.00  0.00    -0.076 NA
ATOM     15  N   UNL     1       2.880   0.066  -2.376  0.00  0.00    -0.343 N 
ATOM     16  H   UNL     1       2.451  -0.100  -3.231  0.00  0.00    +0.144 HD
ATOM     17  H   UNL     1       3.811   0.335  -2.345  0.00  0.00    +0.144 HD
BRANCH  14  18
ATOM     18  O   UNL     1       4.095   0.535  -0.024  0.00  0.00    -0.408 OA
ATOM     19  H   UNL     1       4.433   0.678   0.870  0.00  0.00    +0.328 HD
ENDBRANCH  14  18
ENDBRANCH  12  13
BRANCH  12  21
ATOM     20  C   UNL     1      -0.019   1.526   0.010  0.00  0.00    +0.005 C 
ATOM     21  C   UNL     1       0.002  -0.004   0.002  0.00  0.00    +0.017 C 
ENDBRANCH  12  21
ENDBRANCH   1  12
TORSDOF 6
