REMARK  Name = ZINC38742236
REMARK  4 active torsions:
REMARK  status: ('A' for Active; 'I' for Inactive)
REMARK    1  A    between atoms: C_1  and  C_2
REMARK    2  A    between atoms: C_4  and  C_8
REMARK    3  A    between atoms: C_16  and  C_18
REMARK    4  A    between atoms: C_19  and  C_20
REMARK                            x       y       z     vdW  Elec       q    Type
REMARK                         _______ _______ _______ _____ _____    ______ ____
ROOT
ATOM      1  C   UNL     1      -0.976  -2.937  -1.266  0.00  0.00    +0.206 C 
ATOM      2  N   UNL     1      -0.342  -2.341  -2.467  0.00  0.00    -0.231 NA
ATOM      3  N   UNL     1       0.385  -3.430  -3.141  0.00  0.00    -0.224 NA
ATOM      4  C   UNL     1      -0.327  -4.639  -2.681  0.00  0.00    +0.240 C 
ATOM      5  N   UNL     1      -0.506  -4.340  -1.222  0.00  0.00    -0.206 N 
ATOM      6  N   UNL     1      -0.118  -5.371  -0.393  0.00  0.00    -0.174 NA
ATOM      7  C   UNL     1       0.626  -6.365  -0.801  0.00  0.00    +0.118 C 
ATOM      8  S   UNL     1       0.793  -6.085  -2.591  0.00  0.00    -0.063 S 
ATOM      9  H   UNL     1      -1.035  -1.936  -3.078  0.00  0.00    +0.143 HD
ATOM     10  H   UNL     1       1.353  -3.450  -2.856  0.00  0.00    +0.144 HD
ENDROOT
BRANCH   1  14
ATOM     11  C   UNL     1      -0.018   1.503   0.010  0.00  0.00    +0.067 C 
ATOM     12  C   UNL     1       0.002  -0.004   0.002  0.00  0.00    +0.058 C 
ATOM     13  C   UNL     1      -1.086  -0.777   0.003  0.00  0.00    +0.029 C 
ATOM     14  C   UNL     1      -0.531  -2.190  -0.007  0.00  0.00    +0.190 C 
ATOM     15  N   UNL     1       0.926  -1.973  -0.013  0.00  0.00    -0.177 NA
ATOM     16  N   UNL     1       1.125  -0.756  -0.013  0.00  0.00    -0.159 NA
ENDBRANCH   1  14
BRANCH   7  17
ATOM     17  C   UNL     1       1.188  -7.457  -0.005  0.00  0.00    +0.040 C 
ATOM     18  C   UNL     1       0.953  -7.515   1.325  0.00  0.00    +0.049 C 
BRANCH  18  19
ATOM     19  C   UNL     1       1.515  -8.607   2.120  0.00  0.00    +0.128 A 
ATOM     20  C   UNL     1       1.351  -8.787   3.465  0.00  0.00    +0.049 A 
ATOM     21  C   UNL     1       2.060  -9.954   3.805  0.00  0.00    +0.042 A 
ATOM     22  C   UNL     1       2.615 -10.427   2.670  0.00  0.00    +0.195 A 
ATOM     23  O   UNL     1       2.280  -9.615   1.654  0.00  0.00    -0.464 OA
ENDBRANCH  18  19
ENDBRANCH   7  17
TORSDOF 3
