REMARK  Name = ZINC39007176
REMARK  8 active torsions:
REMARK  status: ('A' for Active; 'I' for Inactive)
REMARK    1  A    between atoms: C_1  and  C_2
REMARK    2  A    between atoms: C_4  and  N_9
REMARK    3  A    between atoms: C_10  and  C_12
REMARK    4  A    between atoms: C_12  and  S_13
REMARK    5  A    between atoms: S_13  and  C_14
REMARK    6  A    between atoms: C_18  and  C_22
REMARK    7  A    between atoms: N_20  and  N_21
REMARK    8  A    between atoms: C_25  and  C_28
REMARK                            x       y       z     vdW  Elec       q    Type
REMARK                         _______ _______ _______ _____ _____    ______ ____
ROOT
ATOM      1  C   UNL     1       0.541  -7.366  -5.069  0.00  0.00    +0.214 C 
ATOM      2  N   UNL     1       1.702  -6.794  -5.789  0.00  0.00    -0.228 NA
ATOM      3  N   UNL     1       1.249  -6.679  -7.184  0.00  0.00    -0.234 NA
ATOM      4  C   UNL     1      -0.173  -6.269  -7.043  0.00  0.00    +0.185 C 
ATOM      5  N   UNL     1      -0.657  -7.031  -5.868  0.00  0.00    -0.197 NA
ATOM      6  H   UNL     1       2.505  -7.399  -5.718  0.00  0.00    +0.143 HD
ATOM      7  H   UNL     1       1.324  -7.564  -7.663  0.00  0.00    +0.143 HD
ENDROOT
BRANCH   4   8
ATOM      8  C   UNL     1      -0.967  -6.649  -8.295  0.00  0.00    +0.187 C 
ATOM      9  C   UNL     1      -0.373  -5.989  -9.527  0.00  0.00    +0.034 C 
ATOM     10  C   UNL     1      -1.369  -5.206  -9.985  0.00  0.00    +0.091 C 
ATOM     11  N   UNL     1      -2.465  -5.318  -9.188  0.00  0.00    -0.154 NA
ATOM     12  N   UNL     1      -2.329  -6.094  -8.235  0.00  0.00    -0.176 NA
BRANCH  10  13
ATOM     13  C   UNL     1      -1.282  -4.343 -11.188  0.00  0.00    +0.002 A 
ATOM     14  C   UNL     1      -0.109  -4.306 -11.939  0.00  0.00    +0.010 A 
ATOM     15  C   UNL     1      -0.034  -3.502 -13.058  0.00  0.00    +0.001 A 
ATOM     16  C   UNL     1      -1.121  -2.733 -13.434  0.00  0.00    +0.000 A 
ATOM     17  C   UNL     1      -2.288  -2.765 -12.693  0.00  0.00    +0.001 A 
ATOM     18  C   UNL     1      -2.376  -3.570 -11.575  0.00  0.00    +0.010 A 
ENDBRANCH  10  13
ENDBRANCH   4   8
BRANCH   5  19
ATOM     19  N   UNL     1      -1.361  -8.235  -6.280  0.00  0.00    -0.264 NA
ATOM     20  H   UNL     1      -1.660  -8.771  -5.480  0.00  0.00    +0.137 HD
ATOM     21  H   UNL     1      -2.143  -8.010  -6.877  0.00  0.00    +0.137 HD
ENDBRANCH   5  19
BRANCH   1  22
ATOM     22  S   UNL     1       0.411  -6.631  -3.416  0.00  0.00    -0.115 S 
BRANCH  22  23
ATOM     23  C   UNL     1       0.265  -4.851  -3.737  0.00  0.00    +0.168 C 
BRANCH  23  25
ATOM     24  N   UNL     1       0.028  -2.771  -2.420  0.00  0.00    -0.285 N 
ATOM     25  C   UNL     1       0.148  -4.113  -2.428  0.00  0.00    +0.227 C 
ATOM     26  O   UNL     1       0.162  -4.727  -1.382  0.00  0.00    -0.275 OA
ATOM     27  H   UNL     1      -0.060  -2.287  -3.256  0.00  0.00    +0.155 HD
BRANCH  24  31
ATOM     28  C   UNL     1       1.619  -2.350   2.213  0.00  0.00    +0.045 C 
ATOM     29  C   UNL     1       0.793  -1.849   1.057  0.00  0.00    -0.035 A 
ATOM     30  C   UNL     1       0.792  -2.538  -0.141  0.00  0.00    +0.027 A 
ATOM     31  C   UNL     1       0.030  -2.075  -1.206  0.00  0.00    +0.034 A 
ATOM     32  C   UNL     1      -0.729  -0.921  -1.063  0.00  0.00    +0.024 A 
ATOM     33  C   UNL     1      -0.724  -0.236   0.136  0.00  0.00    +0.017 A 
ATOM     34  C   UNL     1       0.032  -0.703   1.197  0.00  0.00    +0.021 A 
ATOM     35 BR   UNL     1       0.029   0.233   2.841  0.00  0.00    -0.050 Br
ENDBRANCH  24  31
ENDBRANCH  23  25
ENDBRANCH  22  23
ENDBRANCH   1  22
TORSDOF 7
