REMARK  Name = ZINC63384529
REMARK  11 active torsions:
REMARK  status: ('A' for Active; 'I' for Inactive)
REMARK    1  A    between atoms: CD1_1  and  CG1_2
REMARK    2  A    between atoms: CG1_2  and  CB_3
REMARK    3  A    between atoms: CB_3  and  CG2_5
REMARK    4  A    between atoms: CB_3  and  CA_6
REMARK    5  A    between atoms: CA_6  and  C_8
REMARK    6  A    between atoms: CA_6  and  N_26
REMARK    7  A    between atoms: N_10  and  CA_11
REMARK    8  A    between atoms: CA_11  and  CB_13
REMARK    9  A    between atoms: CA_11  and  C_23
REMARK   10  A    between atoms: CB_13  and  CG_14
REMARK   11  A    between atoms: C_31  and  O_39
REMARK                            x       y       z     vdW  Elec       q    Type
REMARK                         _______ _______ _______ _____ _____    ______ ____
ROOT
ATOM      1  CA  TRP A   1      -2.077  -0.021  -1.148  0.00  0.00    +0.163 C 
ENDROOT
BRANCH   1   2
ATOM      2  N   TRP A   1      -2.074   1.382  -1.571  0.00  0.00    -0.287 N 
ATOM      3  C   UNK A   0      -1.006   1.888  -2.219  0.00  0.00    +0.308 C 
ATOM      4  O   UNK A   0      -0.084   1.160  -2.532  0.00  0.00    -0.252 OA
ATOM      5  N   UNK A   0      -0.960   3.201  -2.519  0.00  0.00    -0.245 N 
ATOM      6  C   UNK A   0      -2.056   4.112  -2.150  0.00  0.00    +0.210 C 
ATOM      7  C   UNK A   0      -2.295   5.075  -3.283  0.00  0.00    +0.206 C 
ATOM      8  N   UNK A   0      -1.351   5.406  -4.105  0.00  0.00    -0.214 NA
ATOM      9  C   UNK A   0      -0.087   4.889  -3.998  0.00  0.00    +0.089 A 
ATOM     10  C   UNK A   0       0.137   3.761  -3.192  0.00  0.00    +0.064 A 
ATOM     11  C   UNK A   0       1.404   3.225  -3.074  0.00  0.00    +0.026 A 
ATOM     12  C   UNK A   0       2.462   3.809  -3.750  0.00  0.00    +0.002 A 
ATOM     13  C   UNK A   0       2.254   4.926  -4.539  0.00  0.00    +0.002 A 
ATOM     14  C   UNK A   0       0.983   5.468  -4.675  0.00  0.00    +0.030 A 
ATOM     15  H   TRP A   1      -2.841   1.946  -1.386  0.00  0.00    +0.151 HD
BRANCH   7  16
ATOM     16  O   UNK A   0      -3.524   5.607  -3.446  0.00  0.00    -0.494 OA
ATOM     17  H   UNK A   0      -3.594   6.215  -4.195  0.00  0.00    +0.293 HD
ENDBRANCH   7  16
ENDBRANCH   1   2
BRANCH   1  18
ATOM     18  C   TRP A   1      -3.495  -0.527  -1.096  0.00  0.00    +0.234 C 
ATOM     19  O   TRP A   1      -4.421   0.256  -1.137  0.00  0.00    -0.274 OA
ATOM     20  N   TRP A   1      -3.736  -1.850  -1.003  0.00  0.00    -0.300 N 
ATOM     21  H   TRP A   1      -2.998  -2.470  -0.896  0.00  0.00    +0.150 HD
BRANCH  20  22
ATOM     22  CA  TRP A   1      -5.112  -2.350  -1.065  0.00  0.00    +0.190 C 
BRANCH  22  23
ATOM     23  C   TRP A   1      -5.731  -2.288   0.307  0.00  0.00    +0.376 C 
ATOM     24  O   TRP A   1      -5.084  -1.865   1.249  0.00  0.00    -0.244 OA
ATOM     25  OXT TRP A   1      -6.880  -2.661   0.474  0.00  0.00    -0.244 OA
ENDBRANCH  22  23
BRANCH  22  26
ATOM     26  CB  TRP A   1      -5.105  -3.799  -1.557  0.00  0.00    +0.067 C 
BRANCH  26  27
ATOM     27  CG  TRP A   1      -4.600  -3.846  -2.976  0.00  0.00    -0.039 C 
ATOM     28  CD2 TRP A   1      -3.332  -4.089  -3.380  0.00  0.00    -0.001 A 
ATOM     29  CE3 TRP A   1      -2.092  -4.370  -2.647  0.00  0.00    +0.010 A 
ATOM     30  CZ3 TRP A   1      -0.950  -4.575  -3.344  0.00  0.00    +0.001 A 
ATOM     31  CH2 TRP A   1      -0.922  -4.525  -4.744  0.00  0.00    +0.002 A 
ATOM     32  CZ2 TRP A   1      -2.021  -4.272  -5.487  0.00  0.00    +0.026 A 
ATOM     33  CE2 TRP A   1      -3.276  -4.042  -4.859  0.00  0.00    +0.043 A 
ATOM     34  NE1 TRP A   1      -4.463  -3.780  -5.350  0.00  0.00    -0.380 N 
ATOM     35  CD1 TRP A   1      -5.408  -3.637  -4.237  0.00  0.00    +0.144 C 
ATOM     36  HE1 TRP A   1      -4.680  -3.698  -6.292  0.00  0.00    +0.160 HD
ENDBRANCH  26  27
ENDBRANCH  22  26
ENDBRANCH  20  22
ENDBRANCH   1  18
BRANCH   1  37
ATOM     37  CB  TRP A   1      -1.443  -0.136   0.239  0.00  0.00    +0.015 C 
ATOM     38  CG2 TRP A   1      -2.323   0.583   1.264  0.00  0.00    +0.010 C 
BRANCH  37  40
ATOM     39  CD1 TRP A   1      -0.315  -2.297  -0.310  0.00  0.00    +0.004 C 
ATOM     40  CG1 TRP A   1      -1.317  -1.612   0.622  0.00  0.00    +0.002 C 
ENDBRANCH  37  40
ENDBRANCH   1  37
TORSDOF 9
