REMARK  Name = ZINC66678802
REMARK  3 active torsions:
REMARK  status: ('A' for Active; 'I' for Inactive)
REMARK    1  A    between atoms: C_3  and  C_21
REMARK    2  A    between atoms: C_5  and  N_7
REMARK    3  A    between atoms: N_10  and  C_11
REMARK                            x       y       z     vdW  Elec       q    Type
REMARK                         _______ _______ _______ _____ _____    ______ ____
ROOT
ATOM      1  N   UNL     1       1.228  -2.086  -0.021  0.00  0.00    -0.269 N 
ATOM      2  C   UNL     1       0.073  -2.772   0.089  0.00  0.00    +0.304 C 
ATOM      3  O   UNL     1      -0.988  -2.179   0.102  0.00  0.00    -0.252 OA
ATOM      4  N   UNL     1       0.095  -4.117   0.183  0.00  0.00    -0.294 N 
ATOM      5  H   UNL     1       2.068  -2.561  -0.110  0.00  0.00    +0.156 HD
ATOM      6  H   UNL     1       0.942  -4.590   0.172  0.00  0.00    +0.151 HD
ENDROOT
BRANCH   4   7
ATOM      7  C   UNL     1      -1.160  -4.863   0.302  0.00  0.00    +0.037 C 
ATOM      8  C   UNL     1      -1.901  -4.417   1.563  0.00  0.00    +0.029 C 
ATOM      9  C   UNL     1      -3.212  -5.196   1.688  0.00  0.00    -0.008 C 
ATOM     10  C   UNL     1      -2.908  -6.693   1.778  0.00  0.00    +0.007 C 
ATOM     11  C   UNL     1      -2.167  -7.140   0.516  0.00  0.00    -0.008 C 
ATOM     12  C   UNL     1      -0.856  -6.360   0.392  0.00  0.00    +0.029 C 
ATOM     13  C   UNL     1      -3.040  -6.869  -0.711  0.00  0.00    +0.007 C 
ATOM     14  C   UNL     1      -3.343  -5.372  -0.801  0.00  0.00    -0.008 C 
ATOM     15  C   UNL     1      -4.085  -4.926   0.460  0.00  0.00    +0.007 C 
ATOM     16  C   UNL     1      -2.033  -4.593  -0.925  0.00  0.00    +0.029 C 
ENDBRANCH   4   7
BRANCH   1  21
ATOM     17  C   UNL     1       2.130   1.408  -0.746  0.00  0.00    +0.002 A 
ATOM     18  C   UNL     1       1.198   2.088   0.012  0.00  0.00    +0.010 A 
ATOM     19  C   UNL     1       0.264   1.382   0.768  0.00  0.00    +0.004 A 
ATOM     20  C   UNL     1       0.274  -0.010   0.757  0.00  0.00    +0.033 A 
ATOM     21  C   UNL     1       1.213  -0.686  -0.007  0.00  0.00    +0.035 A 
ATOM     22  C   UNL     1       2.141   0.026  -0.757  0.00  0.00    +0.023 A 
BRANCH  19  23
ATOM     23  C   UNL     1      -0.738   2.112   1.583  0.00  0.00    +0.091 A 
ATOM     24  C   UNL     1      -0.748   3.527   1.587  0.00  0.00    +0.035 A 
ATOM     25  C   UNL     1      -1.683   4.164   2.347  0.00  0.00    +0.073 A 
ATOM     26  C   UNL     1      -2.587   3.369   3.086  0.00  0.00    +0.265 A 
ATOM     27  O   UNL     1      -3.442   3.894   3.781  0.00  0.00    -0.266 OA
ATOM     28  N   UNL     1      -2.499   2.027   3.019  0.00  0.00    -0.243 N 
ATOM     29  H   UNL     1      -3.123   1.487   3.529  0.00  0.00    +0.192 HD
ATOM     30  N   UNL     1      -1.615   1.443   2.293  0.00  0.00    -0.171 NA
ENDBRANCH  19  23
ENDBRANCH   1  21
TORSDOF 3
