REMARK  Name = ZINC07022716
REMARK  6 active torsions:
REMARK  status: ('A' for Active; 'I' for Inactive)
REMARK    1  A    between atoms: C_3  and  O_11
REMARK    2  A    between atoms: C_4  and  C_8
REMARK    3  A    between atoms: O_11  and  C_12
REMARK    4  A    between atoms: C_12  and  C_13
REMARK    5  A    between atoms: N_15  and  C_16
REMARK    6  A    between atoms: C_16  and  C_21
REMARK                            x       y       z     vdW  Elec       q    Type
REMARK                         _______ _______ _______ _____ _____    ______ ____
ROOT
ATOM      1  O   UNL     1       2.364   1.124  -0.015  0.00  0.00    -0.482 OA
ENDROOT
BRANCH   1   4
ATOM      2  C   UNL     1      -1.218   1.749   0.017  0.00  0.00    +0.023 A 
ATOM      3  C   UNL     1      -0.013   1.076   0.008  0.00  0.00    +0.048 A 
ATOM      4  C   UNL     1       1.179   1.784   0.000  0.00  0.00    +0.133 A 
ATOM      5  C   UNL     1       1.155   3.186   0.008  0.00  0.00    +0.079 A 
ATOM      6  C   UNL     1      -0.071   3.855   0.023  0.00  0.00    +0.036 A 
ATOM      7  C   UNL     1      -1.247   3.135   0.031  0.00  0.00    +0.042 A 
ATOM      8 CL   UNL     1      -2.771   3.967   0.050  0.00  0.00    -0.084 Cl
BRANCH   5   9
ATOM      9  C   UNL     1       2.417   3.950   0.001  0.00  0.00    +0.245 C 
ATOM     10  O   UNL     1       3.482   3.364  -0.012  0.00  0.00    -0.270 OA
ATOM     11  N   UNL     1       2.389   5.297   0.008  0.00  0.00    -0.325 N 
ATOM     12  H   UNL     1       1.539   5.765   0.018  0.00  0.00    +0.145 HD
ATOM     13  H   UNL     1       3.219   5.800   0.003  0.00  0.00    +0.145 HD
ENDBRANCH   5   9
ENDBRANCH   1   4
BRANCH   1  14
ATOM     14  C   UNL     1       2.311  -0.304  -0.022  0.00  0.00    +0.324 C 
BRANCH  14  15
ATOM     15  C   UNL     1       3.712  -0.859  -0.039  0.00  0.00    +0.252 C 
ATOM     16  O   UNL     1       4.663  -0.106  -0.044  0.00  0.00    -0.272 OA
ATOM     17  N   UNL     1       3.909  -2.192  -0.049  0.00  0.00    -0.295 N 
ATOM     18  H   UNL     1       3.149  -2.795  -0.045  0.00  0.00    +0.150 HD
BRANCH  17  19
ATOM     19  C   UNL     1       5.271  -2.732  -0.065  0.00  0.00    +0.121 C 
ATOM     20  C   UNL     1       5.993  -2.304  -1.359  0.00  0.00    +0.041 C 
ATOM     21  C   UNL     1       6.851  -3.536  -1.741  0.00  0.00    +0.003 C 
ATOM     22  C   UNL     1       5.927  -4.723  -1.373  0.00  0.00    +0.003 C 
ATOM     23  C   UNL     1       5.229  -4.270  -0.074  0.00  0.00    +0.041 C 
BRANCH  19  24
ATOM     24  C   UNL     1       6.016  -2.254   1.111  0.00  0.00    +0.088 C 
ATOM     25  N   UNL     1       6.591  -1.886   2.019  0.00  0.00    -0.194 NA
ENDBRANCH  19  24
ENDBRANCH  17  19
ENDBRANCH  14  15
ENDBRANCH   1  14
TORSDOF 6
