REMARK  Name = ZINC51994716
REMARK  5 active torsions:
REMARK  status: ('A' for Active; 'I' for Inactive)
REMARK    1  A    between atoms: C_3  and  N_21
REMARK    2  A    between atoms: C_4  and  S_8
REMARK    3  A    between atoms: S_8  and  N_11
REMARK    4  A    between atoms: N_11  and  C_12
REMARK    5  A    between atoms: C_18  and  O_20
REMARK                            x       y       z     vdW  Elec       q    Type
REMARK                         _______ _______ _______ _____ _____    ______ ____
ROOT
ATOM      1  S   UNL     1       3.648  -0.825  -1.246  0.00  0.00    +0.062 S 
ATOM      2  O   UNL     1       3.162  -2.084  -1.692  0.00  0.00    -0.153 OA
ATOM      3  O   UNL     1       4.299   0.091  -2.115  0.00  0.00    -0.153 OA
ENDROOT
BRANCH   1   7
ATOM      4  C   UNL     1       0.110   1.372   0.541  0.00  0.00    +0.003 A 
ATOM      5  C   UNL     1       0.091  -0.007   0.458  0.00  0.00    +0.025 A 
ATOM      6  C   UNL     1       1.173  -0.684  -0.089  0.00  0.00    +0.053 A 
ATOM      7  C   UNL     1       2.272   0.029  -0.552  0.00  0.00    +0.144 A 
ATOM      8  C   UNL     1       2.286   1.408  -0.466  0.00  0.00    +0.069 A 
ATOM      9  C   UNL     1       1.205   2.079   0.080  0.00  0.00    +0.022 A 
ATOM     10 CL   UNL     1       3.659   2.300  -1.043  0.00  0.00    -0.081 Cl
BRANCH   6  11
ATOM     11  N   UNL     1       1.157  -2.078  -0.174  0.00  0.00    -0.356 N 
ATOM     12  H   UNL     1       0.312  -2.554  -0.162  0.00  0.00    +0.142 HD
ATOM     13  H   UNL     1       1.990  -2.569  -0.245  0.00  0.00    +0.142 HD
ENDBRANCH   6  11
ENDBRANCH   1   7
BRANCH   1  14
ATOM     14  N   UNL     1       4.706  -1.137  -0.010  0.00  0.00    -0.184 NA
ATOM     15  H   UNL     1       5.583  -0.723  -0.006  0.00  0.00    +0.148 HD
BRANCH  14  16
ATOM     16  C   UNL     1       4.316  -2.039   1.077  0.00  0.00    +0.105 C 
ATOM     17  C   UNL     1       3.763  -1.220   2.245  0.00  0.00    +0.023 C 
ATOM     18  C   UNL     1       4.838  -0.253   2.744  0.00  0.00    +0.002 C 
ATOM     19  C   UNL     1       6.060  -1.046   3.212  0.00  0.00    +0.003 C 
ATOM     20  C   UNL     1       6.614  -1.865   2.044  0.00  0.00    +0.033 C 
ATOM     21  C   UNL     1       5.538  -2.832   1.544  0.00  0.00    +0.133 C 
BRANCH  21  22
ATOM     22  O   UNL     1       6.056  -3.596   0.453  0.00  0.00    -0.390 OA
ATOM     23  H   UNL     1       6.833  -4.125   0.678  0.00  0.00    +0.210 HD
ENDBRANCH  21  22
ENDBRANCH  14  16
ENDBRANCH   1  14
TORSDOF 5
