REMARK  Name = ZINC36801711
REMARK  12 active torsions:
REMARK  status: ('A' for Active; 'I' for Inactive)
REMARK    1  A    between atoms: C_1  and  C_2
REMARK    2  A    between atoms: C_2  and  C_3
REMARK    3  A    between atoms: C_10  and  C_12
REMARK    4  A    between atoms: C_12  and  C_14
REMARK    5  A    between atoms: C_12  and  S_15
REMARK    6  A    between atoms: S_15  and  C_16
REMARK    7  A    between atoms: C_19  and  C_22
REMARK    8  A    between atoms: N_20  and  N_21
REMARK    9  A    between atoms: C_25  and  C_28
REMARK   10  A    between atoms: C_28  and  C_29
REMARK   11  A    between atoms: C_28  and  C_30
REMARK   12  A    between atoms: C_28  and  C_31
REMARK                            x       y       z     vdW  Elec       q    Type
REMARK                         _______ _______ _______ _____ _____    ______ ____
ROOT
ATOM      1  C   UNL     1      -2.422   3.203   5.369  0.00  0.00    +0.209 A 
ATOM      2  N   UNL     1      -3.407   2.486   5.864  0.00  0.00    -0.121 NA
ATOM      3  N   UNL     1      -3.890   3.060   6.907  0.00  0.00    -0.127 NA
ATOM      4  C   UNL     1      -3.245   4.179   7.142  0.00  0.00    +0.182 A 
ATOM      5  N   UNL     1      -2.281   4.302   6.168  0.00  0.00    -0.224 N 
ENDROOT
BRANCH   4   6
ATOM      6  C   UNL     1      -3.501   5.125   8.249  0.00  0.00    +0.021 A 
ATOM      7  C   UNL     1      -2.969   6.414   8.206  0.00  0.00    +0.012 A 
ATOM      8  C   UNL     1      -3.212   7.293   9.242  0.00  0.00    +0.005 A 
ATOM      9  C   UNL     1      -3.982   6.897  10.322  0.00  0.00    -0.042 A 
ATOM     10  C   UNL     1      -4.512   5.620  10.370  0.00  0.00    +0.005 A 
ATOM     11  C   UNL     1      -4.281   4.734   9.338  0.00  0.00    +0.012 A 
BRANCH   9  12
ATOM     12  C   UNL     1      -4.244   7.862  11.450  0.00  0.00    -0.013 C 
ATOM     13  C   UNL     1      -4.969   9.095  10.908  0.00  0.00    +0.015 C 
ATOM     14  C   UNL     1      -5.114   7.183  12.509  0.00  0.00    +0.015 C 
ATOM     15  C   UNL     1      -2.914   8.286  12.076  0.00  0.00    +0.015 C 
ENDBRANCH   9  12
ENDBRANCH   4   6
BRANCH   5  16
ATOM     16  N   UNL     1      -1.374   5.313   6.028  0.00  0.00    -0.295 N 
ATOM     17  H   UNL     1      -1.743   6.053   5.450  0.00  0.00    +0.163 HD
ATOM     18  H   UNL     1      -1.085   5.667   6.927  0.00  0.00    +0.163 HD
ENDBRANCH   5  16
BRANCH   1  19
ATOM     19  S   UNL     1      -1.460   2.816   3.945  0.00  0.00    -0.072 S 
BRANCH  19  20
ATOM     20  C   UNL     1      -2.155   1.246   3.360  0.00  0.00    +0.137 C 
ATOM     21  C   UNL     1      -1.905   0.156   4.404  0.00  0.00    +0.029 C 
BRANCH  20  28
ATOM     22  C   UNL     1      -1.469  -0.423  -0.025  0.00  0.00    +0.076 C 
ATOM     23  C   UNL     1      -1.573  -1.951  -0.080  0.00  0.00    +0.022 C 
ATOM     24  C   UNL     1      -3.043  -2.362   0.030  0.00  0.00    +0.003 C 
ATOM     25  C   UNL     1      -3.609  -1.887   1.370  0.00  0.00    +0.019 C 
ATOM     26  C   UNL     1      -3.528  -0.359   1.441  0.00  0.00    +0.108 C 
ATOM     27  N   UNL     1      -2.140   0.056   1.191  0.00  0.00    -0.298 N 
ATOM     28  C   UNL     1      -1.495   0.857   2.061  0.00  0.00    +0.229 C 
ATOM     29  O   UNL     1      -0.384   1.266   1.800  0.00  0.00    -0.274 OA
BRANCH  22  31
ATOM     30  C   UNL     1       0.711  -0.546  -1.241  0.00  0.00    +0.006 C 
ATOM     31  C   UNL     1       0.004  -0.011   0.006  0.00  0.00    +0.019 C 
ENDBRANCH  22  31
ENDBRANCH  20  28
ENDBRANCH  19  20
ENDBRANCH   1  19
TORSDOF 7
