REMARK  Name = ZINC63038710
REMARK  7 active torsions:
REMARK  status: ('A' for Active; 'I' for Inactive)
REMARK    1  A    between atoms: C_1  and  C_2
REMARK    2  A    between atoms: C_2  and  C_3
REMARK    3  A    between atoms: C_3  and  C_4
REMARK    4  A    between atoms: C_4  and  C_6
REMARK    5  A    between atoms: C_4  and  O_22
REMARK    6  A    between atoms: C_6  and  C_7
REMARK    7  A    between atoms: C_12  and  N_13
REMARK                            x       y       z     vdW  Elec       q    Type
REMARK                         _______ _______ _______ _____ _____    ______ ____
ROOT
ATOM      1  C   UNL     1      -2.798  -4.096   0.253  0.00  0.00    -0.013 A 
ATOM      2  C   UNL     1      -3.064  -4.869  -0.856  0.00  0.00    +0.034 A 
ATOM      3  C   UNL     1      -3.048  -6.260  -0.748  0.00  0.00    +0.078 A 
ATOM      4  C   UNL     1      -2.759  -6.855   0.500  0.00  0.00    +0.067 A 
ATOM      5  C   UNL     1      -2.493  -6.056   1.609  0.00  0.00    +0.048 A 
ATOM      6  C   UNL     1      -2.509  -4.684   1.477  0.00  0.00    +0.130 A 
ATOM      7  C   UNL     1      -2.751  -8.323   0.580  0.00  0.00    +0.259 A 
ATOM      8  O   UNL     1      -2.510  -8.899   1.625  0.00  0.00    -0.267 OA
ATOM      9  N   UNL     1      -3.023  -9.010  -0.554  0.00  0.00    -0.313 N 
ATOM     10  H   UNL     1      -3.027  -9.980  -0.539  0.00  0.00    +0.170 HD
ATOM     11  C   UNL     1      -3.291  -8.354  -1.713  0.00  0.00    +0.199 A 
ATOM     12  N   UNL     1      -3.305  -7.059  -1.814  0.00  0.00    -0.237 NA
ENDROOT
BRANCH   6  13
ATOM     13  N   UNL     1      -2.221  -3.830   2.651  0.00  0.00    +0.057 N 
ATOM     14  O   UNL     1      -1.873  -4.334   3.694  0.00  0.00    -0.126 OA
ATOM     15  O   UNL     1      -2.333  -2.629   2.568  0.00  0.00    -0.126 OA
ENDBRANCH   6  13
BRANCH   1  16
ATOM     16  C   UNL     1      -2.815  -2.594   0.135  0.00  0.00    +0.068 C 
BRANCH  16  17
ATOM     17  C   UNL     1      -1.378  -2.071   0.073  0.00  0.00    +0.119 C 
BRANCH  17  18
ATOM     18  O   UNL     1      -0.752  -2.538  -1.124  0.00  0.00    -0.391 OA
ATOM     19  H   UNL     1      -1.194  -2.253  -1.935  0.00  0.00    +0.210 HD
ENDBRANCH  17  18
BRANCH  17  20
ATOM     20  C   UNL     1      -1.392  -0.541   0.079  0.00  0.00    +0.031 C 
BRANCH  20  22
ATOM     21  C   UNL     1       0.032   1.511   0.148  0.00  0.00    +0.004 C 
ATOM     22  C   UNL     1       0.045  -0.018   0.143  0.00  0.00    -0.001 C 
ENDBRANCH  20  22
ENDBRANCH  17  20
ENDBRANCH  16  17
ENDBRANCH   1  16
TORSDOF 6
