REMARK  Name = ZINC67589426
REMARK  11 active torsions:
REMARK  status: ('A' for Active; 'I' for Inactive)
REMARK    1  A    between atoms: C_1  and  C_2
REMARK    2  A    between atoms: C_2  and  C_29
REMARK    3  A    between atoms: C_4  and  N_10
REMARK    4  A    between atoms: C_6  and  C_8
REMARK    5  A    between atoms: C_6  and  C_9
REMARK    6  A    between atoms: N_13  and  C_14
REMARK    7  A    between atoms: C_14  and  C_15
REMARK    8  A    between atoms: C_15  and  C_17
REMARK    9  A    between atoms: C_15  and  O_28
REMARK   10  A    between atoms: C_17  and  O_18
REMARK   11  A    between atoms: O_18  and  C_19
REMARK                            x       y       z     vdW  Elec       q    Type
REMARK                         _______ _______ _______ _____ _____    ______ ____
ROOT
ATOM      1  N   UNL     1       2.615  -0.819  -2.626  0.00  0.00    -0.297 N 
ATOM      2  C   UNL     1       3.770  -0.334  -3.123  0.00  0.00    +0.300 C 
ATOM      3  O   UNL     1       4.376   0.532  -2.522  0.00  0.00    -0.253 OA
ATOM      4  N   UNL     1       4.255  -0.809  -4.288  0.00  0.00    -0.297 N 
ATOM      5  H   UNL     1       2.133  -1.510  -3.106  0.00  0.00    +0.151 HD
ATOM      6  H   UNL     1       3.772  -1.500  -4.768  0.00  0.00    +0.150 HD
ENDROOT
BRANCH   1  10
ATOM      7  C   UNL     1      -0.019   1.528   0.010  0.00  0.00    -0.010 C 
ATOM      8  C   UNL     1       0.002  -0.004   0.002  0.00  0.00    -0.072 C 
ATOM      9  C   UNL     1       0.573  -0.505  -1.321  0.00  0.00    +0.009 C 
ATOM     10  C   UNL     1       2.088  -0.301  -1.357  0.00  0.00    +0.072 C 
ATOM     11  C   UNL     1       2.703  -1.086  -0.198  0.00  0.00    +0.009 C 
ATOM     12  C   UNL     1       2.147  -0.590   1.133  0.00  0.00    -0.072 C 
ATOM     13  N   UNL     1       0.697  -0.529   1.164  0.00  0.00    +0.386 N 
ATOM     14  C   UNL     1       2.769   0.766   1.481  0.00  0.00    -0.010 C 
ATOM     15  C   UNL     1       2.600  -1.589   2.223  0.00  0.00    -0.010 C 
ATOM     16  C   UNL     1      -1.468  -0.478   0.079  0.00  0.00    -0.010 C 
ATOM     17  H   UNL     1       0.416   0.021   1.982  0.00  0.00    -0.084 HD
ATOM     18  H   UNL     1       0.341  -1.472   1.351  0.00  0.00    -0.084 HD
ENDBRANCH   1  10
BRANCH   4  19
ATOM     19  C   UNL     1       5.510  -0.282  -4.829  0.00  0.00    +0.140 C 
BRANCH  19  20
ATOM     20  C   UNL     1       5.832  -0.986  -6.149  0.00  0.00    +0.169 C 
BRANCH  20  21
ATOM     21  O   UNL     1       4.835  -0.658  -7.119  0.00  0.00    -0.387 OA
ATOM     22  H   UNL     1       4.767   0.288  -7.309  0.00  0.00    +0.210 HD
ENDBRANCH  20  21
BRANCH  20  23
ATOM     23  C   UNL     1       7.202  -0.527  -6.651  0.00  0.00    +0.261 C 
BRANCH  23  24
ATOM     24  O   UNL     1       7.554  -1.269  -7.821  0.00  0.00    -0.489 OA
BRANCH  24  25
ATOM     25  C   UNL     1       8.752  -0.981  -8.397  0.00  0.00    +0.124 A 
ATOM     26  C   UNL     1       9.572  -0.009  -7.843  0.00  0.00    +0.049 A 
ATOM     27  C   UNL     1      10.790   0.284  -8.427  0.00  0.00    +0.053 A 
ATOM     28  C   UNL     1      11.194  -0.391  -9.567  0.00  0.00    +0.166 A 
ATOM     29  C   UNL     1      10.373  -1.367 -10.125  0.00  0.00    +0.170 A 
ATOM     30  C   UNL     1       9.155  -1.664  -9.534  0.00  0.00    +0.095 A 
ATOM     31  O   UNL     1      10.990  -1.879 -11.229  0.00  0.00    -0.452 OA
ATOM     32  C   UNL     1      12.010  -0.923 -11.577  0.00  0.00    +0.466 C 
ATOM     33  O   UNL     1      12.328  -0.291 -10.323  0.00  0.00    -0.453 OA
ENDBRANCH  24  25
ENDBRANCH  23  24
ENDBRANCH  20  23
ENDBRANCH  19  20
ENDBRANCH   4  19
TORSDOF 7
