REMARK  Name = ZINC28198434
REMARK  8 active torsions:
REMARK  status: ('A' for Active; 'I' for Inactive)
REMARK    1  A    between atoms: C_1  and  C_2
REMARK    2  A    between atoms: C_5  and  C_28
REMARK    3  A    between atoms: C_7  and  S_8
REMARK    4  A    between atoms: S_8  and  N_11
REMARK    5  A    between atoms: N_11  and  C_12
REMARK    6  A    between atoms: C_16  and  C_18
REMARK    7  A    between atoms: C_28  and  O_30
REMARK    8  A    between atoms: O_30  and  C_31
REMARK                            x       y       z     vdW  Elec       q    Type
REMARK                         _______ _______ _______ _____ _____    ______ ____
ROOT
ATOM      1  N   UNL     1      -0.648   2.111   0.922  0.00  0.00    -0.216 N 
ATOM      2  H   UNL     1      -0.068   2.924   1.384  0.00  0.00    +0.174 HD
ENDROOT
BRANCH   1   3
ATOM      3  C   UNL     1      -1.780   1.606   1.568  0.00  0.00    +0.049 A 
ATOM      4  C   UNL     1      -1.966   0.232   1.672  0.00  0.00    +0.024 A 
ATOM      5  C   UNL     1      -3.083  -0.272   2.310  0.00  0.00    +0.003 A 
ATOM      6  C   UNL     1      -4.021   0.586   2.849  0.00  0.00    +0.012 A 
ATOM      7  C   UNL     1      -3.844   1.966   2.749  0.00  0.00    +0.021 A 
ATOM      8  C   UNL     1      -2.714   2.475   2.110  0.00  0.00    +0.036 A 
BRANCH   7   9
ATOM      9  C   UNL     1      -4.848   2.887   3.326  0.00  0.00    +0.164 A 
ATOM     10  N   UNL     1      -4.674   4.160   3.610  0.00  0.00    -0.129 NA
ATOM     11  N   UNL     1      -5.763   4.652   4.089  0.00  0.00    -0.134 NA
ATOM     12  C   UNL     1      -6.682   3.728   4.141  0.00  0.00    +0.134 A 
ATOM     13  N   UNL     1      -6.132   2.578   3.670  0.00  0.00    -0.311 N 
ATOM     14  C   UNL     1      -6.790   1.275   3.570  0.00  0.00    +0.125 C 
ATOM     15  C   UNL     1      -8.297   1.480   3.392  0.00  0.00    +0.022 C 
ATOM     16  C   UNL     1      -8.973   1.546   4.761  0.00  0.00    +0.002 C 
ATOM     17  C   UNL     1      -8.440   2.726   5.567  0.00  0.00    +0.008 C 
ATOM     18  C   UNL     1      -8.102   3.884   4.622  0.00  0.00    +0.076 C 
ENDBRANCH   7   9
ENDBRANCH   1   3
BRANCH   1  19
ATOM     19  S   UNL     1      -0.180   1.486  -0.538  0.00  0.00    +0.073 S 
ATOM     20  O   UNL     1      -0.095   0.078  -0.369  0.00  0.00    -0.150 OA
ATOM     21  O   UNL     1       0.920   2.269  -0.981  0.00  0.00    -0.150 OA
BRANCH  19  28
ATOM     22  C   UNL     1      -1.071   4.231  -1.430  0.00  0.00    +0.046 C 
ATOM     23  C   UNL     1      -1.831   3.073  -2.024  0.00  0.00    -0.024 A 
ATOM     24  C   UNL     1      -2.862   3.311  -2.916  0.00  0.00    +0.006 A 
ATOM     25  C   UNL     1      -3.562   2.256  -3.463  0.00  0.00    +0.015 A 
ATOM     26  C   UNL     1      -3.228   0.946  -3.115  0.00  0.00    +0.061 A 
ATOM     27  C   UNL     1      -2.183   0.713  -2.219  0.00  0.00    +0.044 A 
ATOM     28  C   UNL     1      -1.495   1.778  -1.675  0.00  0.00    +0.112 A 
BRANCH  26  29
ATOM     29  C   UNL     1      -3.973  -0.189  -3.697  0.00  0.00    +0.339 C 
ATOM     30  O   UNL     1      -3.681  -1.328  -3.392  0.00  0.00    -0.245 OA
BRANCH  29  31
ATOM     31  O   UNL     1      -4.977   0.039  -4.566  0.00  0.00    -0.464 OA
ATOM     32  C   UNL     1      -5.665  -1.124  -5.098  0.00  0.00    +0.280 C 
ENDBRANCH  29  31
ENDBRANCH  26  29
ENDBRANCH  19  28
ENDBRANCH   1  19
TORSDOF 6
