REMARK  Name = ZINC35313760
REMARK  10 active torsions:
REMARK  status: ('A' for Active; 'I' for Inactive)
REMARK    1  A    between atoms: C_1  and  C_2
REMARK    2  A    between atoms: C_2  and  C_26
REMARK    3  A    between atoms: N_3  and  N_4
REMARK    4  A    between atoms: C_5  and  C_7
REMARK    5  A    between atoms: C_10  and  C_13
REMARK    6  A    between atoms: N_15  and  N_16
REMARK    7  A    between atoms: C_17  and  C_18
REMARK    8  A    between atoms: C_17  and  C_19
REMARK    9  A    between atoms: C_23  and  O_25
REMARK   10  A    between atoms: C_30  and  O_32
REMARK                            x       y       z     vdW  Elec       q    Type
REMARK                         _______ _______ _______ _____ _____    ______ ____
ROOT
ATOM      1  C   UNL     1       3.415   0.145   5.633  0.00  0.00    +0.038 A 
ATOM      2  C   UNL     1       3.648   1.513   5.786  0.00  0.00    +0.014 A 
ATOM      3  C   UNL     1       3.139   2.180   6.879  0.00  0.00    +0.014 A 
ATOM      4  C   UNL     1       2.390   1.489   7.832  0.00  0.00    +0.038 A 
ATOM      5  C   UNL     1       2.156   0.121   7.679  0.00  0.00    +0.014 A 
ATOM      6  C   UNL     1       2.661  -0.545   6.584  0.00  0.00    +0.014 A 
ENDROOT
BRANCH   1   8
ATOM      7  N   UNL     1       4.688   0.095   3.542  0.00  0.00    -0.203 N 
ATOM      8  C   UNL     1       3.961  -0.572   4.460  0.00  0.00    +0.263 C 
ATOM      9  O   UNL     1       3.754  -1.762   4.324  0.00  0.00    -0.268 OA
ATOM     10  H   UNL     1       4.854   1.044   3.650  0.00  0.00    +0.178 HD
BRANCH   7  13
ATOM     11  C   UNL     1       6.163   1.533   1.715  0.00  0.00    +0.068 C 
ATOM     12  C   UNL     1       5.906   0.058   1.546  0.00  0.00    +0.063 C 
ATOM     13  N   UNL     1       5.206  -0.584   2.431  0.00  0.00    -0.184 NA
BRANCH  12  14
ATOM     14  C   UNL     1       6.451  -0.657   0.377  0.00  0.00    +0.001 A 
ATOM     15  C   UNL     1       7.210   0.031  -0.574  0.00  0.00    +0.010 A 
ATOM     16  C   UNL     1       7.718  -0.641  -1.666  0.00  0.00    +0.004 A 
ATOM     17  C   UNL     1       7.479  -1.994  -1.824  0.00  0.00    +0.045 A 
ATOM     18  C   UNL     1       6.725  -2.686  -0.885  0.00  0.00    +0.117 A 
ATOM     19  C   UNL     1       6.215  -2.023   0.218  0.00  0.00    +0.055 A 
BRANCH  18  20
ATOM     20  O   UNL     1       6.493  -4.015  -1.046  0.00  0.00    -0.507 OA
ATOM     21  H   UNL     1       7.161  -4.583  -0.638  0.00  0.00    +0.292 HD
ENDBRANCH  18  20
ENDBRANCH  12  14
ENDBRANCH   7  13
ENDBRANCH   1   8
BRANCH   4  22
ATOM     22  C   UNL     1       1.844   2.205   9.006  0.00  0.00    +0.263 C 
ATOM     23  O   UNL     1       2.048   3.396   9.140  0.00  0.00    -0.268 OA
ATOM     24  N   UNL     1       1.121   1.538   9.927  0.00  0.00    -0.203 N 
ATOM     25  H   UNL     1       0.958   0.588   9.820  0.00  0.00    +0.178 HD
BRANCH  24  26
ATOM     26  N   UNL     1       0.605   2.216  11.039  0.00  0.00    -0.184 NA
ATOM     27  C   UNL     1       0.008   1.555  11.983  0.00  0.00    +0.063 C 
ATOM     28  C   UNL     1      -0.710   2.295  13.082  0.00  0.00    +0.068 C 
BRANCH  27  29
ATOM     29  C   UNL     1       0.032   0.081  11.979  0.00  0.00    +0.001 A 
ATOM     30  C   UNL     1       1.176  -0.601  11.556  0.00  0.00    +0.010 A 
ATOM     31  C   UNL     1       1.196  -1.980  11.555  0.00  0.00    +0.004 A 
ATOM     32  C   UNL     1       0.085  -2.692  11.972  0.00  0.00    +0.045 A 
ATOM     33  C   UNL     1      -1.056  -2.024  12.394  0.00  0.00    +0.117 A 
ATOM     34  C   UNL     1      -1.085  -0.640  12.405  0.00  0.00    +0.055 A 
BRANCH  33  35
ATOM     35  O   UNL     1      -2.144  -2.729  12.802  0.00  0.00    -0.507 OA
ATOM     36  H   UNL     1      -2.150  -2.930  13.748  0.00  0.00    +0.292 HD
ENDBRANCH  33  35
ENDBRANCH  27  29
ENDBRANCH  24  26
ENDBRANCH   4  22
TORSDOF 8
