REMARK  Name = ZINC66925820
REMARK  9 active torsions:
REMARK  status: ('A' for Active; 'I' for Inactive)
REMARK    1  A    between atoms: C_1  and  C_2
REMARK    2  A    between atoms: N_4  and  C_5
REMARK    3  A    between atoms: C_7  and  C_13
REMARK    4  A    between atoms: C_10  and  O_11
REMARK    5  A    between atoms: O_11  and  C_12
REMARK    6  A    between atoms: C_13  and  N_14
REMARK    7  A    between atoms: N_17  and  C_18
REMARK    8  A    between atoms: C_18  and  C_19
REMARK    9  A    between atoms: C_19  and  O_29
REMARK                            x       y       z     vdW  Elec       q    Type
REMARK                         _______ _______ _______ _____ _____    ______ ____
ROOT
ATOM      1  N   UNL     1       1.600  -5.329   1.185  0.00  0.00    -0.295 N 
ATOM      2  C   UNL     1       2.718  -6.043   1.426  0.00  0.00    +0.300 C 
ATOM      3  O   UNL     1       3.426  -6.394   0.503  0.00  0.00    -0.253 OA
ATOM      4  N   UNL     1       3.050  -6.367   2.692  0.00  0.00    -0.296 N 
ATOM      5  H   UNL     1       1.035  -5.048   1.922  0.00  0.00    +0.151 HD
ATOM      6  H   UNL     1       2.485  -6.086   3.429  0.00  0.00    +0.150 HD
ENDROOT
BRANCH   1   7
ATOM      7  C   UNL     1       1.239  -4.977  -0.191  0.00  0.00    +0.141 C 
BRANCH   7  10
ATOM      8  C   UNL     1      -1.180  -2.076  -0.085  0.00  0.00    +0.076 A 
ATOM      9  C   UNL     1      -0.001  -2.807  -0.089  0.00  0.00    +0.032 A 
ATOM     10  C   UNL     1      -0.043  -4.185  -0.186  0.00  0.00    -0.028 A 
ATOM     11  C   UNL     1      -1.258  -4.838  -0.279  0.00  0.00    +0.009 A 
ATOM     12  C   UNL     1      -2.437  -4.117  -0.276  0.00  0.00    +0.048 A 
ATOM     13  C   UNL     1      -2.404  -2.736  -0.173  0.00  0.00    +0.141 A 
BRANCH   8  17
ATOM     14  C   UNL     1      -0.146   1.516  -0.544  0.00  0.00    +0.109 C 
ATOM     15  C   UNL     1      -0.136   0.009  -0.564  0.00  0.00    +0.214 C 
ATOM     16  O   UNL     1       0.776  -0.585  -1.100  0.00  0.00    -0.276 OA
ATOM     17  N   UNL     1      -1.141  -0.679   0.014  0.00  0.00    -0.283 N 
ATOM     18  H   UNL     1      -1.836  -0.207   0.498  0.00  0.00    +0.155 HD
ENDBRANCH   8  17
BRANCH  13  19
ATOM     19  O   UNL     1      -3.563  -2.025  -0.164  0.00  0.00    -0.493 OA
ATOM     20  C   UNL     1      -4.780  -2.768  -0.258  0.00  0.00    +0.277 C 
ENDBRANCH  13  19
ENDBRANCH   7  10
ENDBRANCH   1   7
BRANCH   4  21
ATOM     21  C   UNL     1       4.265  -7.142   2.954  0.00  0.00    +0.145 C 
BRANCH  21  22
ATOM     22  C   UNL     1       4.344  -7.477   4.445  0.00  0.00    +0.107 C 
ATOM     23  C   UNL     1       4.349  -6.181   5.253  0.00  0.00    +0.041 C 
ATOM     24  C   UNL     1       4.647  -6.525   6.717  0.00  0.00    +0.008 C 
ATOM     25  C   UNL     1       6.104  -6.972   6.820  0.00  0.00    +0.035 C 
ATOM     26  C   UNL     1       6.402  -8.042   5.803  0.00  0.00    -0.041 A 
ATOM     27  C   UNL     1       5.596  -8.271   4.710  0.00  0.00    -0.011 A 
ATOM     28  C   UNL     1       5.932  -9.270   3.805  0.00  0.00    +0.007 A 
ATOM     29  C   UNL     1       7.064 -10.036   3.995  0.00  0.00    +0.000 A 
ATOM     30  C   UNL     1       7.871  -9.808   5.094  0.00  0.00    +0.000 A 
ATOM     31  C   UNL     1       7.540  -8.815   5.992  0.00  0.00    +0.004 A 
BRANCH  22  32
ATOM     32  O   UNL     1       3.205  -8.257   4.814  0.00  0.00    -0.382 OA
ATOM     33  H   UNL     1       3.129  -9.094   4.335  0.00  0.00    +0.211 HD
ENDBRANCH  22  32
ENDBRANCH  21  22
ENDBRANCH   4  21
TORSDOF 7
