REMARK  Name = ZINC59293241
REMARK  6 active torsions:
REMARK  status: ('A' for Active; 'I' for Inactive)
REMARK    1  A    between atoms: C_1  and  O_2
REMARK    2  A    between atoms: O_2  and  C_3
REMARK    3  A    between atoms: C_3  and  C_5
REMARK    4  A    between atoms: C_6  and  N_33
REMARK    5  A    between atoms: N_26  and  C_29
REMARK    6  A    between atoms: C_29  and  C_30
REMARK                            x       y       z     vdW  Elec       q    Type
REMARK                         _______ _______ _______ _____ _____    ______ ____
ROOT
ATOM      1  C   UNL     1       0.748  -2.009  -1.320  0.00  0.00    +0.117 C 
ATOM      2  C   UNL     1       1.419  -2.512  -2.389  0.00  0.00    +0.196 C 
ATOM      3  O   UNL     1       1.570  -3.836  -2.563  0.00  0.00    -0.440 OA
ATOM      4  C   UNL     1       0.764  -4.701  -1.919  0.00  0.00    +0.152 A 
ATOM      5  C   UNL     1       0.630  -6.086  -2.396  0.00  0.00    +0.060 A 
ATOM      6  C   UNL     1       1.331  -6.533  -3.518  0.00  0.00    +0.015 A 
ATOM      7  C   UNL     1       1.182  -7.836  -3.938  0.00  0.00    +0.001 A 
ATOM      8  C   UNL     1       0.342  -8.701  -3.253  0.00  0.00    +0.004 A 
ATOM      9  C   UNL     1      -0.356  -8.273  -2.144  0.00  0.00    +0.047 A 
ATOM     10  C   UNL     1      -0.220  -6.963  -1.703  0.00  0.00    +0.143 A 
ATOM     11  O   UNL     1      -0.895  -6.525  -0.618  0.00  0.00    -0.422 OA
ATOM     12  C   UNL     1      -0.774  -5.264  -0.173  0.00  0.00    +0.346 A 
ATOM     13  O   UNL     1      -1.401  -4.922   0.815  0.00  0.00    -0.245 OA
ATOM     14  C   UNL     1       0.052  -4.327  -0.817  0.00  0.00    +0.104 A 
ATOM     15  C   UNL     1       0.154  -2.923  -0.286  0.00  0.00    +0.145 C 
ATOM     16  C   UNL     1       0.947  -2.881   0.983  0.00  0.00    -0.002 A 
ATOM     17  C   UNL     1       2.257  -3.217   1.252  0.00  0.00    +0.007 A 
ATOM     18  C   UNL     1       2.692  -3.055   2.563  0.00  0.00    +0.000 A 
ATOM     19  C   UNL     1       1.849  -2.581   3.547  0.00  0.00    +0.002 A 
ATOM     20  C   UNL     1       0.531  -2.242   3.284  0.00  0.00    +0.024 A 
ATOM     21  C   UNL     1       0.081  -2.399   1.972  0.00  0.00    +0.042 A 
ATOM     22  N   UNL     1      -1.168  -2.144   1.435  0.00  0.00    -0.261 N 
ATOM     23  C   UNL     1      -1.219  -2.424   0.116  0.00  0.00    +0.240 C 
ATOM     24  O   UNL     1      -2.182  -2.299  -0.611  0.00  0.00    -0.274 OA
ENDROOT
BRANCH   2  25
ATOM     25  N   UNL     1       1.952  -1.651  -3.310  0.00  0.00    -0.329 N 
ATOM     26  H   UNL     1       1.786  -0.698  -3.237  0.00  0.00    +0.145 HD
ATOM     27  H   UNL     1       2.496  -1.994  -4.037  0.00  0.00    +0.145 HD
ENDBRANCH   2  25
BRANCH   1  28
ATOM     28  C   UNL     1       0.614  -0.620  -1.176  0.00  0.00    +0.341 C 
ATOM     29  O   UNL     1       1.334  -0.016  -0.401  0.00  0.00    -0.245 OA
BRANCH  28  31
ATOM     30  C   UNL     1      -0.323   1.472  -1.781  0.00  0.00    +0.280 C 
ATOM     31  O   UNL     1      -0.312   0.047  -1.897  0.00  0.00    -0.465 OA
ENDBRANCH  28  31
ENDBRANCH   1  28
BRANCH  22  32
ATOM     32  C   UNL     1      -2.302  -1.632   2.207  0.00  0.00    +0.209 C 
BRANCH  32  33
ATOM     33  C   UNL     1      -2.345  -0.129   2.099  0.00  0.00    +0.228 C 
ATOM     34  O   UNL     1      -1.565   0.449   1.373  0.00  0.00    -0.274 OA
ATOM     35  N   UNL     1      -3.251   0.572   2.810  0.00  0.00    -0.328 N 
ATOM     36  H   UNL     1      -3.875   0.109   3.390  0.00  0.00    +0.145 HD
ATOM     37  H   UNL     1      -3.279   1.539   2.740  0.00  0.00    +0.145 HD
ENDBRANCH  32  33
ENDBRANCH  22  32
TORSDOF 5
