REMARK  Name = ZINC35664892
REMARK  13 active torsions:
REMARK  status: ('A' for Active; 'I' for Inactive)
REMARK    1  A    between atoms: C_1  and  C_2
REMARK    2  A    between atoms: C_2  and  O_3
REMARK    3  A    between atoms: O_3  and  C_4
REMARK    4  A    between atoms: C_4  and  C_6
REMARK    5  A    between atoms: C_7  and  C_24
REMARK    6  A    between atoms: N_8  and  C_21
REMARK    7  A    between atoms: C_12  and  C_14
REMARK    8  A    between atoms: C_18  and  C_20
REMARK    9  A    between atoms: C_21  and  C_22
REMARK   10  A    between atoms: C_24  and  N_25
REMARK   11  A    between atoms: C_29  and  C_32
REMARK   12  A    between atoms: C_33  and  C_35
REMARK   13  A    between atoms: C_38  and  C_41
REMARK                            x       y       z     vdW  Elec       q    Type
REMARK                         _______ _______ _______ _____ _____    ______ ____
ROOT
ATOM      1  C   UNL     1       0.812  -2.035  -0.143  0.00  0.00    +0.080 C 
ATOM      2  C   UNL     1       1.251  -3.200  -0.668  0.00  0.00    +0.041 C 
ATOM      3  N   UNL     1       2.049  -3.217  -1.776  0.00  0.00    -0.254 N 
ATOM      4  C   UNL     1       2.452  -2.114  -2.418  0.00  0.00    +0.307 C 
ATOM      5  O   UNL     1       3.162  -2.230  -3.398  0.00  0.00    -0.252 OA
ATOM      6  N   UNL     1       2.096  -0.878  -2.014  0.00  0.00    -0.288 N 
ATOM      7  C   UNL     1       1.230  -0.751  -0.830  0.00  0.00    +0.144 C 
ATOM      8  H   UNL     1       2.400  -0.092  -2.494  0.00  0.00    +0.151 HD
ENDROOT
BRANCH   7   9
ATOM      9  C   UNL     1      -0.020  -0.015  -1.239  0.00  0.00    -0.022 A 
ATOM     10  C   UNL     1      -0.701  -0.392  -2.382  0.00  0.00    +0.006 A 
ATOM     11  C   UNL     1      -1.847   0.283  -2.757  0.00  0.00    +0.001 A 
ATOM     12  C   UNL     1      -2.313   1.335  -1.990  0.00  0.00    +0.003 A 
ATOM     13  C   UNL     1      -1.632   1.711  -0.848  0.00  0.00    -0.050 A 
ATOM     14  C   UNL     1      -0.488   1.033  -0.470  0.00  0.00    +0.009 A 
ATOM     15  C   UNL     1      -2.139   2.858  -0.012  0.00  0.00    +0.044 C 
ENDBRANCH   7   9
BRANCH   1  16
ATOM     16  C   UNL     1      -0.015  -2.015   1.004  0.00  0.00    +0.339 C 
ATOM     17  O   UNL     1      -1.207  -1.802   0.892  0.00  0.00    -0.245 OA
BRANCH  16  18
ATOM     18  O   UNL     1       0.519  -2.234   2.224  0.00  0.00    -0.462 OA
BRANCH  18  20
ATOM     19  C   UNL     1       0.407  -2.466   4.627  0.00  0.00    +0.048 C 
ATOM     20  C   UNL     1      -0.374  -2.199   3.339  0.00  0.00    +0.229 C 
ENDBRANCH  18  20
ENDBRANCH  16  18
ENDBRANCH   1  16
BRANCH   3  21
ATOM     21  C   UNL     1       2.488  -4.517  -2.291  0.00  0.00    +0.141 C 
BRANCH  21  22
ATOM     22  C   UNL     1       1.486  -5.023  -3.296  0.00  0.00    -0.015 C 
ATOM     23  C   UNL     1       1.877  -5.351  -4.503  0.00  0.00    +0.005 C 
ENDBRANCH  21  22
ENDBRANCH   3  21
BRANCH   2  24
ATOM     24  C   UNL     1       0.855  -4.501  -0.019  0.00  0.00    +0.136 C 
BRANCH  24  25
ATOM     25  N   UNL     1      -0.043  -5.241  -0.915  0.00  0.00    -0.294 NA
ATOM     26  C   UNL     1      -1.316  -4.529  -1.092  0.00  0.00    +0.104 C 
ATOM     27  C   UNL     1      -2.148  -5.235  -2.168  0.00  0.00    +0.124 C 
ATOM     28  N   UNL     1      -2.275  -6.654  -1.803  0.00  0.00    -0.292 N 
ATOM     29  C   UNL     1      -1.051  -7.402  -1.477  0.00  0.00    +0.087 C 
ATOM     30  C   UNL     1      -0.262  -6.610  -0.428  0.00  0.00    +0.107 C 
ATOM     31  C   UNL     1      -1.422  -8.776  -0.917  0.00  0.00    +0.029 C 
ATOM     32  C   UNL     1      -3.482  -7.254  -1.769  0.00  0.00    +0.247 C 
ATOM     33  O   UNL     1      -3.581  -8.396  -1.365  0.00  0.00    -0.270 OA
BRANCH  32  34
ATOM     34  C   UNL     1      -4.684  -6.523  -2.223  0.00  0.00    +0.037 A 
ATOM     35  C   UNL     1      -4.571  -5.516  -3.183  0.00  0.00    +0.013 A 
ATOM     36  C   UNL     1      -5.697  -4.838  -3.602  0.00  0.00    +0.004 A 
ATOM     37  C   UNL     1      -6.936  -5.154  -3.073  0.00  0.00    -0.050 A 
ATOM     38  C   UNL     1      -7.054  -6.150  -2.121  0.00  0.00    +0.004 A 
ATOM     39  C   UNL     1      -5.937  -6.840  -1.697  0.00  0.00    +0.013 A 
ATOM     40  C   UNL     1      -8.161  -4.408  -3.536  0.00  0.00    +0.044 C 
ENDBRANCH  32  34
ENDBRANCH  24  25
ENDBRANCH   2  24
TORSDOF 9
