REMARK  Name = ZINC61592267
REMARK  5 active torsions:
REMARK  status: ('A' for Active; 'I' for Inactive)
REMARK    1  A    between atoms: C_1  and  C_2
REMARK    2  A    between atoms: C_5  and  S_11
REMARK    3  A    between atoms: C_6  and  C_8
REMARK    4  A    between atoms: S_11  and  C_12
REMARK    5  A    between atoms: N_18  and  C_19
REMARK                            x       y       z     vdW  Elec       q    Type
REMARK                         _______ _______ _______ _____ _____    ______ ____
ROOT
ATOM      1  C   UNL     1      -0.026   1.503  -0.005  0.00  0.00    +0.044 C 
ATOM      2  C   UNL     1      -0.002  -0.004  -0.009  0.00  0.00    -0.050 A 
ATOM      3  C   UNL     1      -0.142  -0.692  -1.206  0.00  0.00    +0.004 A 
ATOM      4  C   UNL     1      -0.122  -2.071  -1.226  0.00  0.00    +0.016 A 
ATOM      5  C   UNL     1       0.038  -2.783  -0.043  0.00  0.00    +0.030 A 
ATOM      6  C   UNL     1       0.180  -2.089   1.172  0.00  0.00    +0.077 A 
ATOM      7  C   UNL     1       0.163  -0.689   1.173  0.00  0.00    +0.019 A 
ENDROOT
BRANCH   6   8
ATOM      8  C   UNL     1       0.350  -2.828   2.431  0.00  0.00    +0.388 C 
ATOM      9  O   UNL     1       0.473  -2.219   3.486  0.00  0.00    -0.241 OA
ATOM     10  O   UNL     1       0.369  -4.051   2.425  0.00  0.00    -0.241 OA
ENDBRANCH   6   8
BRANCH   5  11
ATOM     11  S   UNL     1       0.063  -4.544  -0.065  0.00  0.00    -0.049 S 
BRANCH  11  12
ATOM     12  C   UNL     1      -1.534  -5.000   0.521  0.00  0.00    +0.197 A 
ATOM     13  N   UNL     1      -2.509  -4.179   0.786  0.00  0.00    -0.144 NA
ATOM     14  N   UNL     1      -3.606  -4.934   1.225  0.00  0.00    -0.226 N 
ATOM     15  H   UNL     1      -4.471  -4.587   1.492  0.00  0.00    +0.194 HD
ATOM     16  C   UNL     1      -3.236  -6.231   1.208  0.00  0.00    +0.345 A 
ATOM     17  O   UNL     1      -3.929  -7.182   1.524  0.00  0.00    -0.245 OA
ATOM     18  N   UNL     1      -1.962  -6.285   0.770  0.00  0.00    -0.274 N 
ATOM     19  C   UNL     1      -1.167  -7.503   0.593  0.00  0.00    +0.156 C 
ENDBRANCH  11  12
ENDBRANCH   5  11
TORSDOF 3
