REMARK  Name = ZINC07975376
REMARK  10 active torsions:
REMARK  status: ('A' for Active; 'I' for Inactive)
REMARK    1  A    between atoms: C_1  and  C_2
REMARK    2  A    between atoms: C_4  and  C_30
REMARK    3  A    between atoms: C_5  and  C_9
REMARK    4  A    between atoms: C_6  and  C_8
REMARK    5  A    between atoms: C_9  and  O_11
REMARK    6  A    between atoms: O_11  and  C_12
REMARK    7  A    between atoms: C_12  and  C_13
REMARK    8  A    between atoms: N_15  and  N_16
REMARK    9  A    between atoms: C_19  and  C_23
REMARK   10  A    between atoms: C_19  and  C_24
REMARK                            x       y       z     vdW  Elec       q    Type
REMARK                         _______ _______ _______ _____ _____    ______ ____
ROOT
ATOM      1  C   UNL     1      -3.604   1.962   0.030  0.00  0.00    +0.267 C 
ATOM      2  O   UNL     1      -3.462   3.167   0.036  0.00  0.00    -0.271 OA
ATOM      3  N   UNL     1      -4.843   1.431   0.033  0.00  0.00    -0.221 N 
ATOM      4  H   UNL     1      -4.957   0.467   0.028  0.00  0.00    +0.174 HD
ENDROOT
BRANCH   3   5
ATOM      5  N   UNL     1      -5.965   2.269   0.043  0.00  0.00    -0.137 N 
ATOM      6  C   UNL     1      -6.750   2.496  -1.029  0.00  0.00    +0.267 C 
ATOM      7  O   UNL     1      -6.621   2.033  -2.142  0.00  0.00    -0.271 OA
ATOM      8  C   UNL     1      -7.825   3.453  -0.554  0.00  0.00    +0.137 C 
ATOM      9  N   UNL     1      -7.491   3.674   0.863  0.00  0.00    -0.280 N 
ATOM     10  C   UNL     1      -6.394   2.938   1.119  0.00  0.00    +0.327 C 
ATOM     11  O   UNL     1      -5.852   2.888   2.206  0.00  0.00    -0.251 OA
ATOM     12  C   UNL     1      -7.762   4.766  -1.337  0.00  0.00    +0.047 C 
ATOM     13  H   UNL     1      -7.969   4.238   1.490  0.00  0.00    +0.152 HD
BRANCH   8  14
ATOM     14  C   UNL     1      -9.189   2.825  -0.686  0.00  0.00    -0.015 A 
ATOM     15  C   UNL     1      -9.431   1.901  -1.685  0.00  0.00    +0.006 A 
ATOM     16  C   UNL     1     -10.680   1.321  -1.802  0.00  0.00    +0.000 A 
ATOM     17  C   UNL     1     -11.691   1.673  -0.927  0.00  0.00    +0.000 A 
ATOM     18  C   UNL     1     -11.450   2.602   0.069  0.00  0.00    +0.000 A 
ATOM     19  C   UNL     1     -10.199   3.177   0.189  0.00  0.00    +0.006 A 
ENDBRANCH   8  14
ENDBRANCH   3   5
BRANCH   1  20
ATOM     20  C   UNL     1      -2.397   1.061   0.019  0.00  0.00    +0.329 C 
BRANCH  20  21
ATOM     21  O   UNL     1      -1.190   1.868   0.018  0.00  0.00    -0.452 OA
BRANCH  21  22
ATOM     22  C   UNL     1      -0.014   1.210   0.009  0.00  0.00    +0.340 C 
ATOM     23  O   UNL     1       0.002  -0.004   0.002  0.00  0.00    -0.245 OA
BRANCH  22  28
ATOM     24  C   UNL     1       4.928   4.157  -0.023  0.00  0.00    +0.044 C 
ATOM     25  C   UNL     1       3.633   3.385  -0.015  0.00  0.00    -0.050 A 
ATOM     26  C   UNL     1       3.031   3.038  -1.211  0.00  0.00    +0.007 A 
ATOM     27  C   UNL     1       1.846   2.332  -1.210  0.00  0.00    -0.036 A 
ATOM     28  C   UNL     1       1.255   1.966   0.001  0.00  0.00    +0.065 A 
ATOM     29  C   UNL     1       1.866   2.324   1.204  0.00  0.00    -0.036 A 
ATOM     30  C   UNL     1       3.053   3.026   1.189  0.00  0.00    +0.007 A 
ATOM     31  C   UNL     1       1.232   1.939   2.516  0.00  0.00    +0.044 C 
ATOM     32  C   UNL     1       1.191   1.955  -2.514  0.00  0.00    +0.044 C 
ENDBRANCH  22  28
ENDBRANCH  21  22
ENDBRANCH  20  21
ENDBRANCH   1  20
TORSDOF 6
