REMARK  Name = ZINC20920491
REMARK  9 active torsions:
REMARK  status: ('A' for Active; 'I' for Inactive)
REMARK    1  A    between atoms: C_1  and  C_2
REMARK    2  A    between atoms: C_2  and  O_3
REMARK    3  A    between atoms: O_3  and  C_4
REMARK    4  A    between atoms: C_9  and  O_10
REMARK    5  A    between atoms: O_10  and  C_11
REMARK    6  A    between atoms: C_11  and  C_12
REMARK    7  A    between atoms: C_13  and  C_29
REMARK    8  A    between atoms: N_20  and  C_21
REMARK    9  A    between atoms: C_29  and  C_30
REMARK                            x       y       z     vdW  Elec       q    Type
REMARK                         _______ _______ _______ _____ _____    ______ ____
ROOT
ATOM      1  C   UNL     1       2.634   7.728   0.966  0.00  0.00    +0.162 A 
ATOM      2  C   UNL     1       3.429   7.250  -0.059  0.00  0.00    +0.053 A 
ATOM      3  C   UNL     1       3.466   5.892  -0.351  0.00  0.00    -0.037 A 
ATOM      4  C   UNL     1       2.708   5.014   0.392  0.00  0.00    -0.020 A 
ATOM      5  C   UNL     1       1.905   5.490   1.420  0.00  0.00    +0.055 A 
ATOM      6  C   UNL     1       1.863   6.841   1.711  0.00  0.00    +0.162 A 
ATOM      7  C   UNL     1       2.712   3.528   0.135  0.00  0.00    +0.119 C 
ATOM      8  N   UNL     1       3.397   3.248  -1.132  0.00  0.00    -0.277 N 
ATOM      9  C   UNL     1       4.660   3.958  -1.389  0.00  0.00    +0.114 C 
ATOM     10  C   UNL     1       4.346   5.449  -1.491  0.00  0.00    +0.054 C 
ATOM     11  C   UNL     1       2.890   2.374  -2.024  0.00  0.00    +0.307 C 
ATOM     12  O   UNL     1       1.794   1.881  -1.837  0.00  0.00    -0.252 OA
ATOM     13  N   UNL     1       3.598   2.046  -3.123  0.00  0.00    -0.269 N 
ATOM     14  H   UNL     1       4.561   2.538  -3.323  0.00  0.00    +0.156 HD
ENDROOT
BRANCH  13  15
ATOM     15  C   UNL     1       3.107   1.078  -4.009  0.00  0.00    +0.036 A 
ATOM     16  C   UNL     1       3.985   0.214  -4.650  0.00  0.00    +0.026 A 
ATOM     17  C   UNL     1       3.500  -0.743  -5.519  0.00  0.00    +0.041 A 
ATOM     18  C   UNL     1       2.139  -0.834  -5.761  0.00  0.00    +0.142 A 
ATOM     19  C   UNL     1       1.262   0.030  -5.126  0.00  0.00    +0.078 A 
ATOM     20  C   UNL     1       1.744   0.986  -4.251  0.00  0.00    +0.046 A 
ATOM     21 CL   UNL     1      -0.443  -0.087  -5.430  0.00  0.00    -0.081 Cl
ATOM     22  F   UNL     1       1.667  -1.768  -6.616  0.00  0.00    -0.204 F 
ENDBRANCH  13  15
BRANCH   1  23
ATOM     23  O   UNL     1       2.604   9.059   1.244  0.00  0.00    -0.489 OA
BRANCH  23  25
ATOM     24  C   UNL     1       3.258  11.360   0.895  0.00  0.00    +0.048 C 
ATOM     25  C   UNL     1       3.422   9.909   0.437  0.00  0.00    +0.226 C 
ENDBRANCH  23  25
ENDBRANCH   1  23
BRANCH   6  26
ATOM     26  O   UNL     1       1.073   7.300   2.719  0.00  0.00    -0.489 OA
BRANCH  26  27
ATOM     27  C   UNL     1       0.311   6.329   3.439  0.00  0.00    +0.226 C 
ATOM     28  C   UNL     1      -0.509   7.027   4.525  0.00  0.00    +0.048 C 
ENDBRANCH  26  27
ENDBRANCH   6  26
BRANCH   7  29
ATOM     29  C   UNL     1       1.271   3.020   0.058  0.00  0.00    +0.152 C 
BRANCH  29  30
ATOM     30  C   UNL     1       1.253   1.527   0.261  0.00  0.00    +0.358 C 
ATOM     31  O   UNL     1       2.286   0.930   0.450  0.00  0.00    -0.246 OA
ATOM     32  O   UNL     1       0.088   0.860   0.233  0.00  0.00    -0.246 OA
ENDBRANCH  29  30
ENDBRANCH   7  29
TORSDOF 7
