REMARK  Name = ZINC39449909
REMARK  4 active torsions:
REMARK  status: ('A' for Active; 'I' for Inactive)
REMARK    1  A    between atoms: C_1  and  O_2
REMARK    2  A    between atoms: O_2  and  N_3
REMARK    3  A    between atoms: C_16  and  S_21
REMARK    4  A    between atoms: S_21  and  C_22
REMARK                            x       y       z     vdW  Elec       q    Type
REMARK                         _______ _______ _______ _____ _____    ______ ____
ROOT
ATOM      1  N   UNL     1       0.646  -0.565  -1.127  0.00  0.00    -0.139 N 
ATOM      2  C   UNL     1      -0.106  -0.837  -2.263  0.00  0.00    +0.149 A 
ATOM      3  C   UNL     1       0.480  -1.379  -3.391  0.00  0.00    +0.085 A 
ATOM      4  C   UNL     1       1.918  -1.683  -3.390  0.00  0.00    +0.099 A 
ATOM      5  C   UNL     1       2.659  -1.399  -2.223  0.00  0.00    +0.071 A 
ATOM      6  C   UNL     1       1.967  -0.812  -1.067  0.00  0.00    +0.293 A 
ATOM      7  O   UNL     1       2.589  -0.553  -0.053  0.00  0.00    -0.264 OA
ATOM      8  C   UNL     1       4.026  -1.678  -2.199  0.00  0.00    +0.032 A 
ATOM      9  C   UNL     1       4.597  -2.228  -3.334  0.00  0.00    +0.037 A 
ATOM     10  C   UNL     1       3.805  -2.481  -4.447  0.00  0.00    +0.126 A 
ATOM     11  N   UNL     1       2.517  -2.210  -4.450  0.00  0.00    -0.252 NA
ATOM     12 BR   UNL     1       6.445  -2.630  -3.371  0.00  0.00    -0.049 Br
ATOM     13  N   UNL     1      -0.285  -1.628  -4.514  0.00  0.00    -0.328 N 
ATOM     14  C   UNL     1      -1.495  -0.818  -4.726  0.00  0.00    +0.136 C 
ATOM     15  C   UNL     1      -2.347  -0.887  -3.454  0.00  0.00    +0.114 C 
ATOM     16  C   UNL     1      -1.491  -0.550  -2.261  0.00  0.00    +0.187 C 
ATOM     17  O   UNL     1      -1.995  -0.026  -1.288  0.00  0.00    -0.290 OA
ATOM     18  H   UNL     1      -0.031  -2.318  -5.146  0.00  0.00    +0.147 HD
ENDROOT
BRANCH   1  20
ATOM     19  C   UNL     1      -0.017   1.425   0.010  0.00  0.00    +0.311 C 
ATOM     20  O   UNL     1       0.002  -0.004   0.002  0.00  0.00    -0.411 OA
ENDBRANCH   1  20
BRANCH  14  21
ATOM     21  S   UNL     1      -1.029   0.903  -5.060  0.00  0.00    -0.142 S 
ATOM     22  C   UNL     1       0.743   0.812  -5.438  0.00  0.00    +0.086 C 
ENDBRANCH  14  21
TORSDOF 2
