REMARK  Name = ZINC48443857
REMARK  4 active torsions:
REMARK  status: ('A' for Active; 'I' for Inactive)
REMARK    1  A    between atoms: C_5  and  C_7
REMARK    2  A    between atoms: C_7  and  C_9
REMARK    3  A    between atoms: C_7  and  O_19
REMARK    4  A    between atoms: C_9  and  N_10
REMARK                            x       y       z     vdW  Elec       q    Type
REMARK                         _______ _______ _______ _____ _____    ______ ____
ROOT
ATOM      1  N   UNL     1       1.514  -4.161   1.392  0.00  0.00    -0.326 N 
ATOM      2  C   UNL     1       1.661  -4.858   2.581  0.00  0.00    +0.125 A 
ATOM      3  C   UNL     1       1.673  -4.181   3.801  0.00  0.00    +0.083 A 
ATOM      4  C   UNL     1       1.822  -4.918   4.962  0.00  0.00    +0.136 A 
ATOM      5  N   UNL     1       1.949  -6.235   4.882  0.00  0.00    -0.203 NA
ATOM      6  C   UNL     1       1.935  -6.850   3.709  0.00  0.00    +0.216 A 
ATOM      7  N   UNL     1       1.789  -6.181   2.575  0.00  0.00    -0.200 NA
ATOM      8  N   UNL     1       2.071  -8.227   3.667  0.00  0.00    -0.327 N 
ATOM      9 CL   UNL     1       1.843  -4.126   6.507  0.00  0.00    -0.062 Cl
ATOM     10  H   UNL     1       1.503  -4.638   0.548  0.00  0.00    +0.148 HD
ATOM     11  H   UNL     1       2.175  -8.729   4.490  0.00  0.00    +0.145 HD
ATOM     12  H   UNL     1       2.062  -8.689   2.814  0.00  0.00    +0.145 HD
ENDROOT
BRANCH   1  13
ATOM     13  C   UNL     1       1.375  -2.703   1.411  0.00  0.00    +0.139 C 
BRANCH  13  14
ATOM     14  C   UNL     1       1.228  -2.186  -0.022  0.00  0.00    +0.164 C 
BRANCH  14  19
ATOM     15  C   UNL     1      -0.017   1.378   0.010  0.00  0.00    +0.001 A 
ATOM     16  C   UNL     1       1.171   2.087   0.002  0.00  0.00    +0.003 A 
ATOM     17  C   UNL     1       2.377   1.414  -0.013  0.00  0.00    +0.039 A 
ATOM     18  C   UNL     1       2.397   0.029  -0.021  0.00  0.00    +0.129 A 
ATOM     19  C   UNL     1       1.208  -0.679  -0.013  0.00  0.00    +0.018 A 
ATOM     20  C   UNL     1       0.002  -0.004   0.002  0.00  0.00    +0.009 A 
ATOM     21  F   UNL     1       3.577  -0.630  -0.036  0.00  0.00    -0.205 F 
ENDBRANCH  14  19
BRANCH  14  22
ATOM     22  O   UNL     1       0.008  -2.676  -0.582  0.00  0.00    -0.386 OA
ATOM     23  H   UNL     1      -0.784  -2.404  -0.099  0.00  0.00    +0.210 HD
ENDBRANCH  14  22
ENDBRANCH  13  14
ENDBRANCH   1  13
TORSDOF 4
