REMARK  Name = ZINC04064379
REMARK  5 active torsions:
REMARK  status: ('A' for Active; 'I' for Inactive)
REMARK    1  A    between atoms: C_4  and  C_7
REMARK    2  A    between atoms: C_8  and  C_9
REMARK    3  A    between atoms: C_9  and  N_58
REMARK    4  A    between atoms: C_12  and  O_30
REMARK    5  A    between atoms: C_19  and  C_21
REMARK                            x       y       z     vdW  Elec       q    Type
REMARK                         _______ _______ _______ _____ _____    ______ ____
ROOT
ATOM      1  C   UNL     1      -5.795   2.026  -1.172  0.00  0.00    -0.075 C 
ATOM      2  C   UNL     1      -6.548   1.604  -2.436  0.00  0.00    +0.016 C 
ATOM      3  C   UNL     1      -7.989   2.120  -2.359  0.00  0.00    +0.066 C 
ATOM      4  C   UNL     1      -8.681   1.495  -1.146  0.00  0.00    +0.035 C 
ATOM      5  C   UNL     1     -10.111   2.026  -1.041  0.00  0.00    +0.003 C 
ATOM      6  C   UNL     1     -10.078   3.547  -0.875  0.00  0.00    +0.000 C 
ATOM      7  C   UNL     1      -9.391   4.175  -2.089  0.00  0.00    +0.005 C 
ATOM      8  C   UNL     1      -7.963   3.643  -2.203  0.00  0.00    +0.011 C 
ATOM      9  C   UNL     1      -7.173   4.008  -0.946  0.00  0.00    -0.031 C 
ATOM     10  N   UNL     1      -5.790   3.502  -1.085  0.00  0.00    +0.387 N 
ATOM     11  H   UNL     1      -5.380   3.885  -1.945  0.00  0.00    -0.080 HD
ENDROOT
BRANCH   9  12
ATOM     12  C   UNL     1      -7.132   5.508  -0.796  0.00  0.00    -0.057 A 
ATOM     13  C   UNL     1      -6.231   6.250  -1.537  0.00  0.00    +0.006 A 
ATOM     14  C   UNL     1      -6.189   7.625  -1.404  0.00  0.00    +0.050 A 
ATOM     15  C   UNL     1      -7.051   8.263  -0.526  0.00  0.00    +0.166 A 
ATOM     16  C   UNL     1      -7.958   7.515   0.220  0.00  0.00    +0.166 A 
ATOM     17  C   UNL     1      -7.998   6.138   0.077  0.00  0.00    +0.051 A 
ATOM     18  O   UNL     1      -8.687   8.366   1.000  0.00  0.00    -0.453 OA
ATOM     19  C   UNL     1      -8.498   9.672   0.425  0.00  0.00    +0.466 C 
ATOM     20  O   UNL     1      -7.211   9.582  -0.213  0.00  0.00    -0.453 OA
ENDBRANCH   9  12
BRANCH   3  21
ATOM     21  O   UNL     1      -8.699   1.772  -3.550  0.00  0.00    -0.388 OA
ATOM     22  H   UNL     1      -8.754   0.820  -3.710  0.00  0.00    +0.210 HD
ENDBRANCH   3  21
BRANCH  10  23
ATOM     23  C   UNL     1      -4.976   3.936   0.069  0.00  0.00    -0.050 C 
BRANCH  23  25
ATOM     24  C   UNL     1      -2.522   3.869   0.045  0.00  0.00    +0.002 C 
ATOM     25  C   UNL     1      -3.663   3.195   0.053  0.00  0.00    -0.045 C 
BRANCH  24  29
ATOM     26  C   UNL     1       1.177   1.782   0.000  0.00  0.00    +0.000 A 
ATOM     27  C   UNL     1      -0.013   1.076   0.008  0.00  0.00    +0.001 A 
ATOM     28  C   UNL     1      -1.218   1.748   0.017  0.00  0.00    +0.008 A 
ATOM     29  C   UNL     1      -1.235   3.143   0.029  0.00  0.00    -0.025 A 
ATOM     30  C   UNL     1      -0.032   3.850   0.021  0.00  0.00    +0.008 A 
ATOM     31  C   UNL     1       1.167   3.166   0.007  0.00  0.00    +0.001 A 
ENDBRANCH  24  29
ENDBRANCH  23  25
ENDBRANCH  10  23
TORSDOF 5
