REMARK  Name = ZINC45026660
REMARK  3 active torsions:
REMARK  status: ('A' for Active; 'I' for Inactive)
REMARK    1  A    between atoms: C_1  and  C_2
REMARK    2  A    between atoms: C_8  and  N_10
REMARK    3  A    between atoms: N_10  and  C_11
REMARK                            x       y       z     vdW  Elec       q    Type
REMARK                         _______ _______ _______ _____ _____    ______ ____
ROOT
ATOM      1  N   UNL     1       0.269  -0.035   2.433  0.00  0.00    -0.315 N 
ATOM      2  C   UNL     1      -0.950   0.777   2.445  0.00  0.00    +0.131 C 
ATOM      3  C   UNL     1       0.988  -0.224   3.602  0.00  0.00    +0.128 A 
ATOM      4  C   UNL     1       2.247  -0.827   3.570  0.00  0.00    +0.084 A 
ATOM      5  C   UNL     1       2.928  -0.994   4.762  0.00  0.00    +0.136 A 
ATOM      6  N   UNL     1       2.371  -0.579   5.891  0.00  0.00    -0.203 NA
ATOM      7  C   UNL     1       1.175  -0.009   5.890  0.00  0.00    +0.216 A 
ATOM      8  N   UNL     1       0.492   0.173   4.770  0.00  0.00    -0.200 NA
ATOM      9  N   UNL     1       0.627   0.410   7.090  0.00  0.00    -0.327 N 
ATOM     10 CL   UNL     1       4.496  -1.738   4.779  0.00  0.00    -0.062 Cl
ATOM     11  H   UNL     1       1.117   0.285   7.917  0.00  0.00    +0.145 HD
ATOM     12  H   UNL     1      -0.248   0.828   7.104  0.00  0.00    +0.145 HD
ENDROOT
BRANCH   1  19
ATOM     13  C   UNL     1       0.013   1.385  -0.078  0.00  0.00    +0.009 C 
ATOM     14  C   UNL     1      -0.123  -0.136   0.021  0.00  0.00    +0.006 C 
ATOM     15  C   UNL     1      -1.589  -0.502   0.261  0.00  0.00    +0.005 C 
ATOM     16  C   UNL     1      -1.726  -2.023   0.360  0.00  0.00    +0.000 C 
ATOM     17  C   UNL     1      -0.874  -2.536   1.524  0.00  0.00    +0.002 C 
ATOM     18  C   UNL     1       0.592  -2.170   1.284  0.00  0.00    +0.023 C 
ATOM     19  C   UNL     1       0.728  -0.649   1.184  0.00  0.00    +0.077 C 
ENDBRANCH   1  19
TORSDOF 1
