REMARK  Name = ZINC65426269
REMARK  9 active torsions:
REMARK  status: ('A' for Active; 'I' for Inactive)
REMARK    1  A    between atoms: C_1  and  C_2
REMARK    2  A    between atoms: C_2  and  O_3
REMARK    3  A    between atoms: O_3  and  C_4
REMARK    4  A    between atoms: C_4  and  C_6
REMARK    5  A    between atoms: C_7  and  C_13
REMARK    6  A    between atoms: C_13  and  N_14
REMARK    7  A    between atoms: C_16  and  C_22
REMARK    8  A    between atoms: C_18  and  C_20
REMARK    9  A    between atoms: C_18  and  C_21
REMARK                            x       y       z     vdW  Elec       q    Type
REMARK                         _______ _______ _______ _____ _____    ______ ____
ROOT
ATOM      1  C   UNL     1      -2.891  -2.570   0.688  0.00  0.00    +0.072 C 
ATOM      2  C   UNL     1      -2.952  -3.688  -0.067  0.00  0.00    +0.037 C 
ATOM      3  N   UNL     1      -4.098  -4.034  -0.724  0.00  0.00    -0.271 N 
ATOM      4  C   UNL     1      -5.226  -3.314  -0.676  0.00  0.00    +0.304 C 
ATOM      5  O   UNL     1      -6.198  -3.703  -1.295  0.00  0.00    -0.253 OA
ATOM      6  N   UNL     1      -5.321  -2.174   0.036  0.00  0.00    -0.295 N 
ATOM      7  C   UNL     1      -4.139  -1.717   0.787  0.00  0.00    +0.150 C 
ATOM      8  H   UNL     1      -4.095  -4.845  -1.255  0.00  0.00    +0.156 HD
ATOM      9  H   UNL     1      -6.148  -1.668   0.056  0.00  0.00    +0.151 HD
ENDROOT
BRANCH   1  10
ATOM     10  C   UNL     1      -1.704  -2.212   1.369  0.00  0.00    +0.338 C 
ATOM     11  O   UNL     1      -0.754  -2.971   1.377  0.00  0.00    -0.245 OA
BRANCH  10  12
ATOM     12  O   UNL     1      -1.626  -1.027   2.010  0.00  0.00    -0.462 OA
BRANCH  12  14
ATOM     13  C   UNL     1      -0.497   0.645   3.341  0.00  0.00    +0.048 C 
ATOM     14  C   UNL     1      -0.397  -0.730   2.677  0.00  0.00    +0.229 C 
ENDBRANCH  12  14
ENDBRANCH  10  12
ENDBRANCH   1  10
BRANCH   2  15
ATOM     15  C   UNL     1      -1.734  -4.568  -0.188  0.00  0.00    +0.136 C 
BRANCH  15  16
ATOM     16  N   UNL     1      -1.693  -5.505   0.943  0.00  0.00    -0.292 NA
ATOM     17  C   UNL     1      -2.732  -6.537   0.810  0.00  0.00    +0.116 C 
ATOM     18  C   UNL     1      -2.693  -7.454   2.035  0.00  0.00    +0.130 C 
ATOM     19  O   UNL     1      -1.384  -8.017   2.161  0.00  0.00    -0.368 OA
ATOM     20  C   UNL     1      -0.348  -7.040   2.293  0.00  0.00    +0.077 C 
ATOM     21  C   UNL     1      -0.363  -6.119   1.070  0.00  0.00    +0.119 C 
ATOM     22  C   UNL     1      -0.583  -6.213   3.559  0.00  0.00    +0.042 C 
ATOM     23  C   UNL     1       1.008  -7.743   2.386  0.00  0.00    +0.042 C 
ATOM     24  C   UNL     1      -3.718  -8.577   1.866  0.00  0.00    +0.039 C 
ENDBRANCH  15  16
ENDBRANCH   2  15
TORSDOF 5
