REMARK  Name = ZINC00717425
REMARK  7 active torsions:
REMARK  status: ('A' for Active; 'I' for Inactive)
REMARK    1  A    between atoms: C_1  and  O_2
REMARK    2  A    between atoms: O_2  and  C_3
REMARK    3  A    between atoms: C_3  and  C_5
REMARK    4  A    between atoms: C_5  and  N_6
REMARK    5  A    between atoms: C_17  and  C_28
REMARK    6  A    between atoms: C_23  and  N_27
REMARK    7  A    between atoms: C_24  and  C_25
REMARK                            x       y       z     vdW  Elec       q    Type
REMARK                         _______ _______ _______ _____ _____    ______ ____
ROOT
ATOM      1  N   UNL     1       1.913  -2.510  -1.626  0.00  0.00    -0.259 N 
ATOM      2  C   UNL     1       1.240  -2.360  -2.826  0.00  0.00    +0.042 A 
ATOM      3  C   UNL     1      -0.081  -1.977  -3.060  0.00  0.00    +0.024 A 
ATOM      4  C   UNL     1      -0.498  -1.910  -4.380  0.00  0.00    +0.002 A 
ATOM      5  C   UNL     1       0.348  -2.205  -5.430  0.00  0.00    +0.000 A 
ATOM      6  C   UNL     1       1.667  -2.587  -5.211  0.00  0.00    +0.007 A 
ATOM      7  C   UNL     1       2.089  -2.656  -3.901  0.00  0.00    -0.001 A 
ATOM      8  C   UNL     1       3.409  -3.023  -3.300  0.00  0.00    +0.145 C 
ATOM      9  C   UNL     1       3.194  -2.894  -1.808  0.00  0.00    +0.241 C 
ATOM     10  O   UNL     1       4.016  -3.099  -0.941  0.00  0.00    -0.274 OA
ATOM     11  C   UNL     1       3.801  -4.428  -3.658  0.00  0.00    +0.066 A 
ATOM     12  C   UNL     1       3.233  -5.642  -3.261  0.00  0.00    +0.101 A 
ATOM     13  N   UNL     1       3.916  -6.617  -3.831  0.00  0.00    -0.171 NA
ATOM     14  N   UNL     1       4.937  -6.046  -4.606  0.00  0.00    -0.246 N 
ATOM     15  H   UNL     1       5.591  -6.531  -5.134  0.00  0.00    +0.192 HD
ATOM     16  C   UNL     1       4.851  -4.705  -4.487  0.00  0.00    +0.224 A 
ATOM     17  O   UNL     1       5.615  -3.735  -5.047  0.00  0.00    -0.423 OA
ATOM     18  C   UNL     1       5.495  -2.480  -4.568  0.00  0.00    +0.201 C 
ATOM     19  C   UNL     1       4.493  -2.082  -3.749  0.00  0.00    +0.110 C 
ENDROOT
BRANCH  12  20
ATOM     20  C   UNL     1       2.068  -5.806  -2.356  0.00  0.00    +0.003 A 
ATOM     21  C   UNL     1       0.892  -5.098  -2.596  0.00  0.00    +0.011 A 
ATOM     22  C   UNL     1      -0.189  -5.255  -1.752  0.00  0.00    +0.020 A 
ATOM     23  C   UNL     1      -0.106  -6.113  -0.669  0.00  0.00    +0.041 A 
ATOM     24  C   UNL     1       1.060  -6.818  -0.427  0.00  0.00    +0.020 A 
ATOM     25  C   UNL     1       2.144  -6.673  -1.268  0.00  0.00    +0.011 A 
ATOM     26 CL   UNL     1      -1.469  -6.304   0.389  0.00  0.00    -0.084 Cl
ENDBRANCH  12  20
BRANCH  18  27
ATOM     27  N   UNL     1       6.442  -1.555  -4.929  0.00  0.00    -0.328 N 
ATOM     28  H   UNL     1       7.172  -1.811  -5.514  0.00  0.00    +0.145 HD
ATOM     29  H   UNL     1       6.382  -0.644  -4.600  0.00  0.00    +0.145 HD
ENDBRANCH  18  27
BRANCH  19  30
ATOM     30  C   UNL     1       4.464  -0.724  -3.297  0.00  0.00    +0.102 C 
ATOM     31  N   UNL     1       4.441   0.354  -2.938  0.00  0.00    -0.191 NA
ENDBRANCH  19  30
BRANCH   1  32
ATOM     32  C   UNL     1       1.307  -2.274  -0.313  0.00  0.00    +0.234 C 
BRANCH  32  33
ATOM     33  C   UNL     1       1.500  -0.831   0.077  0.00  0.00    +0.325 C 
ATOM     34  O   UNL     1       2.083  -0.077  -0.666  0.00  0.00    -0.249 OA
BRANCH  33  36
ATOM     35  C   UNL     1       1.242   0.995   1.554  0.00  0.00    +0.280 C 
ATOM     36  O   UNL     1       1.024  -0.384   1.249  0.00  0.00    -0.467 OA
ENDBRANCH  33  36
ENDBRANCH  32  33
ENDBRANCH   1  32
TORSDOF 6
