REMARK  Name = ZINC50031365
REMARK  9 active torsions:
REMARK  status: ('A' for Active; 'I' for Inactive)
REMARK    1  A    between atoms: C_1  and  C_2
REMARK    2  A    between atoms: C_2  and  N_3
REMARK    3  A    between atoms: N_3  and  C_4
REMARK    4  A    between atoms: N_3  and  C_10
REMARK    5  A    between atoms: C_4  and  C_5
REMARK    6  A    between atoms: N_7  and  C_8
REMARK    7  A    between atoms: N_7  and  C_9
REMARK    8  A    between atoms: C_12  and  C_18
REMARK    9  A    between atoms: C_13  and  N_17
REMARK                            x       y       z     vdW  Elec       q    Type
REMARK                         _______ _______ _______ _____ _____    ______ ____
ROOT
ATOM      1  C   UNL     1      -0.043  -0.839  -2.356  0.00  0.00    +0.067 A 
ATOM      2  C   UNL     1      -0.166   0.256  -3.191  0.00  0.00    +0.041 A 
ATOM      3  C   UNL     1      -0.891   0.145  -4.382  0.00  0.00    +0.059 A 
ATOM      4  C   UNL     1      -1.488  -1.079  -4.721  0.00  0.00    +0.040 A 
ATOM      5  C   UNL     1      -1.356  -2.170  -3.873  0.00  0.00    +0.063 A 
ATOM      6  C   UNL     1      -0.634  -2.053  -2.700  0.00  0.00    +0.146 A 
ATOM      7  F   UNL     1      -0.505  -3.120  -1.881  0.00  0.00    -0.203 F 
ENDROOT
BRANCH   3   8
ATOM      8  C   UNL     1      -1.026   1.307  -5.277  0.00  0.00    +0.243 C 
ATOM      9  O   UNL     1      -1.563   1.181  -6.361  0.00  0.00    -0.270 OA
ATOM     10  N   UNL     1      -0.555   2.511  -4.894  0.00  0.00    -0.325 N 
ATOM     11  H   UNL     1      -0.127   2.611  -4.029  0.00  0.00    +0.145 HD
ATOM     12  H   UNL     1      -0.645   3.276  -5.483  0.00  0.00    +0.145 HD
ENDBRANCH   3   8
BRANCH   4  13
ATOM     13  N   UNL     1      -2.211  -1.199  -5.904  0.00  0.00    -0.357 N 
ATOM     14  H   UNL     1      -2.236  -0.461  -6.534  0.00  0.00    +0.142 HD
ATOM     15  H   UNL     1      -2.690  -2.019  -6.099  0.00  0.00    +0.142 HD
ENDBRANCH   4  13
BRANCH   1  16
ATOM     16  N   UNL     1       0.683  -0.729  -1.162  0.00  0.00    -0.319 N 
BRANCH  16  18
ATOM     17  C   UNL     1       0.045   1.194   0.208  0.00  0.00    +0.024 C 
ATOM     18  C   UNL     1       0.005  -0.330   0.074  0.00  0.00    +0.102 C 
ENDBRANCH  16  18
BRANCH  16  19
ATOM     19  C   UNL     1       2.120  -1.012  -1.150  0.00  0.00    +0.201 C 
BRANCH  19  20
ATOM     20  C   UNL     1       2.341  -2.474  -0.855  0.00  0.00    +0.232 C 
ATOM     21  O   UNL     1       1.392  -3.206  -0.672  0.00  0.00    -0.274 OA
ATOM     22  N   UNL     1       3.594  -2.967  -0.794  0.00  0.00    -0.306 N 
ATOM     23  C   UNL     1       3.809  -4.387  -0.506  0.00  0.00    +0.131 C 
ATOM     24  C   UNL     1       4.741  -2.082  -1.014  0.00  0.00    +0.131 C 
ENDBRANCH  19  20
ENDBRANCH  16  19
ENDBRANCH   1  16
TORSDOF 6
