REMARK  Name = ZINC67565848
REMARK  5 active torsions:
REMARK  status: ('A' for Active; 'I' for Inactive)
REMARK    1  A    between atoms: C_1  and  C_2
REMARK    2  A    between atoms: C_4  and  C_7
REMARK    3  A    between atoms: C_7  and  N_8
REMARK    4  A    between atoms: N_11  and  C_12
REMARK    5  A    between atoms: C_16  and  C_18
REMARK                            x       y       z     vdW  Elec       q    Type
REMARK                         _______ _______ _______ _____ _____    ______ ____
ROOT
ATOM      1  N   UNL     1      -1.696  -3.828  -1.388  0.00  0.00    -0.293 N 
ATOM      2  C   UNL     1      -2.441  -4.924  -1.635  0.00  0.00    +0.304 C 
ATOM      3  O   UNL     1      -2.952  -5.531  -0.714  0.00  0.00    -0.252 OA
ATOM      4  N   UNL     1      -2.619  -5.346  -2.902  0.00  0.00    -0.269 N 
ATOM      5  H   UNL     1      -1.288  -3.344  -2.122  0.00  0.00    +0.151 HD
ATOM      6  H   UNL     1      -2.267  -4.825  -3.641  0.00  0.00    +0.156 HD
ENDROOT
BRANCH   4   7
ATOM      7  C   UNL     1      -3.310  -6.538  -3.153  0.00  0.00    +0.036 A 
ATOM      8  C   UNL     1      -4.383  -6.901  -2.346  0.00  0.00    +0.025 A 
ATOM      9  C   UNL     1      -5.069  -8.076  -2.588  0.00  0.00    +0.022 A 
ATOM     10  C   UNL     1      -4.694  -8.897  -3.633  0.00  0.00    +0.053 A 
ATOM     11  C   UNL     1      -3.618  -8.541  -4.450  0.00  0.00    +0.057 A 
ATOM     12  C   UNL     1      -2.929  -7.351  -4.207  0.00  0.00    +0.037 A 
ATOM     13 CL   UNL     1      -5.559 -10.373  -3.932  0.00  0.00    -0.083 Cl
BRANCH  11  14
ATOM     14  C   UNL     1      -3.213  -9.417  -5.569  0.00  0.00    +0.243 C 
ATOM     15  O   UNL     1      -3.817 -10.451  -5.780  0.00  0.00    -0.270 OA
ATOM     16  N   UNL     1      -2.174  -9.070  -6.354  0.00  0.00    -0.325 N 
ATOM     17  H   UNL     1      -1.692  -8.245  -6.186  0.00  0.00    +0.145 HD
ATOM     18  H   UNL     1      -1.909  -9.646  -7.089  0.00  0.00    +0.145 HD
ENDBRANCH  11  14
ENDBRANCH   4   7
BRANCH   1  19
ATOM     19  C   UNL     1      -1.503  -3.369  -0.010  0.00  0.00    +0.164 C 
BRANCH  19  23
ATOM     20  C   UNL     1      -0.053   1.515   0.013  0.00  0.00    +0.089 C 
ATOM     21  C   UNL     1      -0.023   0.008   0.002  0.00  0.00    +0.135 A 
ATOM     22  C   UNL     1      -1.096  -0.805   0.005  0.00  0.00    +0.072 A 
ATOM     23  C   UNL     1      -0.638  -2.135  -0.009  0.00  0.00    +0.101 A 
ATOM     24  N   UNL     1       0.665  -2.113  -0.019  0.00  0.00    -0.081 NA
ATOM     25  O   UNL     1       1.078  -0.759  -0.018  0.00  0.00    -0.360 OA
ENDBRANCH  19  23
ENDBRANCH   1  19
TORSDOF 4
