REMARK  Name = ZINC39683951
REMARK  8 active torsions:
REMARK  status: ('A' for Active; 'I' for Inactive)
REMARK    1  A    between atoms: C_1  and  C_2
REMARK    2  A    between atoms: C_2  and  C_4
REMARK    3  A    between atoms: C_2  and  N_8
REMARK    4  A    between atoms: N_6  and  C_7
REMARK    5  A    between atoms: C_9  and  C_11
REMARK    6  A    between atoms: C_22  and  C_24
REMARK    7  A    between atoms: C_29  and  O_30
REMARK    8  A    between atoms: O_30  and  C_31
REMARK                            x       y       z     vdW  Elec       q    Type
REMARK                         _______ _______ _______ _____ _____    ______ ____
ROOT
ATOM      1  C   UNL     1      -3.923  -0.908  -0.934  0.00  0.00    +0.100 C 
ATOM      2  C   UNL     1      -3.744  -2.404  -0.592  0.00  0.00    +0.121 C 
ATOM      3  N   UNL     1      -4.688  -3.109  -1.490  0.00  0.00    -0.296 N 
ATOM      4  C   UNL     1      -4.590  -2.377  -2.776  0.00  0.00    +0.115 C 
ATOM      5  C   UNL     1      -4.478  -0.895  -2.368  0.00  0.00    -0.004 C 
ATOM      6  C   UNL     1      -3.516  -0.164  -3.300  0.00  0.00    -0.010 C 
ATOM      7  C   UNL     1      -4.117  -0.113  -4.708  0.00  0.00    -0.082 C 
ATOM      8  N   UNL     1      -5.410   0.581  -4.665  0.00  0.00    +0.379 N 
ATOM      9  C   UNL     1      -6.358  -0.179  -3.841  0.00  0.00    -0.082 C 
ATOM     10  C   UNL     1      -5.852  -0.233  -2.397  0.00  0.00    -0.010 C 
ATOM     11  C   UNL     1      -5.462  -4.175  -1.203  0.00  0.00    +0.252 C 
ATOM     12  O   UNL     1      -6.120  -4.702  -2.079  0.00  0.00    -0.270 OA
ATOM     13  H   UNL     1      -5.284   1.500  -4.270  0.00  0.00    -0.086 HD
ATOM     14  H   UNL     1      -5.775   0.667  -5.602  0.00  0.00    -0.086 HD
ENDROOT
BRANCH  11  15
ATOM     15  C   UNL     1      -5.510  -4.702   0.174  0.00  0.00    +0.099 A 
ATOM     16  C   UNL     1      -4.371  -4.676   0.987  0.00  0.00    +0.020 A 
ATOM     17  C   UNL     1      -4.469  -5.182   2.271  0.00  0.00    +0.021 A 
ATOM     18  C   UNL     1      -5.677  -5.693   2.711  0.00  0.00    +0.114 A 
ATOM     19  N   UNL     1      -6.738  -5.708   1.928  0.00  0.00    -0.220 NA
ATOM     20  C   UNL     1      -6.700  -5.232   0.695  0.00  0.00    +0.233 A 
BRANCH  20  21
ATOM     21  O   UNL     1      -7.816  -5.261  -0.073  0.00  0.00    -0.437 OA
BRANCH  21  22
ATOM     22  C   UNL     1      -8.922  -5.869   0.432  0.00  0.00    +0.130 A 
ATOM     23  C   UNL     1      -9.254  -7.154   0.029  0.00  0.00    +0.046 A 
ATOM     24  C   UNL     1     -10.378  -7.770   0.544  0.00  0.00    +0.004 A 
ATOM     25  C   UNL     1     -11.172  -7.106   1.462  0.00  0.00    +0.000 A 
ATOM     26  C   UNL     1     -10.843  -5.825   1.865  0.00  0.00    +0.004 A 
ATOM     27  C   UNL     1      -9.717  -5.207   1.357  0.00  0.00    +0.046 A 
ENDBRANCH  21  22
ENDBRANCH  20  21
ENDBRANCH  11  15
BRANCH   1  29
ATOM     28  N   UNL     1      -2.552   1.124  -0.603  0.00  0.00    -0.304 N 
ATOM     29  C   UNL     1      -2.596  -0.195  -0.878  0.00  0.00    +0.219 C 
ATOM     30  O   UNL     1      -1.569  -0.807  -1.080  0.00  0.00    -0.275 OA
ATOM     31  H   UNL     1      -3.373   1.614  -0.442  0.00  0.00    +0.149 HD
BRANCH  28  33
ATOM     32  C   UNL     1      -0.854   2.247  -1.959  0.00  0.00    +0.038 C 
ATOM     33  C   UNL     1      -1.262   1.817  -0.549  0.00  0.00    +0.156 C 
BRANCH  33  34
ATOM     34  C   UNL     1      -1.383   3.035   0.332  0.00  0.00    +0.233 C 
ATOM     35  O   UNL     1      -2.442   3.297   0.861  0.00  0.00    -0.274 OA
ATOM     36  N   UNL     1      -0.315   3.832   0.530  0.00  0.00    -0.317 N 
ATOM     37  C   UNL     1      -0.432   5.015   1.386  0.00  0.00    +0.128 C 
ATOM     38  H   UNL     1       0.532   3.622   0.106  0.00  0.00    +0.148 HD
ENDBRANCH  33  34
ENDBRANCH  28  33
ENDBRANCH   1  29
TORSDOF 6
