REMARK  Name = ZINC35803894
REMARK  2 active torsions:
REMARK  status: ('A' for Active; 'I' for Inactive)
REMARK    1  A    between atoms: C_2  and  O_18
REMARK    2  A    between atoms: C_4  and  O_17
REMARK                            x       y       z     vdW  Elec       q    Type
REMARK                         _______ _______ _______ _____ _____    ______ ____
ROOT
ATOM      1  C   UNL     1      -0.017   1.389   0.010  0.00  0.00    +0.061 A 
ATOM      2  C   UNL     1       1.177   2.087   0.002  0.00  0.00    +0.121 A 
ATOM      3  C   UNL     1       2.392   1.409  -0.013  0.00  0.00    +0.093 A 
ATOM      4  C   UNL     1       2.430   0.029  -0.021  0.00  0.00    +0.146 A 
ATOM      5  C   UNL     1       1.232  -0.698  -0.015  0.00  0.00    +0.120 A 
ATOM      6  C   UNL     1       0.002  -0.004   0.002  0.00  0.00    +0.072 A 
ATOM      7  C   UNL     1      -1.236  -0.799   0.011  0.00  0.00    +0.262 A 
ATOM      8  O   UNL     1      -2.330  -0.265   0.023  0.00  0.00    -0.267 OA
ATOM      9  N   UNL     1      -1.113  -2.141   0.004  0.00  0.00    -0.296 N 
ATOM     10  C   UNL     1       0.120  -2.736  -0.017  0.00  0.00    +0.113 A 
ATOM     11  N   UNL     1       1.225  -2.054  -0.025  0.00  0.00    -0.230 NA
ATOM     12  C   UNL     1       0.171  -4.249  -0.037  0.00  0.00    +0.074 C 
ATOM     13  C   UNL     1      -0.254  -4.744  -1.417  0.00  0.00    +0.008 C 
ATOM     14  C   UNL     1      -1.760  -4.926  -1.496  0.00  0.00    +0.002 C 
ATOM     15  C   UNL     1      -2.505  -3.609  -1.363  0.00  0.00    +0.022 C 
ATOM     16  C   UNL     1      -2.303  -3.000   0.023  0.00  0.00    +0.126 C 
ENDROOT
BRANCH   4  17
ATOM     17  O   UNL     1       3.623  -0.622  -0.036  0.00  0.00    -0.504 OA
ATOM     18  H   UNL     1       3.976  -0.815   0.843  0.00  0.00    +0.292 HD
ENDBRANCH   4  17
BRANCH   2  19
ATOM     19  O   UNL     1       1.163   3.447   0.009  0.00  0.00    -0.507 OA
ATOM     20  H   UNL     1       1.167   3.835   0.895  0.00  0.00    +0.292 HD
ENDBRANCH   2  19
TORSDOF 2
