REMARK  Name = ZINC45816912
REMARK  6 active torsions:
REMARK  status: ('A' for Active; 'I' for Inactive)
REMARK    1  A    between atoms: C_3  and  O_23
REMARK    2  A    between atoms: C_4  and  C_20
REMARK    3  A    between atoms: C_6  and  C_7
REMARK    4  A    between atoms: C_10  and  C_12
REMARK    5  A    between atoms: C_12  and  C_13
REMARK    6  A    between atoms: C_13  and  N_14
REMARK                            x       y       z     vdW  Elec       q    Type
REMARK                         _______ _______ _______ _____ _____    ______ ____
ROOT
ATOM      1  C   UNL     1      -0.017   1.392   0.010  0.00  0.00    +0.013 A 
ATOM      2  C   UNL     1       1.164   2.103   0.002  0.00  0.00    +0.047 A 
ATOM      3  C   UNL     1       2.381   1.436  -0.013  0.00  0.00    +0.129 A 
ATOM      4  C   UNL     1       2.411   0.034  -0.021  0.00  0.00    +0.078 A 
ATOM      5  C   UNL     1       1.214  -0.683  -0.013  0.00  0.00    +0.026 A 
ATOM      6  C   UNL     1       0.002  -0.004   0.002  0.00  0.00    +0.002 A 
ENDROOT
BRANCH   6   7
ATOM      7  C   UNL     1      -1.273  -0.763   0.010  0.00  0.00    +0.078 A 
ATOM      8  C   UNL     1      -1.297  -2.132   0.009  0.00  0.00    +0.075 A 
ATOM      9  S   UNL     1      -3.057  -2.431   0.021  0.00  0.00    -0.080 S 
ATOM     10  C   UNL     1      -3.568  -0.827   0.027  0.00  0.00    +0.080 A 
ATOM     11  N   UNL     1      -2.449  -0.151   0.025  0.00  0.00    -0.244 NA
BRANCH  10  12
ATOM     12  C   UNL     1      -4.978  -0.297   0.037  0.00  0.00    +0.082 C 
BRANCH  12  13
ATOM     13  C   UNL     1      -5.466  -0.117  -1.401  0.00  0.00    +0.118 C 
BRANCH  13  14
ATOM     14  N   UNL     1      -6.838   0.398  -1.391  0.00  0.00    -0.264 N 
ATOM     15  C   UNL     1      -8.072  -0.412  -1.377  0.00  0.00    +0.152 C 
ATOM     16  C   UNL     1      -9.145   0.633  -0.989  0.00  0.00    +0.253 C 
ATOM     17  O   UNL     1      -8.531   1.866  -1.415  0.00  0.00    -0.449 OA
ATOM     18  C   UNL     1      -7.198   1.695  -1.387  0.00  0.00    +0.403 C 
ATOM     19  O   UNL     1      -6.403   2.614  -1.364  0.00  0.00    -0.226 OA
ENDBRANCH  13  14
ENDBRANCH  12  13
ENDBRANCH  10  12
ENDBRANCH   6   7
BRANCH   4  20
ATOM     20  C   UNL     1       3.702  -0.679  -0.037  0.00  0.00    +0.245 C 
ATOM     21  O   UNL     1       4.743  -0.052  -0.044  0.00  0.00    -0.270 OA
ATOM     22  N   UNL     1       3.728  -2.027  -0.045  0.00  0.00    -0.325 N 
ATOM     23  H   UNL     1       2.897  -2.528  -0.039  0.00  0.00    +0.145 HD
ATOM     24  H   UNL     1       4.577  -2.496  -0.056  0.00  0.00    +0.145 HD
ENDBRANCH   4  20
BRANCH   3  25
ATOM     25  O   UNL     1       3.541   2.139  -0.021  0.00  0.00    -0.506 OA
ATOM     26  H   UNL     1       3.886   2.339   0.860  0.00  0.00    +0.292 HD
ENDBRANCH   3  25
TORSDOF 6
