REMARK  Name = ZINC13006033
REMARK  13 active torsions:
REMARK  status: ('A' for Active; 'I' for Inactive)
REMARK    1  A    between atoms: C_1  and  O_2
REMARK    2  A    between atoms: O_2  and  C_3
REMARK    3  A    between atoms: C_3  and  C_4
REMARK    4  A    between atoms: C_4  and  N_5
REMARK    5  A    between atoms: N_5  and  C_6
REMARK    6  A    between atoms: C_7  and  N_22
REMARK    7  A    between atoms: N_8  and  C_15
REMARK    8  A    between atoms: C_15  and  C_16
REMARK    9  A    between atoms: C_23  and  C_25
REMARK   10  A    between atoms: C_25  and  O_26
REMARK   11  A    between atoms: O_26  and  C_27
REMARK   12  A    between atoms: C_27  and  C_29
REMARK   13  A    between atoms: C_38  and  O_39
REMARK                            x       y       z     vdW  Elec       q    Type
REMARK                         _______ _______ _______ _____ _____    ______ ____
ROOT
ATOM      1  N   UNL     1      -0.782  -2.544  -1.127  0.00  0.00    -0.259 N 
ATOM      2  C   UNL     1      -1.502  -2.777  -0.010  0.00  0.00    +0.258 C 
ATOM      3  O   UNL     1      -2.619  -3.243  -0.095  0.00  0.00    -0.272 OA
ENDROOT
BRANCH   1   4
ATOM      4  C   UNL     1      -1.362  -2.752  -2.397  0.00  0.00    +0.140 A 
ATOM      5  C   UNL     1      -0.881  -3.737  -3.235  0.00  0.00    +0.128 A 
ATOM      6  N   UNL     1      -1.468  -3.916  -4.466  0.00  0.00    -0.276 N 
ATOM      7  C   UNL     1      -2.497  -3.139  -4.849  0.00  0.00    +0.331 A 
ATOM      8  O   UNL     1      -3.001  -3.312  -5.942  0.00  0.00    -0.246 OA
ATOM      9  N   UNL     1      -2.979  -2.174  -4.046  0.00  0.00    -0.273 N 
ATOM     10  H   UNL     1      -3.722  -1.628  -4.345  0.00  0.00    +0.173 HD
ATOM     11  C   UNL     1      -2.444  -1.962  -2.827  0.00  0.00    +0.277 A 
ATOM     12  O   UNL     1      -2.892  -1.088  -2.105  0.00  0.00    -0.266 OA
BRANCH   5  13
ATOM     13  N   UNL     1       0.171  -4.530  -2.844  0.00  0.00    -0.343 N 
ATOM     14  H   UNL     1       0.625  -4.354  -2.005  0.00  0.00    +0.144 HD
ATOM     15  H   UNL     1       0.459  -5.266  -3.407  0.00  0.00    +0.144 HD
ENDBRANCH   5  13
BRANCH   6  16
ATOM     16  C   UNL     1      -0.967  -4.958  -5.366  0.00  0.00    +0.163 C 
BRANCH  16  17
ATOM     17  C   UNL     1      -1.708  -6.244  -5.106  0.00  0.00    -0.028 A 
ATOM     18  C   UNL     1      -1.229  -7.140  -4.169  0.00  0.00    +0.005 A 
ATOM     19  C   UNL     1      -1.909  -8.320  -3.930  0.00  0.00    +0.000 A 
ATOM     20  C   UNL     1      -3.067  -8.604  -4.628  0.00  0.00    +0.000 A 
ATOM     21  C   UNL     1      -3.547  -7.707  -5.565  0.00  0.00    +0.000 A 
ATOM     22  C   UNL     1      -2.870  -6.526  -5.801  0.00  0.00    +0.005 A 
ENDBRANCH  16  17
ENDBRANCH   6  16
ENDBRANCH   1   4
BRANCH   1  23
ATOM     23  C   UNL     1       0.602  -2.075  -1.022  0.00  0.00    +0.142 C 
BRANCH  23  24
ATOM     24  C   UNL     1       0.636  -0.551  -1.153  0.00  0.00    +0.178 C 
BRANCH  24  26
ATOM     25  C   UNL     1      -0.075   1.466  -0.071  0.00  0.00    +0.194 C 
ATOM     26  O   UNL     1      -0.048   0.037  -0.045  0.00  0.00    -0.381 OA
ENDBRANCH  24  26
ENDBRANCH  23  24
ENDBRANCH   1  23
BRANCH   2  27
ATOM     27  C   UNL     1      -0.920  -2.457   1.342  0.00  0.00    +0.328 C 
BRANCH  27  28
ATOM     28  O   UNL     1      -1.867  -2.789   2.360  0.00  0.00    -0.452 OA
BRANCH  28  29
ATOM     29  C   UNL     1      -1.498  -2.563   3.636  0.00  0.00    +0.343 C 
ATOM     30  O   UNL     1      -0.403  -2.096   3.878  0.00  0.00    -0.245 OA
BRANCH  29  31
ATOM     31  C   UNL     1      -2.424  -2.881   4.738  0.00  0.00    +0.101 A 
ATOM     32  C   UNL     1      -3.671  -3.419   4.457  0.00  0.00    +0.027 A 
ATOM     33  C   UNL     1      -4.547  -3.720   5.509  0.00  0.00    -0.017 A 
ATOM     34  C   UNL     1      -5.819  -4.267   5.260  0.00  0.00    +0.008 A 
ATOM     35  C   UNL     1      -6.647  -4.548   6.303  0.00  0.00    +0.001 A 
ATOM     36  C   UNL     1      -6.254  -4.303   7.617  0.00  0.00    +0.001 A 
ATOM     37  C   UNL     1      -5.031  -3.775   7.897  0.00  0.00    +0.008 A 
ATOM     38  C   UNL     1      -4.147  -3.470   6.848  0.00  0.00    -0.014 A 
ATOM     39  C   UNL     1      -2.878  -2.925   7.106  0.00  0.00    +0.054 A 
ATOM     40  C   UNL     1      -2.034  -2.643   6.073  0.00  0.00    +0.131 A 
BRANCH  40  41
ATOM     41  O   UNL     1      -0.808  -2.122   6.331  0.00  0.00    -0.506 OA
ATOM     42  H   UNL     1      -0.789  -1.155   6.359  0.00  0.00    +0.292 HD
ENDBRANCH  40  41
ENDBRANCH  29  31
ENDBRANCH  28  29
ENDBRANCH  27  28
ENDBRANCH   2  27
TORSDOF 12
