REMARK  Name = ZINC05590273
REMARK  6 active torsions:
REMARK  status: ('A' for Active; 'I' for Inactive)
REMARK    1  A    between atoms: C_1  and  C_2
REMARK    2  A    between atoms: C_6  and  C_7
REMARK    3  A    between atoms: C_9  and  C_29
REMARK    4  A    between atoms: C_10  and  N_28
REMARK    5  A    between atoms: N_11  and  C_19
REMARK    6  A    between atoms: C_22  and  N_25
REMARK                            x       y       z     vdW  Elec       q    Type
REMARK                         _______ _______ _______ _____ _____    ______ ____
ROOT
ATOM      1  C   UNL     1      -3.562   3.465  -0.775  0.00  0.00    +0.104 C 
ATOM      2  C   UNL     1      -3.560   2.001  -0.448  0.00  0.00    +0.077 C 
ATOM      3  C   UNL     1      -2.416   1.366  -0.089  0.00  0.00    +0.107 C 
ATOM      4  N   UNL     1      -1.233   2.065  -0.002  0.00  0.00    -0.260 N 
ATOM      5  C   UNL     1      -1.238   3.431   0.110  0.00  0.00    +0.024 C 
ATOM      6  C   UNL     1      -2.329   4.146  -0.236  0.00  0.00    +0.026 C 
ATOM      7  C   UNL     1      -2.349   5.545  -0.108  0.00  0.00    +0.162 C 
ATOM      8  O   UNL     1      -3.345   6.160  -0.437  0.00  0.00    -0.292 OA
ATOM      9  C   UNL     1      -1.161   6.297   0.427  0.00  0.00    +0.080 C 
ATOM     10  C   UNL     1      -0.381   5.385   1.380  0.00  0.00    +0.014 C 
ATOM     11  C   UNL     1       0.006   4.112   0.624  0.00  0.00    +0.052 C 
ENDROOT
BRANCH   1  17
ATOM     12  C   UNL     1      -5.782   4.835  -2.397  0.00  0.00    +0.044 C 
ATOM     13  C   UNL     1      -4.558   4.230  -3.034  0.00  0.00    -0.039 A 
ATOM     14  C   UNL     1      -4.386   4.275  -4.405  0.00  0.00    +0.011 A 
ATOM     15  C   UNL     1      -3.277   3.715  -4.947  0.00  0.00    +0.046 A 
ATOM     16  S   UNL     1      -2.427   3.104  -3.500  0.00  0.00    -0.100 S 
ATOM     17  C   UNL     1      -3.608   3.637  -2.271  0.00  0.00    +0.005 A 
ENDBRANCH   1  17
BRANCH   4  18
ATOM     18  C   UNL     1      -0.015   1.375  -0.034  0.00  0.00    +0.040 A 
ATOM     19  C   UNL     1       0.533   0.877   1.141  0.00  0.00    +0.026 A 
ATOM     20  C   UNL     1       1.738   0.202   1.106  0.00  0.00    +0.034 A 
ATOM     21  C   UNL     1       2.398   0.023  -0.096  0.00  0.00    +0.126 A 
ATOM     22  C   UNL     1       1.854   0.518  -1.267  0.00  0.00    +0.034 A 
ATOM     23  C   UNL     1       0.650   1.194  -1.240  0.00  0.00    +0.026 A 
BRANCH  21  24
ATOM     24  N   UNL     1       3.689  -0.700  -0.128  0.00  0.00    +0.056 N 
ATOM     25  O   UNL     1       4.271  -0.859  -1.186  0.00  0.00    -0.126 OA
ATOM     26  O   UNL     1       4.169  -1.137   0.902  0.00  0.00    -0.126 OA
ENDBRANCH  21  24
ENDBRANCH   4  18
BRANCH   3  27
ATOM     27  N   UNL     1      -2.440   0.021   0.194  0.00  0.00    -0.345 N 
ATOM     28  H   UNL     1      -1.646  -0.417   0.538  0.00  0.00    +0.144 HD
ATOM     29  H   UNL     1      -3.251  -0.490   0.048  0.00  0.00    +0.144 HD
ENDBRANCH   3  27
BRANCH   2  30
ATOM     30  C   UNL     1      -4.784   1.261  -0.520  0.00  0.00    +0.099 C 
ATOM     31  N   UNL     1      -5.754   0.674  -0.578  0.00  0.00    -0.191 NA
ENDBRANCH   2  30
TORSDOF 5
