REMARK  Name = ZINC41725893
REMARK  12 active torsions:
REMARK  status: ('A' for Active; 'I' for Inactive)
REMARK    1  A    between atoms: C_1  and  C_2
REMARK    2  A    between atoms: C_4  and  O_28
REMARK    3  A    between atoms: C_5  and  O_26
REMARK    4  A    between atoms: C_7  and  N_8
REMARK    5  A    between atoms: C_9  and  C_11
REMARK    6  A    between atoms: N_13  and  C_14
REMARK    7  A    between atoms: C_14  and  C_15
REMARK    8  A    between atoms: C_15  and  N_16
REMARK    9  A    between atoms: C_18  and  C_25
REMARK   10  A    between atoms: C_21  and  C_24
REMARK   11  A    between atoms: O_26  and  C_27
REMARK   12  A    between atoms: O_28  and  C_29
REMARK                            x       y       z     vdW  Elec       q    Type
REMARK                         _______ _______ _______ _____ _____    ______ ____
ROOT
ATOM      1  N   UNL     1       0.025  -0.011   2.416  0.00  0.00    -0.277 N 
ATOM      2  C   UNL     1      -0.057  -0.688   3.578  0.00  0.00    +0.303 C 
ATOM      3  O   UNL     1      -0.040  -1.901   3.576  0.00  0.00    -0.265 OA
ATOM      4  H   UNL     1       0.077   0.958   2.421  0.00  0.00    +0.155 HD
ENDROOT
BRANCH   1  11
ATOM      5  C   UNL     1      -1.266   1.183   0.182  0.00  0.00    +0.046 C 
ATOM      6  C   UNL     1      -0.586  -0.158   0.085  0.00  0.00    -0.026 A 
ATOM      7  C   UNL     1      -0.574  -0.840  -1.117  0.00  0.00    +0.054 A 
ATOM      8  C   UNL     1       0.052  -2.073  -1.209  0.00  0.00    +0.162 A 
ATOM      9  C   UNL     1       0.668  -2.627  -0.090  0.00  0.00    +0.163 A 
ATOM     10  C   UNL     1       0.656  -1.943   1.114  0.00  0.00    +0.073 A 
ATOM     11  C   UNL     1       0.033  -0.705   1.202  0.00  0.00    +0.040 A 
BRANCH   9  12
ATOM     12  O   UNL     1       1.282  -3.837  -0.180  0.00  0.00    -0.491 OA
ATOM     13  C   UNL     1       1.894  -4.344   1.008  0.00  0.00    +0.277 C 
ENDBRANCH   9  12
BRANCH   8  14
ATOM     14  O   UNL     1       0.063  -2.743  -2.393  0.00  0.00    -0.491 OA
ATOM     15  C   UNL     1      -0.589  -2.117  -3.499  0.00  0.00    +0.277 C 
ENDBRANCH   8  14
ENDBRANCH   1  11
BRANCH   2  16
ATOM     16  C   UNL     1      -0.168   0.055   4.869  0.00  0.00    +0.299 C 
ATOM     17  O   UNL     1      -0.184   1.269   4.871  0.00  0.00    -0.265 OA
ATOM     18  N   UNL     1      -0.249  -0.622   6.032  0.00  0.00    -0.309 N 
ATOM     19  H   UNL     1      -0.236  -1.591   6.030  0.00  0.00    +0.149 HD
BRANCH  18  20
ATOM     20  C   UNL     1      -0.358   0.107   7.298  0.00  0.00    +0.086 C 
BRANCH  20  21
ATOM     21  C   UNL     1      -0.435  -0.890   8.455  0.00  0.00    -0.060 C 
BRANCH  21  22
ATOM     22  N   UNL     1      -0.544  -0.159   9.725  0.00  0.00    +0.381 N 
ATOM     23  C   UNL     1       0.683   0.615   9.949  0.00  0.00    -0.076 C 
ATOM     24  C   UNL     1       0.542   1.442  11.229  0.00  0.00    -0.031 C 
ATOM     25  C   UNL     1       0.307   0.501  12.414  0.00  0.00    +0.003 C 
ATOM     26  C   UNL     1      -0.933  -0.354  12.136  0.00  0.00    -0.031 C 
ATOM     27  C   UNL     1      -0.738  -1.114  10.822  0.00  0.00    -0.076 C 
ATOM     28  C   UNL     1      -1.133  -1.351  13.280  0.00  0.00    +0.005 C 
ATOM     29  C   UNL     1      -0.644   2.399  11.092  0.00  0.00    +0.005 C 
ATOM     30  H   UNL     1      -1.333   0.469   9.684  0.00  0.00    -0.082 HD
ENDBRANCH  21  22
ENDBRANCH  20  21
ENDBRANCH  18  20
ENDBRANCH   2  16
TORSDOF 7
