REMARK  Name = ZINC09434923
REMARK  15 active torsions:
REMARK  status: ('A' for Active; 'I' for Inactive)
REMARK    1  A    between atoms: C_1  and  C_2
REMARK    2  A    between atoms: C_2  and  C_3
REMARK    3  A    between atoms: C_2  and  C_4
REMARK    4  A    between atoms: C_2  and  O_5
REMARK    5  A    between atoms: O_5  and  C_6
REMARK    6  A    between atoms: C_15  and  C_27
REMARK    7  A    between atoms: C_17  and  C_23
REMARK    8  A    between atoms: C_17  and  C_25
REMARK    9  A    between atoms: C_18  and  N_22
REMARK   10  A    between atoms: C_19  and  C_20
REMARK   11  A    between atoms: C_30  and  O_35
REMARK   12  A    between atoms: C_31  and  O_33
REMARK   13  A    between atoms: O_33  and  C_34
REMARK   14  A    between atoms: O_35  and  C_36
REMARK   15  A    between atoms: C_36  and  C_37
REMARK                            x       y       z     vdW  Elec       q    Type
REMARK                         _______ _______ _______ _____ _____    ______ ____
ROOT
ATOM      1  C   UNL     1       2.077   1.902   1.562  0.00  0.00    +0.404 C 
ATOM      2  O   UNL     1       1.675   2.087   2.694  0.00  0.00    -0.226 OA
ATOM      3  N   UNL     1       1.436   1.036   0.752  0.00  0.00    -0.263 N 
ATOM      4  C   UNL     1       1.841   0.855  -0.653  0.00  0.00    +0.138 C 
ATOM      5  C   UNL     1       0.625   1.116  -1.505  0.00  0.00    -0.003 C 
ATOM      6  C   UNL     1      -0.593   0.925  -1.038  0.00  0.00    -0.026 C 
ATOM      7  C   UNL     1      -0.903   0.400   0.331  0.00  0.00    +0.048 C 
ATOM      8  C   UNL     1       0.302   0.235   1.230  0.00  0.00    +0.120 C 
ATOM      9  C   UNL     1      -1.966   1.299   0.964  0.00  0.00    +0.068 C 
ATOM     10  C   UNL     1      -3.247   1.209   0.134  0.00  0.00    +0.188 C 
ATOM     11  C   UNL     1      -2.979   1.433  -1.323  0.00  0.00    +0.054 C 
ATOM     12  C   UNL     1      -1.754   1.296  -1.891  0.00  0.00    +0.074 C 
ENDROOT
BRANCH   9  13
ATOM     13  C   UNL     1      -1.476   2.724   0.982  0.00  0.00    -0.037 A 
ATOM     14  C   UNL     1      -0.892   3.238   2.125  0.00  0.00    +0.008 A 
ATOM     15  C   UNL     1      -0.436   4.543   2.145  0.00  0.00    +0.050 A 
ATOM     16  C   UNL     1      -0.573   5.342   1.021  0.00  0.00    +0.163 A 
ATOM     17  C   UNL     1      -1.165   4.826  -0.127  0.00  0.00    +0.162 A 
ATOM     18  C   UNL     1      -1.615   3.516  -0.142  0.00  0.00    +0.053 A 
BRANCH  17  19
ATOM     19  O   UNL     1      -1.302   5.607  -1.233  0.00  0.00    -0.491 OA
ATOM     20  C   UNL     1      -1.919   5.011  -2.375  0.00  0.00    +0.277 C 
ENDBRANCH  17  19
BRANCH  16  21
ATOM     21  O   UNL     1      -0.130   6.628   1.041  0.00  0.00    -0.479 OA
BRANCH  21  22
ATOM     22  C   UNL     1       0.490   7.082   2.246  0.00  0.00    +0.324 C 
BRANCH  22  23
ATOM     23  C   UNL     1       0.823   8.546   2.119  0.00  0.00    +0.248 C 
ATOM     24  O   UNL     1       0.555   9.142   1.098  0.00  0.00    -0.272 OA
ATOM     25  N   UNL     1       1.417   9.193   3.141  0.00  0.00    -0.327 N 
ATOM     26  H   UNL     1       1.659  10.262   3.049  0.00  0.00    +0.145 HD
ATOM     27  H   UNL     1       1.660   8.652   4.068  0.00  0.00    +0.145 HD
ENDBRANCH  22  23
ENDBRANCH  21  22
ENDBRANCH  16  21
ENDBRANCH   9  13
BRANCH  11  28
ATOM     28  N   UNL     1      -4.025   1.796  -2.124  0.00  0.00    -0.358 N 
ATOM     29  H   UNL     1      -3.861   1.968  -3.199  0.00  0.00    +0.142 HD
ATOM     30  H   UNL     1      -5.030   1.916  -1.695  0.00  0.00    +0.142 HD
ENDBRANCH  11  28
BRANCH  12  31
ATOM     31  C   UNL     1      -1.582   1.506  -3.297  0.00  0.00    +0.101 C 
ATOM     32  N   UNL     1      -1.445   1.672  -4.412  0.00  0.00    -0.191 NA
ENDBRANCH  12  31
BRANCH  10  33
ATOM     33  C   UNL     1      -3.843  -0.125   0.313  0.00  0.00    +0.091 C 
ATOM     34  N   UNL     1      -4.302  -1.155   0.451  0.00  0.00    -0.194 NA
ENDBRANCH  10  33
BRANCH  10  35
ATOM     35  C   UNL     1      -4.200   2.226   0.609  0.00  0.00    +0.091 C 
ATOM     36  N   UNL     1      -4.935   3.011   0.976  0.00  0.00    -0.194 NA
ENDBRANCH  10  35
BRANCH   1  37
ATOM     37  O   UNL     1       3.164   2.561   1.118  0.00  0.00    -0.445 OA
BRANCH  37  39
ATOM     38  C   UNL     1       4.305   2.514   3.268  0.00  0.00    +0.055 C 
ATOM     39  C   UNL     1       3.878   3.379   2.081  0.00  0.00    +0.107 C 
ATOM     40  C   UNL     1       5.118   3.982   1.418  0.00  0.00    +0.055 C 
ATOM     41  C   UNL     1       2.965   4.504   2.573  0.00  0.00    +0.055 C 
ENDBRANCH  37  39
ENDBRANCH   1  37
TORSDOF 11
