REMARK  Name = ZINC36614294
REMARK  8 active torsions:
REMARK  status: ('A' for Active; 'I' for Inactive)
REMARK    1  A    between atoms: C_1  and  C_2
REMARK    2  A    between atoms: C_5  and  C_8
REMARK    3  A    between atoms: C_10  and  C_28
REMARK    4  A    between atoms: N_14  and  C_20
REMARK    5  A    between atoms: C_24  and  C_27
REMARK    6  A    between atoms: C_25  and  C_26
REMARK    7  A    between atoms: C_28  and  O_30
REMARK    8  A    between atoms: O_30  and  C_31
REMARK                            x       y       z     vdW  Elec       q    Type
REMARK                         _______ _______ _______ _____ _____    ______ ____
ROOT
ATOM      1  C   UNL     1       0.306  -4.274  -0.036  0.00  0.00    +0.074 A 
ATOM      2  C   UNL     1       0.326  -4.965   1.179  0.00  0.00    +0.044 A 
ATOM      3  C   UNL     1       0.086  -6.338   1.183  0.00  0.00    +0.077 A 
ATOM      4  C   UNL     1      -0.165  -6.963  -0.052  0.00  0.00    +0.096 A 
ATOM      5  C   UNL     1      -0.168  -6.197  -1.231  0.00  0.00    +0.154 A 
ATOM      6  N   UNL     1       0.060  -4.896  -1.181  0.00  0.00    -0.228 NA
ATOM      7  N   UNL     1      -0.419  -6.837  -2.434  0.00  0.00    -0.273 N 
ATOM      8  C   UNL     1      -0.655  -8.159  -2.473  0.00  0.00    +0.167 A 
ATOM      9  N   UNL     1      -0.663  -8.931  -1.375  0.00  0.00    -0.302 N 
ATOM     10  C   UNL     1      -0.429  -8.407  -0.151  0.00  0.00    +0.262 A 
ATOM     11  O   UNL     1      -0.437  -9.110   0.841  0.00  0.00    -0.267 OA
ATOM     12  S   UNL     1      -0.959  -8.891  -3.990  0.00  0.00    -0.012 S 
ATOM     13  H   UNL     1      -0.840  -9.881  -1.461  0.00  0.00    +0.171 HD
ENDROOT
BRANCH   7  14
ATOM     14  C   UNL     1      -0.428  -6.098  -3.623  0.00  0.00    +0.054 A 
ATOM     15  C   UNL     1       0.743  -5.940  -4.353  0.00  0.00    +0.026 A 
ATOM     16  C   UNL     1       0.731  -5.210  -5.525  0.00  0.00    +0.002 A 
ATOM     17  C   UNL     1      -0.445  -4.636  -5.972  0.00  0.00    +0.004 A 
ATOM     18  C   UNL     1      -1.612  -4.791  -5.247  0.00  0.00    -0.046 A 
ATOM     19  C   UNL     1      -1.608  -5.525  -4.077  0.00  0.00    -0.024 A 
ATOM     20  C   UNL     1      -2.882  -5.699  -3.291  0.00  0.00    +0.046 C 
ATOM     21  C   UNL     1      -2.892  -4.164  -5.738  0.00  0.00    +0.044 C 
ENDBRANCH   7  14
BRANCH   1  26
ATOM     22  C   UNL     1       1.290   1.399  -0.065  0.00  0.00    +0.044 C 
ATOM     23  C   UNL     1       1.033  -0.086  -0.057  0.00  0.00    -0.050 A 
ATOM     24  C   UNL     1       0.775  -0.747  -1.245  0.00  0.00    +0.004 A 
ATOM     25  C   UNL     1       0.539  -2.106  -1.244  0.00  0.00    +0.010 A 
ATOM     26  C   UNL     1       0.560  -2.814  -0.043  0.00  0.00    +0.000 A 
ATOM     27  C   UNL     1       0.820  -2.143   1.151  0.00  0.00    +0.010 A 
ATOM     28  C   UNL     1       1.060  -0.784   1.137  0.00  0.00    +0.004 A 
ENDBRANCH   1  26
BRANCH   3  29
ATOM     29  C   UNL     1       0.097  -7.113   2.445  0.00  0.00    +0.340 C 
ATOM     30  O   UNL     1      -0.846  -7.822   2.730  0.00  0.00    -0.245 OA
BRANCH  29  31
ATOM     31  O   UNL     1       1.154  -7.032   3.276  0.00  0.00    -0.464 OA
ATOM     32  C   UNL     1       1.097  -7.807   4.475  0.00  0.00    +0.280 C 
ENDBRANCH  29  31
ENDBRANCH   3  29
TORSDOF 4
