REMARK  Name = ZINC63448239
REMARK  7 active torsions:
REMARK  status: ('A' for Active; 'I' for Inactive)
REMARK    1  A    between atoms: C_1  and  C_2
REMARK    2  A    between atoms: C_2  and  N_3
REMARK    3  A    between atoms: N_3  and  C_4
REMARK    4  A    between atoms: N_3  and  S_12
REMARK    5  A    between atoms: C_7  and  C_11
REMARK    6  A    between atoms: C_8  and  C_10
REMARK    7  A    between atoms: S_12  and  C_15
REMARK                            x       y       z     vdW  Elec       q    Type
REMARK                         _______ _______ _______ _____ _____    ______ ____
ROOT
ATOM      1  S   UNL     1       0.017  -1.057  -2.577  0.00  0.00    +0.075 S 
ATOM      2  O   UNL     1       0.881  -2.091  -3.029  0.00  0.00    -0.150 OA
ATOM      3  O   UNL     1      -1.369  -1.269  -2.347  0.00  0.00    -0.150 OA
ENDROOT
BRANCH   1   4
ATOM      4  C   UNL     1       0.138   0.249  -3.753  0.00  0.00    +0.111 A 
ATOM      5  C   UNL     1      -0.862   1.242  -3.778  0.00  0.00    +0.031 A 
ATOM      6  C   UNL     1      -0.827   2.270  -4.656  0.00  0.00    +0.027 A 
ATOM      7  C   UNL     1       0.243   2.364  -5.584  0.00  0.00    +0.055 A 
ATOM      8  N   UNL     1       0.302   3.353  -6.450  0.00  0.00    -0.276 N 
ATOM      9  C   UNL     1       1.329   3.422  -7.322  0.00  0.00    +0.304 C 
ATOM     10  O   UNL     1       1.391   4.332  -8.123  0.00  0.00    -0.265 OA
ATOM     11  C   UNL     1       2.391   2.369  -7.295  0.00  0.00    +0.304 C 
ATOM     12  O   UNL     1       3.321   2.418  -8.075  0.00  0.00    -0.265 OA
ATOM     13  N   UNL     1       2.308   1.363  -6.399  0.00  0.00    -0.276 N 
ATOM     14  C   UNL     1       1.297   1.317  -5.558  0.00  0.00    +0.057 A 
ATOM     15  C   UNL     1       1.191   0.273  -4.602  0.00  0.00    +0.054 A 
ATOM     16  H   UNL     1       2.992   0.676  -6.375  0.00  0.00    +0.155 HD
ATOM     17  H   UNL     1      -0.391   4.032  -6.460  0.00  0.00    +0.155 HD
ENDBRANCH   1   4
BRANCH   1  18
ATOM     18  N   UNL     1       0.653  -0.496  -1.155  0.00  0.00    -0.203 N 
BRANCH  18  19
ATOM     19  C   UNL     1       2.007  -0.691  -0.871  0.00  0.00    +0.052 A 
ATOM     20  C   UNL     1       2.924  -0.825  -1.906  0.00  0.00    +0.025 A 
ATOM     21  C   UNL     1       4.261  -1.017  -1.621  0.00  0.00    +0.005 A 
ATOM     22  C   UNL     1       4.689  -1.075  -0.307  0.00  0.00    -0.047 A 
ATOM     23  C   UNL     1       3.779  -0.942   0.726  0.00  0.00    -0.046 A 
ATOM     24  C   UNL     1       2.440  -0.744   0.448  0.00  0.00    +0.028 A 
ATOM     25  C   UNL     1       4.249  -1.008   2.156  0.00  0.00    +0.044 C 
ATOM     26  C   UNL     1       6.149  -1.285  -0.000  0.00  0.00    +0.044 C 
ENDBRANCH  18  19
BRANCH  18  28
ATOM     27  C   UNL     1      -0.091   1.713  -0.417  0.00  0.00    +0.026 C 
ATOM     28  C   UNL     1      -0.204   0.204  -0.195  0.00  0.00    +0.128 C 
ENDBRANCH  18  28
ENDBRANCH   1  18
TORSDOF 4
