REMARK  Name = ZINC15730342
REMARK  6 active torsions:
REMARK  status: ('A' for Active; 'I' for Inactive)
REMARK    1  A    between atoms: C_1  and  C_2
REMARK    2  A    between atoms: C_6  and  N_9
REMARK    3  A    between atoms: C_7  and  C_8
REMARK    4  A    between atoms: N_9  and  S_10
REMARK    5  A    between atoms: S_10  and  C_13
REMARK    6  A    between atoms: C_23  and  C_26
REMARK                            x       y       z     vdW  Elec       q    Type
REMARK                         _______ _______ _______ _____ _____    ______ ____
ROOT
ATOM      1  C   UNL     1       3.554   3.349   2.442  0.00  0.00    +0.110 A 
ATOM      2  C   UNL     1       4.705   3.150   3.184  0.00  0.00    +0.030 A 
ATOM      3  C   UNL     1       4.627   2.943   4.550  0.00  0.00    +0.018 A 
ATOM      4  C   UNL     1       3.390   2.939   5.172  0.00  0.00    +0.029 A 
ATOM      5  C   UNL     1       2.230   3.141   4.427  0.00  0.00    +0.049 A 
ATOM      6  C   UNL     1       2.316   3.351   3.060  0.00  0.00    +0.053 A 
ATOM      7  N   UNL     1       0.985   3.139   5.073  0.00  0.00    -0.284 N 
ATOM      8  C   UNL     1       0.787   3.895   6.160  0.00  0.00    +0.218 C 
ATOM      9  O   UNL     1      -0.220   3.738   6.819  0.00  0.00    -0.275 OA
ATOM     10  C   UNL     1       1.786   4.932   6.580  0.00  0.00    +0.110 C 
ATOM     11  C   UNL     1       2.815   4.326   7.550  0.00  0.00    +0.057 C 
ATOM     12  S   UNL     1       3.260   2.676   6.912  0.00  0.00    -0.120 S 
ATOM     13  C   UNL     1       4.060   5.213   7.609  0.00  0.00    +0.020 C 
ATOM     14  H   UNL     1       0.264   2.587   4.731  0.00  0.00    +0.155 HD
ENDROOT
BRANCH   1  15
ATOM     15  S   UNL     1       3.666   3.609   0.703  0.00  0.00    +0.072 S 
ATOM     16  O   UNL     1       4.972   4.110   0.451  0.00  0.00    -0.150 OA
ATOM     17  O   UNL     1       2.493   4.314   0.322  0.00  0.00    -0.150 OA
BRANCH  15  18
ATOM     18  N   UNL     1       3.582   2.122  -0.020  0.00  0.00    -0.216 N 
ATOM     19  H   UNL     1       4.319   1.806  -0.566  0.00  0.00    +0.174 HD
BRANCH  18  25
ATOM     20  C   UNL     1       1.596  -2.342   0.511  0.00  0.00    +0.044 C 
ATOM     21  C   UNL     1       1.457  -0.844   0.416  0.00  0.00    -0.046 A 
ATOM     22  C   UNL     1       0.207  -0.260   0.503  0.00  0.00    +0.004 A 
ATOM     23  C   UNL     1       0.075   1.114   0.417  0.00  0.00    +0.002 A 
ATOM     24  C   UNL     1       1.193   1.907   0.243  0.00  0.00    +0.025 A 
ATOM     25  C   UNL     1       2.450   1.323   0.155  0.00  0.00    +0.051 A 
ATOM     26  C   UNL     1       2.579  -0.058   0.242  0.00  0.00    -0.025 A 
ATOM     27  C   UNL     1       3.941  -0.696   0.148  0.00  0.00    +0.046 C 
ENDBRANCH  18  25
ENDBRANCH  15  18
ENDBRANCH   1  15
TORSDOF 3
