REMARK  Name = ZINC59021224
REMARK  12 active torsions:
REMARK  status: ('A' for Active; 'I' for Inactive)
REMARK    1  A    between atoms: C_1  and  C_2
REMARK    2  A    between atoms: C_2  and  C_3
REMARK    3  A    between atoms: C_3  and  C_5
REMARK    4  A    between atoms: C_3  and  C_6
REMARK    5  A    between atoms: C_9  and  N_12
REMARK    6  A    between atoms: C_13  and  C_15
REMARK    7  A    between atoms: C_15  and  S_16
REMARK    8  A    between atoms: S_16  and  C_17
REMARK    9  A    between atoms: N_22  and  N_23
REMARK   10  A    between atoms: C_24  and  C_25
REMARK   11  A    between atoms: C_24  and  C_26
REMARK   12  A    between atoms: C_29  and  C_32
REMARK                            x       y       z     vdW  Elec       q    Type
REMARK                         _______ _______ _______ _____ _____    ______ ____
ROOT
ATOM      1  C   UNL     1       4.562 -10.330  -1.569  0.00  0.00    +0.211 A 
ATOM      2  N   UNL     1       5.575 -11.135  -1.232  0.00  0.00    -0.186 NA
ATOM      3  C   UNL     1       5.154 -12.381  -1.184  0.00  0.00    +0.232 A 
ATOM      4  N   UNL     1       3.840 -12.389  -1.496  0.00  0.00    -0.245 N 
ATOM      5  N   UNL     1       3.480 -11.054  -1.735  0.00  0.00    -0.144 NA
ATOM      6  N   UNL     1       5.922 -13.487  -0.869  0.00  0.00    -0.205 N 
ATOM      7  H   UNL     1       5.520 -14.370  -0.860  0.00  0.00    +0.177 HD
ATOM      8  H   UNL     1       3.259 -13.165  -1.542  0.00  0.00    +0.192 HD
ENDROOT
BRANCH   6   9
ATOM      9  N   UNL     1       7.280 -13.333  -0.563  0.00  0.00    -0.184 NA
ATOM     10  C   UNL     1       8.004 -14.373  -0.278  0.00  0.00    +0.063 C 
ATOM     11  C   UNL     1       9.419 -14.195   0.206  0.00  0.00    +0.068 C 
BRANCH  10  12
ATOM     12  C   UNL     1       7.440 -15.727  -0.428  0.00  0.00    -0.003 A 
ATOM     13  C   UNL     1       6.594 -16.020  -1.501  0.00  0.00    +0.010 A 
ATOM     14  C   UNL     1       6.071 -17.289  -1.636  0.00  0.00    +0.004 A 
ATOM     15  C   UNL     1       6.381 -18.271  -0.711  0.00  0.00    -0.050 A 
ATOM     16  C   UNL     1       7.218 -17.987   0.354  0.00  0.00    +0.004 A 
ATOM     17  C   UNL     1       7.753 -16.724   0.498  0.00  0.00    +0.010 A 
ATOM     18  C   UNL     1       5.805 -19.655  -0.864  0.00  0.00    +0.044 C 
ENDBRANCH  10  12
ENDBRANCH   6   9
BRANCH   1  19
ATOM     19  S   UNL     1       4.661  -8.581  -1.754  0.00  0.00    -0.075 S 
BRANCH  19  20
ATOM     20  C   UNL     1       2.974  -8.090  -2.205  0.00  0.00    +0.173 C 
BRANCH  20  22
ATOM     21  N   UNL     1       1.759  -6.003  -2.737  0.00  0.00    -0.285 N 
ATOM     22  C   UNL     1       2.920  -6.596  -2.396  0.00  0.00    +0.227 C 
ATOM     23  O   UNL     1       3.920  -5.928  -2.242  0.00  0.00    -0.275 OA
ATOM     24  H   UNL     1       0.944  -6.526  -2.792  0.00  0.00    +0.155 HD
BRANCH  21  28
ATOM     25  C   UNL     1       1.669  -1.919  -3.557  0.00  0.00    -0.044 A 
ATOM     26  C   UNL     1       2.737  -2.685  -3.985  0.00  0.00    +0.006 A 
ATOM     27  C   UNL     1       2.770  -4.039  -3.715  0.00  0.00    +0.023 A 
ATOM     28  C   UNL     1       1.729  -4.631  -3.012  0.00  0.00    +0.033 A 
ATOM     29  C   UNL     1       0.657  -3.859  -2.583  0.00  0.00    +0.023 A 
ATOM     30  C   UNL     1       0.633  -2.504  -2.852  0.00  0.00    +0.006 A 
BRANCH  25  31
ATOM     31  C   UNL     1       1.636  -0.442  -3.853  0.00  0.00    +0.016 C 
ATOM     32  C   UNL     1       1.657  -0.225  -5.368  0.00  0.00    +0.012 C 
BRANCH  31  34
ATOM     33  C   UNL     1       2.761   1.746  -3.418  0.00  0.00    +0.004 C 
ATOM     34  C   UNL     1       2.858   0.232  -3.224  0.00  0.00    +0.004 C 
ENDBRANCH  31  34
ENDBRANCH  25  31
ENDBRANCH  21  28
ENDBRANCH  20  22
ENDBRANCH  19  20
ENDBRANCH   1  19
TORSDOF 8
