REMARK  Name = ZINC16450223
REMARK  5 active torsions:
REMARK  status: ('A' for Active; 'I' for Inactive)
REMARK    1  A    between atoms: C_4  and  N_25
REMARK    2  A    between atoms: C_5  and  N_7
REMARK    3  A    between atoms: N_7  and  C_8
REMARK    4  A    between atoms: N_15  and  C_18
REMARK    5  A    between atoms: C_26  and  C_28
REMARK                            x       y       z     vdW  Elec       q    Type
REMARK                         _______ _______ _______ _____ _____    ______ ____
ROOT
ATOM      1  C   UNL     1      -0.749  -3.313   0.043  0.00  0.00    +0.090 C 
ATOM      2  C   UNL     1      -1.018  -4.643   0.315  0.00  0.00    +0.113 C 
ATOM      3  C   UNL     1      -2.399  -5.154   0.360  0.00  0.00    +0.258 C 
ATOM      4  O   UNL     1      -3.345  -4.416   0.158  0.00  0.00    -0.270 OA
ATOM      5  N   UNL     1      -2.587  -6.462   0.631  0.00  0.00    -0.235 N 
ATOM      6  C   UNL     1      -1.554  -7.286   0.855  0.00  0.00    +0.320 C 
ATOM      7  O   UNL     1      -1.790  -8.454   1.094  0.00  0.00    -0.251 OA
ATOM      8  N   UNL     1      -0.273  -6.890   0.829  0.00  0.00    -0.190 N 
ATOM      9  C   UNL     1       0.064  -5.611   0.565  0.00  0.00    +0.265 C 
ATOM     10  O   UNL     1       1.230  -5.265   0.539  0.00  0.00    -0.269 OA
ATOM     11  H   UNL     1      -3.490  -6.814   0.665  0.00  0.00    +0.159 HD
ENDROOT
BRANCH   8  12
ATOM     12  C   UNL     1       0.739  -7.828   1.077  0.00  0.00    +0.046 A 
ATOM     13  C   UNL     1       1.618  -7.640   2.135  0.00  0.00    +0.025 A 
ATOM     14  C   UNL     1       2.614  -8.566   2.377  0.00  0.00    +0.022 A 
ATOM     15  C   UNL     1       2.736  -9.680   1.566  0.00  0.00    +0.041 A 
ATOM     16  C   UNL     1       1.861  -9.870   0.510  0.00  0.00    +0.022 A 
ATOM     17  C   UNL     1       0.860  -8.950   0.268  0.00  0.00    +0.025 A 
ATOM     18 CL   UNL     1       3.989 -10.842   1.872  0.00  0.00    -0.084 Cl
ENDBRANCH   8  12
BRANCH   1  19
ATOM     19  N   UNL     1       0.523  -2.910  -0.154  0.00  0.00    -0.318 N 
ATOM     20  H   UNL     1       1.240  -3.562  -0.185  0.00  0.00    +0.152 HD
BRANCH  19  25
ATOM     21  C   UNL     1       0.068   0.729  -0.429  0.00  0.00    +0.002 A 
ATOM     22  C   UNL     1       1.372   1.145  -0.631  0.00  0.00    +0.002 A 
ATOM     23  C   UNL     1       2.398   0.221  -0.676  0.00  0.00    +0.025 A 
ATOM     24  C   UNL     1       2.123  -1.130  -0.518  0.00  0.00    +0.055 A 
ATOM     25  C   UNL     1       0.808  -1.550  -0.314  0.00  0.00    +0.052 A 
ATOM     26  C   UNL     1      -0.216  -0.614  -0.271  0.00  0.00    +0.025 A 
BRANCH  24  27
ATOM     27  N   UNL     1       3.161  -2.068  -0.564  0.00  0.00    -0.277 N 
ATOM     28  C   UNL     1       4.221  -1.862  -1.370  0.00  0.00    +0.322 C 
ATOM     29  O   UNL     1       4.316  -0.826  -1.993  0.00  0.00    -0.266 OA
ATOM     30  H   UNL     1       3.117  -2.867  -0.015  0.00  0.00    +0.155 HD
BRANCH  28  31
ATOM     31  C   UNL     1       5.287  -2.919  -1.498  0.00  0.00    +0.470 C 
ATOM     32  F   UNL     1       6.276  -2.479  -2.385  0.00  0.00    -0.162 F 
ATOM     33  F   UNL     1       5.859  -3.159  -0.244  0.00  0.00    -0.162 F 
ATOM     34  F   UNL     1       4.717  -4.100  -1.985  0.00  0.00    -0.162 F 
ENDBRANCH  28  31
ENDBRANCH  24  27
ENDBRANCH  19  25
ENDBRANCH   1  19
TORSDOF 5
