REMARK  Name = ZINC00223494
REMARK  8 active torsions:
REMARK  status: ('A' for Active; 'I' for Inactive)
REMARK    1  A    between atoms: C_1  and  C_2
REMARK    2  A    between atoms: C_7  and  N_8
REMARK    3  A    between atoms: N_8  and  C_9
REMARK    4  A    between atoms: C_9  and  C_10
REMARK    5  A    between atoms: N_12  and  N_13
REMARK    6  A    between atoms: C_14  and  C_15
REMARK    7  A    between atoms: C_14  and  C_16
REMARK    8  A    between atoms: C_18  and  N_21
REMARK                            x       y       z     vdW  Elec       q    Type
REMARK                         _______ _______ _______ _____ _____    ______ ____
ROOT
ATOM      1  C   UNL     1      -3.471   2.154   0.030  0.00  0.00    +0.249 C 
ATOM      2  O   UNL     1      -3.488   3.362   0.037  0.00  0.00    -0.272 OA
ATOM      3  N   UNL     1      -2.295   1.496   0.021  0.00  0.00    -0.205 N 
ATOM      4  H   UNL     1      -2.282   0.526   0.016  0.00  0.00    +0.177 HD
ENDROOT
BRANCH   3   5
ATOM      5  N   UNL     1      -1.187   2.156   0.019  0.00  0.00    -0.184 NA
ATOM      6  C   UNL     1      -0.018   1.503   0.010  0.00  0.00    +0.070 C 
ATOM      7  C   UNL     1       0.002  -0.004   0.002  0.00  0.00    +0.068 C 
BRANCH   6   8
ATOM      8  C   UNL     1       1.167   2.209   0.003  0.00  0.00    +0.037 A 
ATOM      9  C   UNL     1       1.383   3.677   0.009  0.00  0.00    +0.050 A 
ATOM     10  C   UNL     1       2.654   4.074  -0.001  0.00  0.00    +0.134 A 
ATOM     11  C   UNL     1       3.682   3.113  -0.016  0.00  0.00    +0.078 A 
ATOM     12  S   UNL     1       2.844   1.596  -0.009  0.00  0.00    -0.093 S 
BRANCH  10  13
ATOM     13  N   UNL     1       2.984   5.517   0.004  0.00  0.00    +0.057 N 
ATOM     14  O   UNL     1       2.018   6.412   0.018  0.00  0.00    -0.126 OA
ATOM     15  O   UNL     1       4.242   5.905  -0.006  0.00  0.00    -0.126 OA
ENDBRANCH  10  13
ENDBRANCH   6   8
ENDBRANCH   3   5
BRANCH   1  16
ATOM     16  C   UNL     1      -4.766   1.383   0.032  0.00  0.00    +0.199 C 
BRANCH  16  17
ATOM     17  N   UNL     1      -5.892   2.320   0.043  0.00  0.00    -0.335 N 
ATOM     18  H   UNL     1      -5.728   3.276   0.047  0.00  0.00    +0.147 HD
BRANCH  17  25
ATOM     19  C   UNL     1      -8.019   4.209   0.063  0.00  0.00    +0.045 C 
ATOM     20  C   UNL     1      -8.272   2.723   0.056  0.00  0.00    -0.030 A 
ATOM     21  C   UNL     1      -9.566   2.242   0.059  0.00  0.00    +0.005 A 
ATOM     22  C   UNL     1      -9.799   0.879   0.052  0.00  0.00    +0.000 A 
ATOM     23  C   UNL     1      -8.736  -0.007   0.042  0.00  0.00    +0.002 A 
ATOM     24  C   UNL     1      -7.440   0.468   0.034  0.00  0.00    +0.023 A 
ATOM     25  C   UNL     1      -7.203   1.836   0.046  0.00  0.00    +0.030 A 
ENDBRANCH  17  25
ENDBRANCH  16  17
ENDBRANCH   1  16
TORSDOF 6
