REMARK  Name = ZINC13312679
REMARK  4 active torsions:
REMARK  status: ('A' for Active; 'I' for Inactive)
REMARK    1  A    between atoms: C_4  and  C_7
REMARK    2  A    between atoms: N_16  and  S_17
REMARK    3  A    between atoms: S_17  and  C_20
REMARK    4  A    between atoms: C_24  and  C_26
REMARK                            x       y       z     vdW  Elec       q    Type
REMARK                         _______ _______ _______ _____ _____    ______ ____
ROOT
ATOM      1  C   UNL     1      -3.976   1.559   2.322  0.00  0.00    +0.140 C 
ATOM      2  C   UNL     1      -3.238   1.599   3.659  0.00  0.00    -0.014 A 
ATOM      3  C   UNL     1      -3.531   2.518   4.666  0.00  0.00    +0.013 A 
ATOM      4  C   UNL     1      -2.838   2.492   5.828  0.00  0.00    +0.046 A 
ATOM      5  S   UNL     1      -1.708   1.136   5.552  0.00  0.00    -0.101 S 
ATOM      6  C   UNL     1      -2.241   0.709   3.915  0.00  0.00    -0.004 A 
ATOM      7  C   UNL     1      -1.721  -0.369   3.022  0.00  0.00    +0.060 C 
ATOM      8  C   UNL     1      -2.745  -0.614   1.896  0.00  0.00    +0.115 C 
ATOM      9  N   UNL     1      -3.212   0.694   1.413  0.00  0.00    -0.165 NA
ENDROOT
BRANCH   1  13
ATOM     10  C   UNL     1      -7.898  -0.039   2.882  0.00  0.00    +0.000 A 
ATOM     11  C   UNL     1      -7.733   1.186   2.264  0.00  0.00    +0.000 A 
ATOM     12  C   UNL     1      -6.464   1.703   2.083  0.00  0.00    +0.005 A 
ATOM     13  C   UNL     1      -5.360   0.995   2.520  0.00  0.00    -0.024 A 
ATOM     14  C   UNL     1      -5.525  -0.233   3.134  0.00  0.00    +0.005 A 
ATOM     15  C   UNL     1      -6.794  -0.748   3.319  0.00  0.00    +0.000 A 
ENDBRANCH   1  13
BRANCH   9  16
ATOM     16  S   UNL     1      -2.887   1.183  -0.135  0.00  0.00    +0.062 S 
ATOM     17  O   UNL     1      -3.884   2.136  -0.478  0.00  0.00    -0.153 OA
ATOM     18  O   UNL     1      -2.668   0.003  -0.896  0.00  0.00    -0.153 OA
BRANCH  16  19
ATOM     19  C   UNL     1      -1.353   2.050  -0.097  0.00  0.00    +0.106 A 
ATOM     20  C   UNL     1      -1.338   3.416   0.125  0.00  0.00    +0.030 A 
ATOM     21  C   UNL     1      -0.140   4.106   0.150  0.00  0.00    +0.023 A 
ATOM     22  C   UNL     1       1.052   3.433  -0.040  0.00  0.00    +0.055 A 
ATOM     23  C   UNL     1       1.043   2.053  -0.259  0.00  0.00    +0.083 A 
ATOM     24  C   UNL     1      -0.172   1.364  -0.283  0.00  0.00    +0.045 A 
ATOM     25 CL   UNL     1       2.555   4.300  -0.007  0.00  0.00    -0.083 Cl
BRANCH  23  26
ATOM     26  C   UNL     1       2.312   1.326  -0.462  0.00  0.00    +0.388 C 
ATOM     27  O   UNL     1       3.367   1.928  -0.441  0.00  0.00    -0.241 OA
ATOM     28  O   UNL     1       2.300  -0.004  -0.672  0.00  0.00    -0.241 OA
ENDBRANCH  23  26
ENDBRANCH  16  19
ENDBRANCH   9  16
TORSDOF 4
