REMARK  Name = ZINC12697689
REMARK  4 active torsions:
REMARK  status: ('A' for Active; 'I' for Inactive)
REMARK    1  A    between atoms: C_6  and  N_7
REMARK    2  A    between atoms: C_8  and  C_10
REMARK    3  A    between atoms: C_10  and  C_11
REMARK    4  A    between atoms: C_11  and  N_12
REMARK                            x       y       z     vdW  Elec       q    Type
REMARK                         _______ _______ _______ _____ _____    ______ ____
ROOT
ATOM      1  N   UNL     1      -1.202  -0.721   0.010  0.00  0.00    -0.285 N 
ATOM      2  C   UNL     1      -2.374  -0.068   0.127  0.00  0.00    +0.219 C 
ATOM      3  O   UNL     1      -2.395   1.145   0.134  0.00  0.00    -0.275 OA
ATOM      4  H   UNL     1      -1.191  -1.688  -0.072  0.00  0.00    +0.155 HD
ENDROOT
BRANCH   1  10
ATOM      5  C   UNL     1       0.122   1.154   0.763  0.00  0.00    +0.027 A 
ATOM      6  C   UNL     1       1.309   1.862   0.762  0.00  0.00    +0.051 A 
ATOM      7  C   UNL     1       2.383   1.417   0.008  0.00  0.00    +0.167 A 
ATOM      8  C   UNL     1       2.265   0.255  -0.751  0.00  0.00    +0.169 A 
ATOM      9  C   UNL     1       1.076  -0.453  -0.750  0.00  0.00    +0.072 A 
ATOM     10  C   UNL     1       0.002  -0.004   0.008  0.00  0.00    +0.037 A 
ATOM     11  O   UNL     1       3.450   0.031  -1.396  0.00  0.00    -0.447 OA
ATOM     12  C   UNL     1       4.161   1.270  -1.321  0.00  0.00    +0.254 C 
ATOM     13  O   UNL     1       3.642   1.924  -0.159  0.00  0.00    -0.448 OA
ATOM     14  C   UNL     1       3.930   2.117  -2.579  0.00  0.00    +0.093 C 
ATOM     15  C   UNL     1       5.287   2.832  -2.806  0.00  0.00    +0.008 C 
ATOM     16  C   UNL     1       6.319   1.748  -2.404  0.00  0.00    +0.008 C 
ATOM     17  C   UNL     1       5.669   1.035  -1.197  0.00  0.00    +0.093 C 
ENDBRANCH   1  10
BRANCH   2  18
ATOM     18  C   UNL     1      -3.660  -0.844   0.249  0.00  0.00    +0.115 C 
BRANCH  18  19
ATOM     19  C   UNL     1      -4.835   0.130   0.368  0.00  0.00    +0.125 C 
BRANCH  19  20
ATOM     20  N   UNL     1      -6.085  -0.624   0.487  0.00  0.00    -0.241 N 
ATOM     21  C   UNL     1      -6.818  -1.003  -0.578  0.00  0.00    +0.226 C 
ATOM     22  O   UNL     1      -6.473  -0.966  -1.739  0.00  0.00    -0.275 OA
ATOM     23  C   UNL     1      -8.175  -1.492  -0.044  0.00  0.00    +0.091 C 
ATOM     24  C   UNL     1      -9.047  -0.235   0.018  0.00  0.00    +0.040 C 
ATOM     25  C   UNL     1     -10.001  -0.235   1.163  0.00  0.00    -0.030 C 
ATOM     26  C   UNL     1      -9.906  -0.994   2.203  0.00  0.00    -0.030 C 
ATOM     27  C   UNL     1      -8.836  -2.025   2.373  0.00  0.00    +0.040 C 
ATOM     28  C   UNL     1      -7.734  -1.945   1.357  0.00  0.00    +0.091 C 
ATOM     29  C   UNL     1      -6.604  -1.009   1.674  0.00  0.00    +0.226 C 
ATOM     30  O   UNL     1      -6.234  -0.664   2.776  0.00  0.00    -0.275 OA
ENDBRANCH  19  20
ENDBRANCH  18  19
ENDBRANCH   2  18
TORSDOF 4
