REMARK  Name = ZINC67308552
REMARK  6 active torsions:
REMARK  status: ('A' for Active; 'I' for Inactive)
REMARK    1  A    between atoms: C_1  and  C_2
REMARK    2  A    between atoms: C_5  and  N_11
REMARK    3  A    between atoms: C_7  and  C_8
REMARK    4  A    between atoms: N_14  and  C_15
REMARK    5  A    between atoms: C_15  and  C_17
REMARK    6  A    between atoms: C_15  and  C_18
REMARK                            x       y       z     vdW  Elec       q    Type
REMARK                         _______ _______ _______ _____ _____    ______ ____
ROOT
ATOM      1  N   UNL     1      -1.360  -3.528   0.231  0.00  0.00    -0.269 N 
ATOM      2  C   UNL     1      -0.877  -4.495  -0.574  0.00  0.00    +0.304 C 
ATOM      3  O   UNL     1      -0.282  -4.197  -1.592  0.00  0.00    -0.252 OA
ATOM      4  N   UNL     1      -1.052  -5.791  -0.252  0.00  0.00    -0.288 N 
ATOM      5  H   UNL     1      -1.896  -3.765   1.004  0.00  0.00    +0.156 HD
ATOM      6  H   UNL     1      -1.526  -6.029   0.561  0.00  0.00    +0.151 HD
ENDROOT
BRANCH   1  11
ATOM      7  C   UNL     1      -0.254   1.936  -0.871  0.00  0.00    +0.044 C 
ATOM      8  C   UNL     1      -0.547   0.486  -0.582  0.00  0.00    -0.038 A 
ATOM      9  C   UNL     1      -0.612   0.042   0.723  0.00  0.00    +0.006 A 
ATOM     10  C   UNL     1      -0.881  -1.286   0.993  0.00  0.00    +0.023 A 
ATOM     11  C   UNL     1      -1.089  -2.184  -0.048  0.00  0.00    +0.035 A 
ATOM     12  C   UNL     1      -1.026  -1.748  -1.362  0.00  0.00    +0.036 A 
ATOM     13  C   UNL     1      -0.760  -0.406  -1.634  0.00  0.00    +0.041 A 
BRANCH  13  14
ATOM     14  C   UNL     1      -0.697   0.069  -3.033  0.00  0.00    +0.242 C 
ATOM     15  O   UNL     1      -0.526   1.249  -3.268  0.00  0.00    -0.270 OA
ATOM     16  N   UNL     1      -0.830  -0.808  -4.049  0.00  0.00    -0.325 N 
ATOM     17  H   UNL     1      -0.966  -1.750  -3.862  0.00  0.00    +0.145 HD
ATOM     18  H   UNL     1      -0.788  -0.496  -4.967  0.00  0.00    +0.145 HD
ENDBRANCH  13  14
ENDBRANCH   1  11
BRANCH   4  19
ATOM     19  C   UNL     1      -0.526  -6.842  -1.127  0.00  0.00    +0.158 C 
ATOM     20  C   UNL     1       0.941  -7.106  -0.783  0.00  0.00    +0.038 C 
BRANCH  19  21
ATOM     21  C   UNL     1      -1.324  -8.105  -0.931  0.00  0.00    +0.240 C 
ATOM     22  O   UNL     1      -1.861  -8.324   0.135  0.00  0.00    -0.273 OA
ATOM     23  N   UNL     1      -1.441  -8.992  -1.939  0.00  0.00    -0.269 N 
ATOM     24  C   UNL     1      -0.760  -8.888  -3.232  0.00  0.00    +0.118 C 
ATOM     25  C   UNL     1      -1.212 -10.124  -4.027  0.00  0.00    +0.056 C 
ATOM     26  C   UNL     1      -2.145 -10.858  -3.091  0.00  0.00    -0.024 A 
ATOM     27  C   UNL     1      -2.225 -10.149  -1.902  0.00  0.00    +0.040 A 
ATOM     28  C   UNL     1      -3.031 -10.639  -0.873  0.00  0.00    +0.024 A 
ATOM     29  C   UNL     1      -3.732 -11.815  -1.040  0.00  0.00    +0.002 A 
ATOM     30  C   UNL     1      -3.643 -12.516  -2.227  0.00  0.00    +0.000 A 
ATOM     31  C   UNL     1      -2.853 -12.032  -3.254  0.00  0.00    +0.005 A 
ENDBRANCH  19  21
ENDBRANCH   4  19
TORSDOF 4
