REMARK  Name = ZINC37486305
REMARK  7 active torsions:
REMARK  status: ('A' for Active; 'I' for Inactive)
REMARK    1  A    between atoms: C_1  and  C_2
REMARK    2  A    between atoms: C_2  and  C_3
REMARK    3  A    between atoms: C_3  and  N_4
REMARK    4  A    between atoms: C_5  and  N_23
REMARK    5  A    between atoms: C_6  and  N_13
REMARK    6  A    between atoms: N_13  and  C_14
REMARK    7  A    between atoms: C_20  and  C_22
REMARK                            x       y       z     vdW  Elec       q    Type
REMARK                         _______ _______ _______ _____ _____    ______ ____
ROOT
ATOM      1  N   UNL     1      -1.727  -2.028   0.014  0.00  0.00    -0.281 N 
ATOM      2  C   UNL     1      -1.679  -2.701  -1.185  0.00  0.00    +0.127 A 
ATOM      3  C   UNL     1      -1.441  -4.049  -1.188  0.00  0.00    +0.131 A 
ATOM      4  C   UNL     1      -1.250  -4.711   0.038  0.00  0.00    +0.277 A 
ATOM      5  O   UNL     1      -1.036  -5.912   0.060  0.00  0.00    -0.266 OA
ATOM      6  N   UNL     1      -1.305  -4.011   1.188  0.00  0.00    -0.273 N 
ATOM      7  H   UNL     1      -1.174  -4.466   2.034  0.00  0.00    +0.173 HD
ATOM      8  C   UNL     1      -1.536  -2.686   1.173  0.00  0.00    +0.331 A 
ATOM      9  O   UNL     1      -1.577  -2.073   2.223  0.00  0.00    -0.246 OA
ENDROOT
BRANCH   2  10
ATOM     10  N   UNL     1      -1.870  -2.027  -2.369  0.00  0.00    -0.343 N 
ATOM     11  H   UNL     1      -2.039  -1.071  -2.361  0.00  0.00    +0.144 HD
ATOM     12  H   UNL     1      -1.835  -2.506  -3.212  0.00  0.00    +0.144 HD
ENDBRANCH   2  10
BRANCH   3  13
ATOM     13  N   UNL     1      -1.387  -4.765  -2.407  0.00  0.00    -0.334 N 
ATOM     14  H   UNL     1      -1.437  -4.290  -3.251  0.00  0.00    +0.147 HD
BRANCH  13  15
ATOM     15  C   UNL     1      -1.256  -6.224  -2.394  0.00  0.00    +0.073 C 
ATOM     16  C   UNL     1       0.215  -6.603  -2.209  0.00  0.00    +0.022 C 
ATOM     17  C   UNL     1       0.352  -8.126  -2.196  0.00  0.00    +0.002 C 
ATOM     18  C   UNL     1      -0.160  -8.696  -3.520  0.00  0.00    +0.000 C 
ATOM     19  C   UNL     1      -1.631  -8.318  -3.705  0.00  0.00    +0.005 C 
ATOM     20  C   UNL     1      -1.767  -6.794  -3.718  0.00  0.00    +0.006 C 
ATOM     21  C   UNL     1      -3.238  -6.416  -3.903  0.00  0.00    +0.009 C 
ENDBRANCH  13  15
ENDBRANCH   3  13
BRANCH   1  22
ATOM     22  C   UNL     1      -1.981  -0.585   0.030  0.00  0.00    +0.128 C 
BRANCH  22  24
ATOM     23  C   UNL     1      -0.917   1.675  -0.040  0.00  0.00    +0.005 C 
ATOM     24  C   UNL     1      -0.652   0.168  -0.056  0.00  0.00    +0.018 C 
ENDBRANCH  22  24
ENDBRANCH   1  22
TORSDOF 5
