REMARK  Name = ZINC13628715
REMARK  4 active torsions:
REMARK  status: ('A' for Active; 'I' for Inactive)
REMARK    1  A    between atoms: C_6  and  C_7
REMARK    2  A    between atoms: C_9  and  C_12
REMARK    3  A    between atoms: C_12  and  N_13
REMARK    4  A    between atoms: C_14  and  C_16
REMARK                            x       y       z     vdW  Elec       q    Type
REMARK                         _______ _______ _______ _____ _____    ______ ____
ROOT
ATOM      1  N   UNL     1      -1.127   3.527   0.027  0.00  0.00    -0.300 N 
ATOM      2  C   UNL     1      -1.230   2.183   0.020  0.00  0.00    +0.280 C 
ATOM      3  O   UNL     1      -2.326   1.657   0.022  0.00  0.00    -0.267 OA
ATOM      4  H   UNL     1      -0.253   3.947   0.025  0.00  0.00    +0.150 HD
ENDROOT
BRANCH   2   5
ATOM      5  C   UNL     1      -0.016   1.354   0.009  0.00  0.00    +0.190 A 
ATOM      6  C   UNL     1       0.002  -0.004   0.002  0.00  0.00    +0.063 A 
ATOM      7  C   UNL     1       1.413  -0.390  -0.013  0.00  0.00    +0.022 A 
ATOM      8  C   UNL     1       2.087  -1.613  -0.026  0.00  0.00    +0.031 A 
ATOM      9  C   UNL     1       3.454  -1.633  -0.040  0.00  0.00    +0.042 A 
ATOM     10  C   UNL     1       4.175  -0.445  -0.040  0.00  0.00    +0.023 A 
ATOM     11  C   UNL     1       3.527   0.771  -0.028  0.00  0.00    +0.048 A 
ATOM     12  C   UNL     1       2.138   0.816  -0.014  0.00  0.00    +0.136 A 
ATOM     13  O   UNL     1       1.248   1.827   0.000  0.00  0.00    -0.450 OA
ATOM     14 CL   UNL     1       4.295  -3.152  -0.056  0.00  0.00    -0.084 Cl
ENDBRANCH   2   5
BRANCH   1  15
ATOM     15  C   UNL     1      -2.337   4.354   0.037  0.00  0.00    +0.203 C 
BRANCH  15  18
ATOM     16  C   UNL     1      -1.429   7.787  -0.521  0.00  0.00    +0.202 A 
ATOM     17  N   UNL     1      -1.755   6.568  -1.007  0.00  0.00    -0.190 NA
ATOM     18  C   UNL     1      -1.950   5.810   0.043  0.00  0.00    +0.245 A 
ATOM     19  O   UNL     1      -1.746   6.573   1.122  0.00  0.00    -0.336 OA
ATOM     20  N   UNL     1      -1.444   7.698   0.784  0.00  0.00    -0.056 NA
BRANCH  16  26
ATOM     21  C   UNL     1      -1.128   8.941  -2.710  0.00  0.00    +0.013 A 
ATOM     22  C   UNL     1      -0.837  10.071  -3.447  0.00  0.00    +0.021 A 
ATOM     23  C   UNL     1      -0.519  11.256  -2.806  0.00  0.00    +0.041 A 
ATOM     24  C   UNL     1      -0.496  11.315  -1.423  0.00  0.00    +0.021 A 
ATOM     25  C   UNL     1      -0.790  10.192  -0.677  0.00  0.00    +0.013 A 
ATOM     26  C   UNL     1      -1.111   8.997  -1.318  0.00  0.00    +0.023 A 
ATOM     27 CL   UNL     1      -0.148  12.672  -3.739  0.00  0.00    -0.084 Cl
ENDBRANCH  16  26
ENDBRANCH  15  18
ENDBRANCH   1  15
TORSDOF 4
