REMARK  Name = ZINC38744704
REMARK  3 active torsions:
REMARK  status: ('A' for Active; 'I' for Inactive)
REMARK    1  A    between atoms: C_1  and  C_2
REMARK    2  A    between atoms: C_8  and  C_11
REMARK    3  A    between atoms: C_14  and  C_17
REMARK                            x       y       z     vdW  Elec       q    Type
REMARK                         _______ _______ _______ _____ _____    ______ ____
ROOT
ATOM      1  C   UNL     1       0.442  -2.040   4.526  0.00  0.00    +0.185 C 
ATOM      2  C   UNL     1      -0.089  -3.208   5.338  0.00  0.00    +0.034 C 
ATOM      3  C   UNL     1      -0.461  -2.646   6.505  0.00  0.00    +0.091 C 
ATOM      4  N   UNL     1      -0.221  -1.309   6.486  0.00  0.00    -0.154 NA
ATOM      5  N   UNL     1       0.278  -0.892   5.434  0.00  0.00    -0.177 NA
ENDROOT
BRANCH   1  13
ATOM      6  C   UNL     1      -0.018   1.503   0.010  0.00  0.00    +0.090 C 
ATOM      7  C   UNL     1       0.002  -0.004   0.002  0.00  0.00    +0.148 A 
ATOM      8  N   UNL     1       0.008  -0.762  -1.054  0.00  0.00    -0.132 NA
ATOM      9  N   UNL     1       0.014  -2.002  -0.707  0.00  0.00    -0.121 NA
ATOM     10  C   UNL     1      -0.004  -2.088   0.586  0.00  0.00    +0.210 A 
ATOM     11  N   UNL     1       0.024  -0.823   1.117  0.00  0.00    -0.225 N 
ATOM     12  N   UNL     1       0.080  -0.671   2.470  0.00  0.00    -0.265 N 
ATOM     13  C   UNL     1      -0.387  -1.845   3.254  0.00  0.00    +0.182 C 
ATOM     14  S   UNL     1      -0.050  -3.160   2.006  0.00  0.00    -0.058 S 
ATOM     15  H   UNL     1       1.002  -0.384   2.764  0.00  0.00    +0.168 HD
ENDBRANCH   1  13
BRANCH   3  16
ATOM     16  C   UNL     1      -1.051  -3.384   7.649  0.00  0.00    +0.002 A 
ATOM     17  C   UNL     1      -1.251  -4.761   7.565  0.00  0.00    +0.010 A 
ATOM     18  C   UNL     1      -1.800  -5.442   8.632  0.00  0.00    +0.001 A 
ATOM     19  C   UNL     1      -2.151  -4.761   9.784  0.00  0.00    +0.000 A 
ATOM     20  C   UNL     1      -1.954  -3.395   9.873  0.00  0.00    +0.001 A 
ATOM     21  C   UNL     1      -1.401  -2.704   8.813  0.00  0.00    +0.010 A 
ENDBRANCH   3  16
TORSDOF 2
