REMARK  Name = ZINC08075456
REMARK  3 active torsions:
REMARK  status: ('A' for Active; 'I' for Inactive)
REMARK    1  A    between atoms: C_10  and  C_13
REMARK    2  A    between atoms: C_13  and  C_14
REMARK    3  A    between atoms: N_16  and  C_17
REMARK                            x       y       z     vdW  Elec       q    Type
REMARK                         _______ _______ _______ _____ _____    ______ ____
ROOT
ATOM      1  C   UNL     1       4.862   4.235  -0.234  0.00  0.00    +0.150 C 
ENDROOT
BRANCH   1  11
ATOM      2  C   UNL     1       5.997   5.993  -5.056  0.00  0.00    +0.002 A 
ATOM      3  C   UNL     1       4.674   5.593  -5.053  0.00  0.00    +0.004 A 
ATOM      4  C   UNL     1       3.952   5.583  -3.873  0.00  0.00    +0.047 A 
ATOM      5  C   UNL     1       4.556   5.973  -2.690  0.00  0.00    +0.143 A 
ATOM      6  C   UNL     1       5.897   6.355  -2.690  0.00  0.00    +0.076 A 
ATOM      7  C   UNL     1       6.610   6.378  -3.877  0.00  0.00    +0.027 A 
ATOM      8  N   UNL     1       6.504   6.734  -1.484  0.00  0.00    -0.280 N 
ATOM      9  C   UNL     1       5.860   6.504  -0.321  0.00  0.00    +0.259 C 
ATOM     10  O   UNL     1       6.321   6.915   0.722  0.00  0.00    -0.271 OA
ATOM     11  C   UNL     1       4.564   5.733  -0.324  0.00  0.00    +0.268 C 
ATOM     12  O   UNL     1       3.847   6.004  -1.531  0.00  0.00    -0.477 OA
ATOM     13  H   UNL     1       7.377   7.157  -1.487  0.00  0.00    +0.155 HD
ENDBRANCH   1  11
BRANCH   1  14
ATOM     14  C   UNL     1       3.568   3.472  -0.113  0.00  0.00    +0.221 C 
ATOM     15  O   UNL     1       2.511   4.068  -0.101  0.00  0.00    -0.275 OA
ATOM     16  N   UNL     1       3.584   2.128  -0.019  0.00  0.00    -0.285 N 
ATOM     17  H   UNL     1       4.430   1.657   0.048  0.00  0.00    +0.155 HD
BRANCH  16  18
ATOM     18  C   UNL     1       2.382   1.411  -0.018  0.00  0.00    +0.035 A 
ATOM     19  C   UNL     1       2.271   0.240   0.720  0.00  0.00    +0.026 A 
ATOM     20  C   UNL     1       1.084  -0.466   0.720  0.00  0.00    +0.041 A 
ATOM     21  C   UNL     1       0.005  -0.008  -0.017  0.00  0.00    +0.142 A 
ATOM     22  C   UNL     1       0.112   1.160  -0.754  0.00  0.00    +0.078 A 
ATOM     23  C   UNL     1       1.299   1.869  -0.756  0.00  0.00    +0.046 A 
ATOM     24 CL   UNL     1      -1.243   1.732  -1.676  0.00  0.00    -0.081 Cl
ATOM     25  F   UNL     1      -1.155  -0.701  -0.016  0.00  0.00    -0.204 F 
ENDBRANCH  16  18
ENDBRANCH   1  14
TORSDOF 3
