REMARK  Name = ZINC50376982
REMARK  5 active torsions:
REMARK  status: ('A' for Active; 'I' for Inactive)
REMARK    1  A    between atoms: C_1  and  O_2
REMARK    2  A    between atoms: O_2  and  C_3
REMARK    3  A    between atoms: C_8  and  N_10
REMARK    4  A    between atoms: C_11  and  C_15
REMARK    5  A    between atoms: C_20  and  N_21
REMARK                            x       y       z     vdW  Elec       q    Type
REMARK                         _______ _______ _______ _____ _____    ______ ____
ROOT
ATOM      1  N   UNL     1       1.007  -2.140   0.735  0.00  0.00    -0.219 N 
ATOM      2  C   UNL     1       1.928  -2.503   1.662  0.00  0.00    +0.184 A 
ATOM      3  N   UNL     1       1.274  -2.755   2.777  0.00  0.00    -0.108 NA
ATOM      4  N   UNL     1       0.014  -2.574   2.610  0.00  0.00    -0.023 NA
ATOM      5  N   UNL     1      -0.229  -2.196   1.402  0.00  0.00    -0.043 NA
ENDROOT
BRANCH   2   6
ATOM      6  C   UNL     1       3.389  -2.599   1.459  0.00  0.00    +0.044 A 
ATOM      7  C   UNL     1       4.081  -1.556   0.841  0.00  0.00    +0.054 A 
ATOM      8  C   UNL     1       5.445  -1.650   0.654  0.00  0.00    +0.159 A 
ATOM      9  C   UNL     1       6.133  -2.779   1.079  0.00  0.00    +0.160 A 
ATOM     10  C   UNL     1       5.457  -3.818   1.692  0.00  0.00    +0.064 A 
ATOM     11  C   UNL     1       4.087  -3.735   1.891  0.00  0.00    +0.038 A 
ATOM     12  F   UNL     1       7.468  -2.863   0.891  0.00  0.00    -0.202 F 
ATOM     13  F   UNL     1       6.113  -0.640   0.055  0.00  0.00    -0.202 F 
BRANCH  11  14
ATOM     14  N   UNL     1       3.406  -4.779   2.515  0.00  0.00    -0.357 N 
ATOM     15  H   UNL     1       2.437  -4.765   2.564  0.00  0.00    +0.142 HD
ATOM     16  H   UNL     1       3.900  -5.520   2.899  0.00  0.00    +0.142 HD
ENDBRANCH  11  14
ENDBRANCH   2   6
BRANCH   1  21
ATOM     17  C   UNL     1       0.911  -0.277  -0.871  0.00  0.00    +0.142 C 
ATOM     18  C   UNL     1      -0.214  -0.225  -1.925  0.00  0.00    +0.034 C 
ATOM     19  C   UNL     1      -0.065  -1.555  -2.706  0.00  0.00    +0.005 C 
ATOM     20  C   UNL     1       0.316  -2.563  -1.594  0.00  0.00    +0.029 C 
ATOM     21  C   UNL     1       1.249  -1.763  -0.660  0.00  0.00    +0.140 C 
BRANCH  17  23
ATOM     22  C   UNL     1       0.742   1.697   0.478  0.00  0.00    +0.194 C 
ATOM     23  O   UNL     1       0.460   0.301   0.355  0.00  0.00    -0.378 OA
ENDBRANCH  17  23
ENDBRANCH   1  21
TORSDOF 4
