REMARK  Name = ZINC12031887
REMARK  5 active torsions:
REMARK  status: ('A' for Active; 'I' for Inactive)
REMARK    1  A    between atoms: C_9  and  C_12
REMARK    2  A    between atoms: C_17  and  C_18
REMARK    3  A    between atoms: C_17  and  N_53
REMARK    4  A    between atoms: C_18  and  N_19
REMARK    5  A    between atoms: C_20  and  C_22
REMARK                            x       y       z     vdW  Elec       q    Type
REMARK                         _______ _______ _______ _____ _____    ______ ____
ROOT
ATOM      1  C   UNL     1       8.439  10.798   0.797  0.00  0.00    +0.000 A 
ATOM      2  C   UNL     1       9.752  11.079   0.465  0.00  0.00    +0.004 A 
ATOM      3  C   UNL     1      10.676  10.058   0.359  0.00  0.00    +0.046 A 
ATOM      4  C   UNL     1      10.281   8.747   0.586  0.00  0.00    +0.123 A 
ATOM      5  C   UNL     1       8.972   8.473   0.934  0.00  0.00    -0.022 A 
ATOM      6  C   UNL     1       8.047   9.492   1.034  0.00  0.00    +0.005 A 
ATOM      7  C   UNL     1       8.560   7.040   1.210  0.00  0.00    -0.039 C 
ATOM      8  C   UNL     1       9.951   5.785  -0.346  0.00  0.00    -0.028 C 
ATOM      9  C   UNL     1      10.941   6.875  -0.692  0.00  0.00    +0.188 C 
ATOM     10  O   UNL     1      11.171   7.729   0.436  0.00  0.00    -0.486 OA
ATOM     11  N   UNL     1       8.593   6.304  -0.076  0.00  0.00    +0.386 N 
ATOM     12  H   UNL     1       8.330   6.948  -0.831  0.00  0.00    -0.081 HD
ENDROOT
BRANCH   9  13
ATOM     13  C   UNL     1      12.245   6.246  -1.112  0.00  0.00    -0.002 A 
ATOM     14  C   UNL     1      12.553   6.098  -2.451  0.00  0.00    +0.015 A 
ATOM     15  C   UNL     1      13.733   5.528  -2.795  0.00  0.00    +0.045 A 
ATOM     16  S   UNL     1      14.453   5.178  -1.199  0.00  0.00    -0.105 S 
ATOM     17  C   UNL     1      13.134   5.821  -0.182  0.00  0.00    +0.052 A 
ENDBRANCH   9  13
BRANCH  11  18
ATOM     18  C   UNL     1       7.631   5.191  -0.043  0.00  0.00    -0.059 C 
BRANCH  18  19
ATOM     19  C   UNL     1       6.216   5.774  -0.026  0.00  0.00    +0.086 C 
BRANCH  19  20
ATOM     20  N   UNL     1       5.238   4.684  -0.023  0.00  0.00    -0.313 N 
ATOM     21  C   UNL     1       3.919   4.961  -0.009  0.00  0.00    +0.244 C 
ATOM     22  O   UNL     1       3.542   6.117   0.000  0.00  0.00    -0.270 OA
ATOM     23  H   UNL     1       5.539   3.762  -0.030  0.00  0.00    +0.149 HD
BRANCH  21  24
ATOM     24  C   UNL     1       2.933   3.862  -0.005  0.00  0.00    +0.037 A 
ATOM     25  C   UNL     1       3.369   2.530  -0.017  0.00  0.00    +0.015 A 
ATOM     26  C   UNL     1       2.472   1.504  -0.013  0.00  0.00    +0.027 A 
ATOM     27  C   UNL     1       1.103   1.769   0.001  0.00  0.00    +0.046 A 
ATOM     28  C   UNL     1       0.652   3.104   0.012  0.00  0.00    +0.000 A 
ATOM     29  C   UNL     1       1.572   4.150   0.009  0.00  0.00    +0.023 A 
ATOM     30  C   UNL     1      -0.812   3.036   0.025  0.00  0.00    +0.027 A 
ATOM     31  C   UNL     1      -1.143   1.736   0.016  0.00  0.00    +0.083 A 
ATOM     32  N   UNL     1      -0.011   0.966   0.007  0.00  0.00    -0.361 N 
ATOM     33  H   UNL     1       0.002  -0.004   0.002  0.00  0.00    +0.165 HD
ENDBRANCH  21  24
ENDBRANCH  19  20
ENDBRANCH  18  19
ENDBRANCH  11  18
TORSDOF 5
