REMARK  Name = ZINC05442296
REMARK  7 active torsions:
REMARK  status: ('A' for Active; 'I' for Inactive)
REMARK    1  A    between atoms: C_1  and  C_2
REMARK    2  A    between atoms: C_4  and  C_8
REMARK    3  A    between atoms: C_5  and  C_7
REMARK    4  A    between atoms: C_10  and  C_29
REMARK    5  A    between atoms: C_11  and  N_28
REMARK    6  A    between atoms: C_18  and  C_20
REMARK    7  A    between atoms: C_18  and  C_21
REMARK                            x       y       z     vdW  Elec       q    Type
REMARK                         _______ _______ _______ _____ _____    ______ ____
ROOT
ATOM      1  C   UNL     1      -2.176  -3.567  -0.213  0.00  0.00    +0.098 C 
ATOM      2  C   UNL     1      -2.800  -3.198   1.100  0.00  0.00    +0.077 C 
ATOM      3  C   UNL     1      -3.746  -2.228   1.180  0.00  0.00    +0.109 C 
ATOM      4  N   UNL     1      -4.156  -1.567   0.042  0.00  0.00    -0.229 N 
ATOM      5  C   UNL     1      -3.939  -2.115  -1.197  0.00  0.00    +0.028 C 
ATOM      6  C   UNL     1      -3.011  -3.077  -1.369  0.00  0.00    +0.025 C 
ATOM      7  C   UNL     1      -2.794  -3.654  -2.633  0.00  0.00    +0.162 C 
ATOM      8  O   UNL     1      -1.946  -4.515  -2.757  0.00  0.00    -0.292 OA
ATOM      9  C   UNL     1      -3.593  -3.227  -3.834  0.00  0.00    +0.086 C 
ATOM     10  C   UNL     1      -4.967  -2.733  -3.369  0.00  0.00    -0.023 C 
ATOM     11  C   UNL     1      -4.760  -1.609  -2.357  0.00  0.00    +0.058 C 
ATOM     12  C   UNL     1      -5.757  -2.207  -4.569  0.00  0.00    +0.011 C 
ATOM     13  C   UNL     1      -5.731  -3.884  -2.710  0.00  0.00    +0.011 C 
ATOM     14  C   UNL     1      -4.794  -0.338   0.151  0.00  0.00    +0.223 A 
ATOM     15  H   UNL     1      -4.976   0.317  -1.817  0.00  0.00    +0.192 HD
ATOM     16  N   UNL     1      -5.172   0.242   1.269  0.00  0.00    -0.201 NA
ATOM     17  C   UNL     1      -5.751   1.411   0.996  0.00  0.00    +0.246 A 
ATOM     18  N   UNL     1      -5.752   1.596  -0.298  0.00  0.00    -0.160 NA
ATOM     19  N   UNL     1      -5.130   0.476  -0.872  0.00  0.00    -0.246 N 
ENDROOT
BRANCH   1  23
ATOM     20  C   UNL     1       1.030   0.388  -0.289  0.00  0.00    +0.051 C 
ATOM     21  C   UNL     1       0.602  -1.057  -0.323  0.00  0.00    -0.013 A 
ATOM     22  C   UNL     1      -0.646  -1.579  -0.244  0.00  0.00    +0.015 A 
ATOM     23  C   UNL     1      -0.804  -2.951  -0.298  0.00  0.00    -0.025 A 
ATOM     24  C   UNL     1       0.295  -3.734  -0.428  0.00  0.00    -0.009 A 
ATOM     25  S   UNL     1       1.606  -2.524  -0.485  0.00  0.00    -0.098 S 
ATOM     26  C   UNL     1       0.386  -5.236  -0.509  0.00  0.00    +0.052 C 
ENDBRANCH   1  23
BRANCH   3  27
ATOM     27  N   UNL     1      -4.297  -1.904   2.397  0.00  0.00    -0.345 N 
ATOM     28  H   UNL     1      -3.869  -2.199   3.216  0.00  0.00    +0.144 HD
ATOM     29  H   UNL     1      -5.112  -1.380   2.437  0.00  0.00    +0.144 HD
ENDBRANCH   3  27
BRANCH   2  30
ATOM     30  C   UNL     1      -2.392  -3.882   2.291  0.00  0.00    +0.099 C 
ATOM     31  N   UNL     1      -2.067  -4.424   3.235  0.00  0.00    -0.191 NA
ENDBRANCH   2  30
TORSDOF 3
