REMARK  Name = ZINC37861822
REMARK  4 active torsions:
REMARK  status: ('A' for Active; 'I' for Inactive)
REMARK    1  A    between atoms: C_5  and  C_6
REMARK    2  A    between atoms: C_13  and  C_15
REMARK    3  A    between atoms: C_15  and  C_16
REMARK    4  A    between atoms: C_16  and  O_17
REMARK                            x       y       z     vdW  Elec       q    Type
REMARK                         _______ _______ _______ _____ _____    ______ ____
ROOT
ATOM      1  C   UNL     1      -1.126  -0.937  -0.020  0.00  0.00    +0.254 C 
ATOM      2  O   UNL     1      -2.252  -0.531   0.201  0.00  0.00    -0.269 OA
ATOM      3  N   UNL     1      -0.898  -2.261  -0.135  0.00  0.00    -0.294 N 
ATOM      4  C   UNL     1       0.475  -2.784  -0.165  0.00  0.00    +0.108 C 
ATOM      5  C   UNL     1       0.615  -3.863   0.913  0.00  0.00    +0.019 C 
ATOM      6  C   UNL     1      -0.467  -4.926   0.709  0.00  0.00    +0.003 C 
ATOM      7  C   UNL     1      -1.849  -4.282   0.847  0.00  0.00    +0.022 C 
ATOM      8  C   UNL     1      -2.017  -3.208  -0.226  0.00  0.00    +0.079 C 
ENDROOT
BRANCH   1  13
ATOM      9  C   UNL     1      -0.006   1.380   0.067  0.00  0.00    +0.022 A 
ATOM     10  C   UNL     1       1.194   2.010  -0.154  0.00  0.00    +0.028 A 
ATOM     11  C   UNL     1       2.258   1.276  -0.570  0.00  0.00    +0.079 A 
ATOM     12  S   UNL     1       1.661  -0.291  -0.673  0.00  0.00    -0.072 S 
ATOM     13  C   UNL     1      -0.019   0.012  -0.162  0.00  0.00    +0.075 A 
ATOM     14 CL   UNL     1       3.866   1.830  -0.916  0.00  0.00    -0.076 Cl
ENDBRANCH   1  13
BRANCH   8  15
ATOM     15  C   UNL     1      -3.337  -2.466  -0.004  0.00  0.00    +0.050 C 
BRANCH  15  16
ATOM     16  C   UNL     1      -4.501  -3.452  -0.114  0.00  0.00    +0.157 C 
BRANCH  16  17
ATOM     17  O   UNL     1      -5.725  -2.781   0.192  0.00  0.00    -0.395 OA
ATOM     18  H   UNL     1      -6.507  -3.346   0.142  0.00  0.00    +0.209 HD
ENDBRANCH  16  17
ENDBRANCH  15  16
ENDBRANCH   8  15
TORSDOF 4
