REMARK  Name = ZINC40701950
REMARK  7 active torsions:
REMARK  status: ('A' for Active; 'I' for Inactive)
REMARK    1  A    between atoms: C_1  and  C_2
REMARK    2  A    between atoms: C_2  and  C_3
REMARK    3  A    between atoms: C_11  and  N_29
REMARK    4  A    between atoms: C_12  and  N_16
REMARK    5  A    between atoms: N_16  and  C_17
REMARK    6  A    between atoms: N_16  and  C_19
REMARK    7  A    between atoms: C_17  and  C_18
REMARK                            x       y       z     vdW  Elec       q    Type
REMARK                         _______ _______ _______ _____ _____    ______ ____
ROOT
ATOM      1  C   UNL     1       1.994  -0.133   2.233  0.00  0.00    +0.075 C 
ATOM      2  C   UNL     1       0.670  -0.888   2.386  0.00  0.00    +0.022 C 
ATOM      3  C   UNL     1       0.894  -2.371   2.080  0.00  0.00    +0.003 C 
ATOM      4  C   UNL     1       1.375  -2.528   0.636  0.00  0.00    +0.019 C 
ATOM      5  C   UNL     1       2.707  -1.792   0.462  0.00  0.00    +0.107 C 
ATOM      6  N   UNL     1       2.540  -0.397   0.894  0.00  0.00    -0.311 N 
ATOM      7  C   UNL     1       2.887   0.652   0.052  0.00  0.00    +0.147 A 
ATOM      8  C   UNL     1       4.202   1.122   0.009  0.00  0.00    +0.104 A 
ATOM      9  C   UNL     1       4.496   2.178  -0.855  0.00  0.00    +0.129 A 
ATOM     10  N   UNL     1       3.520   2.693  -1.599  0.00  0.00    -0.332 N 
ATOM     11  C   UNL     1       2.292   2.221  -1.528  0.00  0.00    +0.200 A 
ATOM     12  N   UNL     1       1.973   1.222  -0.730  0.00  0.00    -0.221 NA
ATOM     13  H   UNL     1       3.716   3.428  -2.202  0.00  0.00    +0.168 HD
ENDROOT
BRANCH   8  14
ATOM     14  N   UNL     1       5.199   0.547   0.812  0.00  0.00    -0.353 N 
ATOM     15  H   UNL     1       4.961  -0.104   1.491  0.00  0.00    +0.143 HD
ATOM     16  H   UNL     1       6.127   0.802   0.689  0.00  0.00    +0.143 HD
ENDBRANCH   8  14
BRANCH   1  18
ATOM     17  C   UNL     1       1.312   1.655   3.838  0.00  0.00    +0.006 C 
ATOM     18  C   UNL     1       1.751   1.368   2.401  0.00  0.00    +0.019 C 
ENDBRANCH   1  18
BRANCH   9  19
ATOM     19  N   UNL     1       5.789   2.684  -0.936  0.00  0.00    -0.285 N 
BRANCH  19  20
ATOM     20  C   UNL     1       6.163   3.770  -0.148  0.00  0.00    +0.043 A 
ATOM     21  C   UNL     1       6.701   3.568   1.106  0.00  0.00    +0.024 A 
ATOM     22  C   UNL     1       7.077   4.646   1.901  0.00  0.00    +0.002 A 
ATOM     23  C   UNL     1       6.926   5.927   1.465  0.00  0.00    +0.008 A 
ATOM     24  C   UNL     1       6.382   6.177   0.194  0.00  0.00    -0.016 A 
ATOM     25  C   UNL     1       6.000   5.088  -0.627  0.00  0.00    +0.003 A 
ATOM     26  C   UNL     1       5.462   5.339  -1.899  0.00  0.00    +0.010 A 
ATOM     27  C   UNL     1       5.319   6.623  -2.329  0.00  0.00    +0.001 A 
ATOM     28  C   UNL     1       5.700   7.695  -1.524  0.00  0.00    +0.001 A 
ATOM     29  C   UNL     1       6.214   7.489  -0.281  0.00  0.00    +0.008 A 
ENDBRANCH  19  20
BRANCH  19  30
ATOM     30  C   UNL     1       6.757   2.075  -1.851  0.00  0.00    +0.109 C 
ATOM     31  C   UNL     1       6.742   2.826  -3.184  0.00  0.00    +0.025 C 
ENDBRANCH  19  30
ENDBRANCH   9  19
TORSDOF 5
