REMARK  Name = ZINC36792698
REMARK  7 active torsions:
REMARK  status: ('A' for Active; 'I' for Inactive)
REMARK    1  A    between atoms: CG1_1  and  CB_2
REMARK    2  A    between atoms: CB_2  and  CG2_3
REMARK    3  A    between atoms: CB_2  and  CA_4
REMARK    4  A    between atoms: CA_4  and  C_6
REMARK    5  A    between atoms: CA_4  and  N_17
REMARK    6  A    between atoms: CA_13  and  C_15
REMARK    7  A    between atoms: C_15  and  O_16
REMARK                            x       y       z     vdW  Elec       q    Type
REMARK                         _______ _______ _______ _____ _____    ______ ____
ROOT
ATOM      1  CA  LYS A   1      -1.678  -0.500   0.288  0.00  0.00    +0.163 C 
ENDROOT
BRANCH   1   2
ATOM      2  C   LYS A   1      -2.386   0.001  -0.944  0.00  0.00    +0.237 C 
ATOM      3  O   LYS A   1      -2.979  -0.776  -1.661  0.00  0.00    -0.274 OA
ATOM      4  N   LYS A   1      -2.361   1.314  -1.248  0.00  0.00    -0.295 N 
ATOM      5  CE  LYS A   1      -1.711   2.278  -0.351  0.00  0.00    +0.108 C 
ATOM      6  CD  LYS A   1      -0.691   3.091  -1.156  0.00  0.00    +0.019 C 
ATOM      7  CG  LYS A   1      -1.388   3.725  -2.362  0.00  0.00    +0.003 C 
ATOM      8  CB  LYS A   1      -1.951   2.625  -3.265  0.00  0.00    +0.025 C 
ATOM      9  CA  LYS A   1      -2.979   1.807  -2.487  0.00  0.00    +0.101 C 
BRANCH   9  10
ATOM     10  C   LYS A   1      -3.439   0.622  -3.338  0.00  0.00    +0.178 C 
BRANCH  10  11
ATOM     11  O   LYS A   1      -2.300  -0.134  -3.756  0.00  0.00    -0.393 OA
ATOM     12  H   LYS A   1      -2.517  -0.903  -4.301  0.00  0.00    +0.209 HD
ENDBRANCH  10  11
ENDBRANCH   9  10
ENDBRANCH   1   2
BRANCH   1  13
ATOM     13  N   LYS A   1      -2.437  -1.609   0.870  0.00  0.00    -0.288 N 
ATOM     14  C   UNK A   0      -2.319  -1.891   2.183  0.00  0.00    +0.298 C 
ATOM     15  O   UNK A   0      -1.583  -1.223   2.884  0.00  0.00    -0.253 OA
ATOM     16  N   UNK A   0      -3.017  -2.911   2.719  0.00  0.00    -0.313 N 
ATOM     17  H   LYS A   1      -3.024  -2.142   0.311  0.00  0.00    +0.151 HD
ATOM     18  H   UNK A   0      -3.604  -3.443   2.160  0.00  0.00    +0.146 HD
ATOM     19  H   UNK A   0      -2.932  -3.113   3.664  0.00  0.00    +0.146 HD
ENDBRANCH   1  13
BRANCH   1  21
ATOM     20  CG1 LYS A   1       0.471   0.136  -0.818  0.00  0.00    +0.009 C 
ATOM     21  CB  LYS A   1      -0.277  -0.984  -0.091  0.00  0.00    +0.012 C 
ATOM     22  CG2 LYS A   1       0.490  -1.371   1.175  0.00  0.00    +0.009 C 
ENDBRANCH   1  21
TORSDOF 5
