REMARK  Name = ZINC20727078
REMARK  3 active torsions:
REMARK  status: ('A' for Active; 'I' for Inactive)
REMARK    1  A    between atoms: C_8  and  C_25
REMARK    2  A    between atoms: C_9  and  N_24
REMARK    3  A    between atoms: N_10  and  C_17
REMARK                            x       y       z     vdW  Elec       q    Type
REMARK                         _______ _______ _______ _____ _____    ______ ____
ROOT
ATOM      1  C   UNL     1      -0.227   1.329  -1.671  0.00  0.00    +0.000 A 
ATOM      2  C   UNL     1       0.976   2.005  -1.677  0.00  0.00    +0.002 A 
ATOM      3  C   UNL     1       1.088   3.308  -1.219  0.00  0.00    +0.023 A 
ATOM      4  C   UNL     1      -0.073   3.921  -0.746  0.00  0.00    +0.038 A 
ATOM      5  C   UNL     1      -1.288   3.224  -0.745  0.00  0.00    -0.002 A 
ATOM      6  C   UNL     1      -1.392   1.930  -1.207  0.00  0.00    +0.007 A 
ATOM      7  C   UNL     1      -2.308   4.162  -0.183  0.00  0.00    +0.144 C 
ATOM      8  C   UNL     1      -3.393   4.446  -1.181  0.00  0.00    +0.089 C 
ATOM      9  C   UNL     1      -4.667   4.009  -1.023  0.00  0.00    +0.108 C 
ATOM     10  N   UNL     1      -5.060   3.274   0.081  0.00  0.00    -0.257 N 
ATOM     11  C   UNL     1      -4.206   3.209   1.147  0.00  0.00    +0.066 C 
ATOM     12  C   UNL     1      -2.910   3.612   1.083  0.00  0.00    +0.082 C 
ATOM     13  C   UNL     1      -2.305   3.425   2.334  0.00  0.00    +0.339 C 
ATOM     14  O   UNL     1      -1.147   3.698   2.588  0.00  0.00    -0.245 OA
ATOM     15  O   UNL     1      -3.179   2.902   3.219  0.00  0.00    -0.455 OA
ATOM     16  C   UNL     1      -4.436   2.723   2.548  0.00  0.00    +0.284 C 
ATOM     17  C   UNL     1      -1.531   5.426   0.119  0.00  0.00    +0.238 C 
ATOM     18  O   UNL     1      -1.975   6.451   0.591  0.00  0.00    -0.274 OA
ATOM     19  N   UNL     1      -0.250   5.196  -0.237  0.00  0.00    -0.284 N 
ATOM     20  H   UNL     1       0.607   5.882  -0.165  0.00  0.00    +0.155 HD
ENDROOT
BRANCH  10  21
ATOM     21  C   UNL     1      -6.296   2.617   0.107  0.00  0.00    +0.040 A 
ATOM     22  C   UNL     1      -7.412   3.254   0.633  0.00  0.00    +0.025 A 
ATOM     23  C   UNL     1      -8.632   2.606   0.651  0.00  0.00    +0.022 A 
ATOM     24  C   UNL     1      -8.740   1.318   0.157  0.00  0.00    +0.041 A 
ATOM     25  C   UNL     1      -7.628   0.678  -0.362  0.00  0.00    +0.022 A 
ATOM     26  C   UNL     1      -6.408   1.324  -0.389  0.00  0.00    +0.025 A 
ATOM     27 CL   UNL     1     -10.272   0.504   0.189  0.00  0.00    -0.084 Cl
ENDBRANCH  10  21
BRANCH   9  28
ATOM     28  N   UNL     1      -5.597   4.304  -1.991  0.00  0.00    -0.345 N 
ATOM     29  H   UNL     1      -6.636   3.958  -1.880  0.00  0.00    +0.144 HD
ATOM     30  H   UNL     1      -5.304   4.887  -2.876  0.00  0.00    +0.144 HD
ENDBRANCH   9  28
BRANCH   8  31
ATOM     31  C   UNL     1      -3.070   5.210  -2.349  0.00  0.00    +0.100 C 
ATOM     32  N   UNL     1      -2.813   5.815  -3.275  0.00  0.00    -0.191 NA
ENDBRANCH   8  31
TORSDOF 3
