REMARK  Name = ZINC66794440
REMARK  4 active torsions:
REMARK  status: ('A' for Active; 'I' for Inactive)
REMARK    1  A    between atoms: C_3  and  C_8
REMARK    2  A    between atoms: N_11  and  C_15
REMARK    3  A    between atoms: C_15  and  C_16
REMARK    4  A    between atoms: C_17  and  O_26
REMARK                            x       y       z     vdW  Elec       q    Type
REMARK                         _______ _______ _______ _____ _____    ______ ____
ROOT
ATOM      1  C   UNL     1       3.672   2.186  -0.021  0.00  0.00    +0.162 C 
ATOM      2  C   UNL     1       4.254   2.224   1.394  0.00  0.00    +0.121 C 
ATOM      3  N   UNL     1       5.552   2.912   1.366  0.00  0.00    -0.293 NA
ATOM      4  C   UNL     1       6.484   2.230   0.456  0.00  0.00    +0.113 C 
ATOM      5  C   UNL     1       5.880   2.192  -0.950  0.00  0.00    +0.176 C 
ATOM      6  O   UNL     1       4.604   1.548  -0.898  0.00  0.00    -0.369 OA
ENDROOT
BRANCH   1   9
ATOM      7  C   UNL     1      -0.017   1.377   0.010  0.00  0.00    +0.003 A 
ATOM      8  C   UNL     1       1.171   2.086   0.002  0.00  0.00    +0.006 A 
ATOM      9  C   UNL     1       2.378   1.413  -0.013  0.00  0.00    -0.015 A 
ATOM     10  C   UNL     1       2.399   0.030  -0.021  0.00  0.00    +0.044 A 
ATOM     11  C   UNL     1       1.211  -0.679  -0.013  0.00  0.00    +0.124 A 
ATOM     12  C   UNL     1       0.002  -0.004   0.002  0.00  0.00    +0.038 A 
ATOM     13  F   UNL     1       1.230  -2.030  -0.022  0.00  0.00    -0.205 F 
ENDBRANCH   1   9
BRANCH   3  14
ATOM     14  C   UNL     1       6.120   3.020   2.717  0.00  0.00    +0.124 C 
BRANCH  14  15
ATOM     15  C   UNL     1       7.316   3.936   2.687  0.00  0.00    +0.017 A 
ATOM     16  C   UNL     1       8.564   3.432   2.447  0.00  0.00    +0.122 A 
ATOM     17  C   UNL     1       9.684   4.268   2.416  0.00  0.00    +0.046 A 
ATOM     18  C   UNL     1       9.564   5.608   2.624  0.00  0.00    +0.012 A 
ATOM     19  C   UNL     1       8.298   6.158   2.873  0.00  0.00    -0.014 A 
ATOM     20  C   UNL     1       7.158   5.313   2.900  0.00  0.00    +0.008 A 
ATOM     21  C   UNL     1       5.900   5.889   3.147  0.00  0.00    +0.119 A 
ATOM     22  N   UNL     1       5.801   7.183   3.340  0.00  0.00    -0.263 NA
ATOM     23  C   UNL     1       6.848   7.995   3.315  0.00  0.00    +0.111 A 
ATOM     24  C   UNL     1       8.111   7.535   3.094  0.00  0.00    +0.028 A 
BRANCH  16  25
ATOM     25  O   UNL     1       8.718   2.098   2.236  0.00  0.00    -0.506 OA
ATOM     26  H   UNL     1       8.646   1.836   1.308  0.00  0.00    +0.292 HD
ENDBRANCH  16  25
ENDBRANCH  14  15
ENDBRANCH   3  14
TORSDOF 4
