REMARK  Name = ZINC15053846
REMARK  9 active torsions:
REMARK  status: ('A' for Active; 'I' for Inactive)
REMARK    1  A    between atoms: C_1  and  C_2
REMARK    2  A    between atoms: C_2  and  O_4
REMARK    3  A    between atoms: O_4  and  C_5
REMARK    4  A    between atoms: C_8  and  C_23
REMARK    5  A    between atoms: C_9  and  C_20
REMARK    6  A    between atoms: C_9  and  O_22
REMARK    7  A    between atoms: C_10  and  C_19
REMARK    8  A    between atoms: C_13  and  C_17
REMARK    9  A    between atoms: C_13  and  C_18
REMARK                            x       y       z     vdW  Elec       q    Type
REMARK                         _______ _______ _______ _____ _____    ______ ____
ROOT
ATOM      1  C   UNL     1      -3.717   3.996   0.469  0.00  0.00    +0.204 C 
ATOM      2  C   UNL     1      -2.282   3.591   0.579  0.00  0.00    +0.027 C 
ATOM      3  C   UNL     1      -1.789   2.454   0.138  0.00  0.00    +0.030 C 
ATOM      4  C   UNL     1      -2.676   1.411  -0.464  0.00  0.00    +0.154 C 
ATOM      5  C   UNL     1      -4.087   1.518   0.138  0.00  0.00    +0.015 C 
ATOM      6  C   UNL     1      -4.661   2.912  -0.059  0.00  0.00    +0.049 C 
ATOM      7  C   UNL     1      -6.013   3.106   0.636  0.00  0.00    -0.028 C 
ATOM      8  C   UNL     1      -5.950   2.675   2.098  0.00  0.00    +0.007 C 
ATOM      9  C   UNL     1      -5.417   1.254   2.243  0.00  0.00    +0.001 C 
ATOM     10  C   UNL     1      -4.025   1.157   1.620  0.00  0.00    +0.010 C 
ATOM     11  C   UNL     1      -6.391   4.605   0.607  0.00  0.00    +0.011 C 
ATOM     12  C   UNL     1      -7.153   2.380  -0.082  0.00  0.00    +0.011 C 
ATOM     13  C   UNL     1      -4.905   0.447  -0.602  0.00  0.00    +0.015 C 
ENDROOT
BRANCH   4  14
ATOM     14  C   UNL     1      -2.747   1.588  -1.955  0.00  0.00    +0.263 C 
ATOM     15  O   UNL     1      -3.776   1.954  -2.471  0.00  0.00    -0.298 OA
ENDBRANCH   4  14
BRANCH   4  16
ATOM     16  O   UNL     1      -2.151   0.114  -0.169  0.00  0.00    -0.376 OA
ATOM     17  H   UNL     1      -1.337  -0.098  -0.645  0.00  0.00    +0.211 HD
ENDBRANCH   4  16
BRANCH   3  18
ATOM     18  C   UNL     1      -0.358   2.199   0.248  0.00  0.00    +0.257 C 
ATOM     19  O   UNL     1       0.116   1.187  -0.225  0.00  0.00    -0.296 OA
ENDBRANCH   3  18
BRANCH   1  20
ATOM     20  O   UNL     1      -3.776   5.148  -0.426  0.00  0.00    -0.457 OA
BRANCH  20  22
ATOM     21  C   UNL     1      -3.716   7.598  -0.725  0.00  0.00    +0.136 C 
ATOM     22  C   UNL     1      -3.665   6.363   0.136  0.00  0.00    +0.305 C 
ATOM     23  O   UNL     1      -3.524   6.465   1.331  0.00  0.00    -0.251 OA
ENDBRANCH  20  22
ENDBRANCH   1  20
TORSDOF 5
