REMARK  Name = ZINC39531199
REMARK  3 active torsions:
REMARK  status: ('A' for Active; 'I' for Inactive)
REMARK    1  A    between atoms: C_1  and  C_2
REMARK    2  A    between atoms: C_4  and  C_9
REMARK    3  A    between atoms: C_5  and  C_8
REMARK                            x       y       z     vdW  Elec       q    Type
REMARK                         _______ _______ _______ _____ _____    ______ ____
ROOT
ATOM      1  C   UNL     1      -2.463  -0.320  -0.958  0.00  0.00    -0.017 A 
ATOM      2  C   UNL     1      -2.313  -0.827  -2.257  0.00  0.00    +0.010 A 
ATOM      3  C   UNL     1      -3.277  -0.628  -3.200  0.00  0.00    +0.029 A 
ATOM      4  C   UNL     1      -4.433   0.089  -2.878  0.00  0.00    +0.078 A 
ATOM      5  C   UNL     1      -4.594   0.604  -1.571  0.00  0.00    +0.065 A 
ATOM      6  C   UNL     1      -3.609   0.392  -0.612  0.00  0.00    +0.023 A 
ATOM      7  C   UNL     1      -5.823   1.353  -1.270  0.00  0.00    +0.259 A 
ATOM      8  O   UNL     1      -6.023   1.823  -0.165  0.00  0.00    -0.267 OA
ATOM      9  N   UNL     1      -6.723   1.501  -2.269  0.00  0.00    -0.313 N 
ATOM     10  H   UNL     1      -7.546   1.990  -2.107  0.00  0.00    +0.170 HD
ATOM     11  C   UNL     1      -6.486   0.971  -3.498  0.00  0.00    +0.199 A 
ATOM     12  N   UNL     1      -5.411   0.305  -3.793  0.00  0.00    -0.237 NA
ENDROOT
BRANCH   1  15
ATOM     13  C   UNL     1      -0.019   1.526   0.010  0.00  0.00    +0.046 C 
ATOM     14  C   UNL     1       0.002  -0.004   0.002  0.00  0.00    +0.178 C 
ATOM     15  C   UNL     1      -1.407  -0.548   0.046  0.00  0.00    +0.011 C 
ATOM     16  C   UNL     1      -1.521  -1.272   1.162  0.00  0.00    +0.042 C 
ATOM     17  N   UNL     1      -0.340  -1.272   1.870  0.00  0.00    -0.269 N 
ATOM     18  O   UNL     1       0.636  -0.500   1.190  0.00  0.00    -0.267 OA
ATOM     19  C   UNL     1      -2.774  -1.992   1.589  0.00  0.00    +0.066 C 
ATOM     20  H   UNL     1      -0.196  -1.734   2.711  0.00  0.00    +0.194 HD
ENDBRANCH   1  15
TORSDOF 1
