REMARK  Name = ZINC46919111
REMARK  7 active torsions:
REMARK  status: ('A' for Active; 'I' for Inactive)
REMARK    1  A    between atoms: C_4  and  C_7
REMARK    2  A    between atoms: C_7  and  C_9
REMARK    3  A    between atoms: C_7  and  N_14
REMARK    4  A    between atoms: N_17  and  C_18
REMARK    5  A    between atoms: C_18  and  C_19
REMARK    6  A    between atoms: C_24  and  C_25
REMARK    7  A    between atoms: C_25  and  N_26
REMARK                            x       y       z     vdW  Elec       q    Type
REMARK                         _______ _______ _______ _____ _____    ______ ____
ROOT
ATOM      1  N   UNL     1       3.630  -1.873   0.845  0.00  0.00    -0.288 N 
ATOM      2  C   UNL     1       4.751  -2.385   1.391  0.00  0.00    +0.301 C 
ATOM      3  O   UNL     1       5.830  -1.879   1.150  0.00  0.00    -0.253 OA
ATOM      4  N   UNL     1       4.677  -3.458   2.203  0.00  0.00    -0.295 N 
ATOM      5  H   UNL     1       2.769  -2.277   1.038  0.00  0.00    +0.151 HD
ATOM      6  H   UNL     1       3.816  -3.862   2.395  0.00  0.00    +0.151 HD
ENDROOT
BRANCH   1   7
ATOM      7  C   UNL     1       3.711  -0.707  -0.038  0.00  0.00    +0.142 C 
BRANCH   7  11
ATOM      8  C   UNL     1      -0.017   1.378   0.010  0.00  0.00    +0.000 A 
ATOM      9  C   UNL     1       1.171   2.086   0.002  0.00  0.00    +0.000 A 
ATOM     10  C   UNL     1       2.377   1.411  -0.013  0.00  0.00    +0.006 A 
ATOM     11  C   UNL     1       2.396   0.029  -0.020  0.00  0.00    -0.022 A 
ATOM     12  C   UNL     1       1.208  -0.679  -0.012  0.00  0.00    +0.006 A 
ATOM     13  C   UNL     1       0.002  -0.004   0.002  0.00  0.00    +0.000 A 
ENDBRANCH   7  11
BRANCH   7  14
ATOM     14  C   UNL     1       4.014  -1.161  -1.442  0.00  0.00    +0.014 A 
ATOM     15  C   UNL     1       4.843  -0.604  -2.359  0.00  0.00    +0.013 A 
ATOM     16  C   UNL     1       4.968  -1.200  -3.600  0.00  0.00    +0.008 A 
ATOM     17  C   UNL     1       4.257  -2.324  -3.864  0.00  0.00    +0.045 A 
ATOM     18  S   UNL     1       3.381  -2.575  -2.328  0.00  0.00    -0.099 S 
ENDBRANCH   7  14
ENDBRANCH   1   7
BRANCH   4  19
ATOM     19  C   UNL     1       5.896  -4.014   2.796  0.00  0.00    +0.141 C 
BRANCH  19  20
ATOM     20  C   UNL     1       5.540  -5.199   3.656  0.00  0.00    -0.029 A 
ATOM     21  C   UNL     1       5.446  -5.054   5.027  0.00  0.00    +0.005 A 
ATOM     22  C   UNL     1       5.120  -6.142   5.816  0.00  0.00    +0.000 A 
ATOM     23  C   UNL     1       4.888  -7.374   5.234  0.00  0.00    +0.000 A 
ATOM     24  C   UNL     1       4.982  -7.518   3.862  0.00  0.00    +0.002 A 
ATOM     25  C   UNL     1       5.304  -6.430   3.073  0.00  0.00    -0.059 A 
BRANCH  25  26
ATOM     26  C   UNL     1       5.401  -6.586   1.577  0.00  0.00    -0.043 C 
BRANCH  26  27
ATOM     27  N   UNL     1       6.812  -6.715   1.189  0.00  0.00    +0.382 N 
ATOM     28  C   UNL     1       7.360  -8.009   1.671  0.00  0.00    -0.078 C 
ATOM     29  C   UNL     1       8.581  -8.243   0.746  0.00  0.00    -0.020 C 
ATOM     30  C   UNL     1       8.086  -7.714  -0.620  0.00  0.00    -0.020 C 
ATOM     31  C   UNL     1       6.934  -6.749  -0.285  0.00  0.00    -0.078 C 
ATOM     32  H   UNL     1       7.348  -5.947   1.565  0.00  0.00    -0.081 HD
ENDBRANCH  26  27
ENDBRANCH  25  26
ENDBRANCH  19  20
ENDBRANCH   4  19
TORSDOF 7
