REMARK  Name = ZINC61874822
REMARK  6 active torsions:
REMARK  status: ('A' for Active; 'I' for Inactive)
REMARK    1  A    between atoms: C_1  and  C_2
REMARK    2  A    between atoms: C_9  and  N_12
REMARK    3  A    between atoms: N_12  and  C_13
REMARK    4  A    between atoms: C_13  and  C_15
REMARK    5  A    between atoms: C_13  and  C_16
REMARK    6  A    between atoms: C_19  and  C_21
REMARK                            x       y       z     vdW  Elec       q    Type
REMARK                         _______ _______ _______ _____ _____    ______ ____
ROOT
ATOM      1  C   UNL     1      -0.018   1.503   0.010  0.00  0.00    +0.065 C 
ATOM      2  C   UNL     1       0.002  -0.004   0.002  0.00  0.00    +0.039 A 
ATOM      3  C   UNL     1       0.005  -0.676  -1.219  0.00  0.00    +0.023 A 
ATOM      4  C   UNL     1       0.024  -2.041  -1.245  0.00  0.00    +0.012 A 
ATOM      5  C   UNL     1       0.040  -2.729  -0.016  0.00  0.00    +0.002 A 
ATOM      6  C   UNL     1       0.060  -4.133   0.034  0.00  0.00    +0.010 A 
ATOM      7  C   UNL     1       0.076  -4.769   1.237  0.00  0.00    +0.003 A 
ATOM      8  C   UNL     1       0.071  -4.049   2.429  0.00  0.00    +0.025 A 
ATOM      9  C   UNL     1       0.051  -2.672   2.421  0.00  0.00    +0.054 A 
ATOM     10  C   UNL     1       0.035  -1.983   1.187  0.00  0.00    +0.092 A 
ATOM     11  N   UNL     1       0.022  -0.648   1.143  0.00  0.00    -0.250 NA
ENDROOT
BRANCH   9  12
ATOM     12  N   UNL     1       0.045  -1.962   3.621  0.00  0.00    -0.333 N 
ATOM     13  H   UNL     1       0.031  -0.993   3.611  0.00  0.00    +0.147 HD
BRANCH  12  14
ATOM     14  C   UNL     1       0.061  -2.682   4.897  0.00  0.00    +0.133 C 
ATOM     15  C   UNL     1      -1.369  -3.063   5.286  0.00  0.00    +0.036 C 
BRANCH  14  16
ATOM     16  C   UNL     1       0.653  -1.798   5.965  0.00  0.00    +0.125 A 
ATOM     17  C   UNL     1       1.498  -2.194   6.934  0.00  0.00    +0.047 A 
ATOM     18  C   UNL     1       1.798  -1.049   7.708  0.00  0.00    +0.045 A 
ATOM     19  C   UNL     1       1.117  -0.023   7.166  0.00  0.00    +0.102 A 
ATOM     20  O   UNL     1       0.430  -0.482   6.107  0.00  0.00    -0.463 OA
ATOM     21  C   UNL     1       1.129   1.401   7.660  0.00  0.00    +0.086 C 
ENDBRANCH  14  16
ENDBRANCH  12  14
ENDBRANCH   9  12
TORSDOF 3
