REMARK  Name = ZINC65375457
REMARK  13 active torsions:
REMARK  status: ('A' for Active; 'I' for Inactive)
REMARK    1  A    between atoms: C_1  and  C_2
REMARK    2  A    between atoms: C_2  and  C_3
REMARK    3  A    between atoms: C_2  and  C_4
REMARK    4  A    between atoms: C_2  and  C_5
REMARK    5  A    between atoms: C_7  and  C_11
REMARK    6  A    between atoms: C_11  and  N_12
REMARK    7  A    between atoms: N_12  and  C_13
REMARK    8  A    between atoms: C_14  and  C_16
REMARK    9  A    between atoms: C_19  and  C_21
REMARK   10  A    between atoms: C_22  and  C_23
REMARK   11  A    between atoms: C_23  and  C_24
REMARK   12  A    between atoms: C_23  and  C_25
REMARK   13  A    between atoms: C_23  and  O_26
REMARK                            x       y       z     vdW  Elec       q    Type
REMARK                         _______ _______ _______ _____ _____    ______ ____
ROOT
ATOM      1  N   UNL     1       4.207  -2.603  -2.988  0.00  0.00    -0.292 N 
ATOM      2  C   UNL     1       3.998  -3.840  -3.745  0.00  0.00    +0.133 C 
ATOM      3  C   UNL     1       5.097  -2.576  -1.976  0.00  0.00    +0.282 C 
ATOM      4  O   UNL     1       5.202  -1.579  -1.285  0.00  0.00    -0.267 OA
ENDROOT
BRANCH   3   5
ATOM      5  C   UNL     1       5.937  -3.745  -1.707  0.00  0.00    +0.191 A 
ATOM      6  C   UNL     1       6.793  -3.895  -0.637  0.00  0.00    +0.056 A 
ATOM      7  C   UNL     1       7.391  -5.151  -0.769  0.00  0.00    +0.059 A 
ATOM      8  C   UNL     1       6.879  -5.722  -1.914  0.00  0.00    +0.179 A 
ATOM      9  O   UNL     1       6.001  -4.863  -2.461  0.00  0.00    -0.442 OA
BRANCH   8  10
ATOM     10  C   UNL     1       7.219  -7.013  -2.431  0.00  0.00    -0.026 C 
ATOM     11  C   UNL     1       7.498  -8.072  -2.855  0.00  0.00    -0.060 C 
BRANCH  11  12
ATOM     12  C   UNL     1       7.848  -9.399  -3.386  0.00  0.00    +0.121 C 
ATOM     13  C   UNL     1       7.060  -9.658  -4.672  0.00  0.00    +0.055 C 
ATOM     14  C   UNL     1       9.347  -9.449  -3.687  0.00  0.00    +0.055 C 
BRANCH  12  15
ATOM     15  O   UNL     1       7.522 -10.400  -2.419  0.00  0.00    -0.377 OA
ATOM     16  H   UNL     1       7.727 -11.302  -2.702  0.00  0.00    +0.211 HD
ENDBRANCH  12  15
ENDBRANCH  11  12
ENDBRANCH   8  10
ENDBRANCH   3   5
BRANCH   1  17
ATOM     17  C   UNL     1       3.450  -1.397  -3.331  0.00  0.00    +0.162 C 
BRANCH  17  20
ATOM     18  C   UNL     1       0.648  -0.948  -0.969  0.00  0.00    +0.068 A 
ATOM     19  C   UNL     1       1.971  -0.725  -1.364  0.00  0.00    +0.049 A 
ATOM     20  C   UNL     1       2.168  -1.367  -2.539  0.00  0.00    +0.054 A 
ATOM     21  N   UNL     1       1.011  -1.974  -2.875  0.00  0.00    -0.280 N 
ATOM     22  H   UNL     1       0.857  -2.509  -3.670  0.00  0.00    +0.189 HD
ATOM     23  N   UNL     1       0.073  -1.701  -1.871  0.00  0.00    -0.178 NA
BRANCH  18  25
ATOM     24  C   UNL     1      -0.307   1.072   0.108  0.00  0.00    +0.017 C 
ATOM     25  C   UNL     1      -0.001  -0.417   0.283  0.00  0.00    +0.006 C 
ATOM     26  C   UNL     1       0.947  -0.607   1.469  0.00  0.00    +0.017 C 
ATOM     27  C   UNL     1      -1.303  -1.178   0.544  0.00  0.00    +0.017 C 
ENDBRANCH  18  25
ENDBRANCH  17  20
ENDBRANCH   1  17
TORSDOF 7
