REMARK  Name = ZINC15971712
REMARK  11 active torsions:
REMARK  status: ('A' for Active; 'I' for Inactive)
REMARK    1  A    between atoms: C_1  and  C_2
REMARK    2  A    between atoms: C_12  and  C_22
REMARK    3  A    between atoms: C_15  and  C_18
REMARK    4  A    between atoms: C_18  and  C_19
REMARK    5  A    between atoms: C_19  and  S_20
REMARK    6  A    between atoms: S_20  and  C_21
REMARK    7  A    between atoms: N_24  and  C_25
REMARK    8  A    between atoms: C_27  and  O_33
REMARK    9  A    between atoms: C_30  and  O_31
REMARK   10  A    between atoms: O_31  and  C_32
REMARK   11  A    between atoms: O_33  and  C_34
REMARK                            x       y       z     vdW  Elec       q    Type
REMARK                         _______ _______ _______ _____ _____    ______ ____
ROOT
ATOM      1  C   UNL     1      -0.594   1.298  -0.077  0.00  0.00    +0.046 C 
ATOM      2  C   UNL     1      -0.450  -0.202  -0.040  0.00  0.00    -0.028 A 
ATOM      3  C   UNL     1      -0.454  -0.922  -1.217  0.00  0.00    +0.025 A 
ATOM      4  C   UNL     1      -0.323  -2.299  -1.194  0.00  0.00    +0.042 A 
ATOM      5  C   UNL     1      -0.188  -2.958   0.017  0.00  0.00    +0.027 A 
ATOM      6  C   UNL     1      -0.184  -2.242   1.193  0.00  0.00    +0.005 A 
ATOM      7  C   UNL     1      -0.308  -0.856   1.181  0.00  0.00    +0.042 A 
ATOM      8  N   UNL     1      -0.267  -0.357   2.485  0.00  0.00    -0.283 N 
ATOM      9  C   UNL     1      -0.116  -1.333   3.398  0.00  0.00    +0.243 C 
ATOM     10  O   UNL     1      -0.048  -1.194   4.601  0.00  0.00    -0.273 OA
ATOM     11  C   UNL     1      -0.060  -2.635   2.640  0.00  0.00    +0.135 C 
ATOM     12  C   UNL     1       1.277  -3.345   2.902  0.00  0.00    +0.110 C 
ATOM     13  C   UNL     1       0.898  -4.414   3.963  0.00  0.00    +0.034 C 
ATOM     14  C   UNL     1      -0.533  -4.807   3.517  0.00  0.00    +0.056 C 
ATOM     15  N   UNL     1      -1.141  -3.544   3.041  0.00  0.00    -0.296 NA
ATOM     16 CL   UNL     1      -0.328  -3.199  -2.679  0.00  0.00    -0.084 Cl
ATOM     17  H   UNL     1      -0.339   0.585   2.706  0.00  0.00    +0.155 HD
ATOM     18  H   UNL     1      -1.717  -3.127   3.757  0.00  0.00    +0.123 HD
ENDROOT
BRANCH  12  19
ATOM     19  C   UNL     1       1.792  -3.995   1.644  0.00  0.00    +0.223 C 
ATOM     20  O   UNL     1       1.427  -5.113   1.345  0.00  0.00    -0.275 OA
ATOM     21  N   UNL     1       2.658  -3.334   0.850  0.00  0.00    -0.282 N 
ATOM     22  H   UNL     1       2.998  -2.467   1.119  0.00  0.00    +0.155 HD
BRANCH  21  23
ATOM     23  C   UNL     1       3.066  -3.900  -0.365  0.00  0.00    +0.079 A 
ATOM     24  C   UNL     1       3.086  -5.279  -0.517  0.00  0.00    +0.072 A 
ATOM     25  C   UNL     1       3.491  -5.836  -1.720  0.00  0.00    +0.122 A 
ATOM     26  C   UNL     1       3.876  -5.016  -2.771  0.00  0.00    +0.049 A 
ATOM     27  C   UNL     1       3.857  -3.642  -2.622  0.00  0.00    +0.051 A 
ATOM     28  C   UNL     1       3.447  -3.080  -1.424  0.00  0.00    +0.141 A 
BRANCH  28  29
ATOM     29  O   UNL     1       3.423  -1.727  -1.280  0.00  0.00    -0.493 OA
ATOM     30  C   UNL     1       3.827  -0.948  -2.408  0.00  0.00    +0.277 C 
ENDBRANCH  28  29
BRANCH  25  31
ATOM     31  O   UNL     1       3.512  -7.188  -1.870  0.00  0.00    -0.495 OA
ATOM     32  C   UNL     1       3.940  -7.694  -3.136  0.00  0.00    +0.277 C 
ENDBRANCH  25  31
ENDBRANCH  21  23
ENDBRANCH  12  19
BRANCH  14  33
ATOM     33  C   UNL     1      -1.324  -5.369   4.700  0.00  0.00    +0.029 C 
BRANCH  33  34
ATOM     34  C   UNL     1      -2.687  -5.864   4.213  0.00  0.00    +0.070 C 
BRANCH  34  35
ATOM     35  S   UNL     1      -3.625  -6.530   5.615  0.00  0.00    -0.164 S 
ATOM     36  C   UNL     1      -5.193  -7.067   4.879  0.00  0.00    +0.084 C 
ENDBRANCH  34  35
ENDBRANCH  33  34
ENDBRANCH  14  33
TORSDOF 7
