REMARK  Name = ZINC13461524
REMARK  7 active torsions:
REMARK  status: ('A' for Active; 'I' for Inactive)
REMARK    1  A    between atoms: C_6  and  C_7
REMARK    2  A    between atoms: C_7  and  C_9
REMARK    3  A    between atoms: C_7  and  N_12
REMARK    4  A    between atoms: N_15  and  C_18
REMARK    5  A    between atoms: C_21  and  C_27
REMARK    6  A    between atoms: C_23  and  N_24
REMARK    7  A    between atoms: C_28  and  C_29
REMARK                            x       y       z     vdW  Elec       q    Type
REMARK                         _______ _______ _______ _____ _____    ______ ____
ROOT
ATOM      1  N   UNL     1      -1.162  -1.942   0.893  0.00  0.00    -0.285 NA
ATOM      2  C   UNL     1      -0.750  -1.537   2.244  0.00  0.00    +0.104 C 
ATOM      3  C   UNL     1      -0.451  -2.786   3.079  0.00  0.00    +0.120 C 
ATOM      4  N   UNL     1      -1.621  -3.675   3.026  0.00  0.00    -0.326 N 
ATOM      5  C   UNL     1      -2.176  -4.017   1.708  0.00  0.00    +0.120 C 
ATOM      6  C   UNL     1      -2.408  -2.719   0.927  0.00  0.00    +0.104 C 
ENDROOT
BRANCH   4   7
ATOM      7  C   UNL     1      -2.187  -4.180   4.192  0.00  0.00    +0.060 A 
ATOM      8  C   UNL     1      -3.205  -3.475   4.830  0.00  0.00    +0.026 A 
ATOM      9  C   UNL     1      -3.764  -3.967   5.975  0.00  0.00    +0.010 A 
ATOM     10  C   UNL     1      -3.312  -5.182   6.507  0.00  0.00    -0.023 A 
ATOM     11  C   UNL     1      -2.288  -5.887   5.862  0.00  0.00    +0.042 A 
ATOM     12  C   UNL     1      -1.738  -5.390   4.714  0.00  0.00    +0.148 A 
BRANCH  12  13
ATOM     13  N   UNL     1      -0.660  -6.137   4.028  0.00  0.00    +0.058 N 
ATOM     14  O   UNL     1      -0.270  -7.188   4.481  0.00  0.00    -0.126 OA
ATOM     15  O   UNL     1      -0.170  -5.696   3.015  0.00  0.00    -0.126 OA
ENDBRANCH  12  13
BRANCH  10  16
ATOM     16  C   UNL     1      -3.910  -5.714   7.738  0.00  0.00    +0.015 C 
ATOM     17  C   UNL     1      -4.899  -5.031   8.360  0.00  0.00    +0.096 C 
BRANCH  17  18
ATOM     18  C   UNL     1      -5.474  -5.543   9.544  0.00  0.00    +0.380 C 
ATOM     19  O   UNL     1      -5.078  -6.606  10.008  0.00  0.00    -0.241 OA
ATOM     20  O   UNL     1      -6.370  -4.925  10.108  0.00  0.00    -0.241 OA
ENDBRANCH  17  18
ENDBRANCH  10  16
ENDBRANCH   4   7
BRANCH   1  21
ATOM     21  C   UNL     1      -1.293  -0.775   0.011  0.00  0.00    +0.174 C 
BRANCH  21  27
ATOM     22  C   UNL     1      -0.017   1.378   0.010  0.00  0.00    +0.007 A 
ATOM     23  C   UNL     1       1.171   2.086   0.002  0.00  0.00    +0.020 A 
ATOM     24  C   UNL     1       2.378   1.410  -0.013  0.00  0.00    +0.041 A 
ATOM     25  C   UNL     1       2.396   0.027  -0.021  0.00  0.00    +0.020 A 
ATOM     26  C   UNL     1       1.208  -0.679  -0.013  0.00  0.00    +0.007 A 
ATOM     27  C   UNL     1       0.002  -0.004   0.002  0.00  0.00    -0.021 A 
ATOM     28 CL   UNL     1       3.870   2.298  -0.023  0.00  0.00    -0.084 Cl
ENDBRANCH  21  27
BRANCH  21  29
ATOM     29  C   UNL     1      -1.612  -1.236  -1.388  0.00  0.00    +0.232 C 
ATOM     30  O   UNL     1      -1.720  -2.421  -1.626  0.00  0.00    -0.274 OA
ATOM     31  N   UNL     1      -1.778  -0.333  -2.374  0.00  0.00    -0.328 N 
ATOM     32  H   UNL     1      -1.691   0.614  -2.184  0.00  0.00    +0.145 HD
ATOM     33  H   UNL     1      -1.983  -0.630  -3.275  0.00  0.00    +0.145 HD
ENDBRANCH  21  29
ENDBRANCH   1  21
TORSDOF 7
