REMARK  Name = ZINC13056587
REMARK  11 active torsions:
REMARK  status: ('A' for Active; 'I' for Inactive)
REMARK    1  A    between atoms: C_1  and  C_2
REMARK    2  A    between atoms: C_2  and  C_3
REMARK    3  A    between atoms: C_3  and  C_5
REMARK    4  A    between atoms: C_3  and  C_6
REMARK    5  A    between atoms: C_9  and  N_12
REMARK    6  A    between atoms: C_13  and  C_37
REMARK    7  A    between atoms: C_14  and  C_29
REMARK    8  A    between atoms: C_15  and  C_20
REMARK    9  A    between atoms: C_23  and  O_27
REMARK   10  A    between atoms: C_24  and  O_26
REMARK   11  A    between atoms: O_27  and  C_28
REMARK                            x       y       z     vdW  Elec       q    Type
REMARK                         _______ _______ _______ _____ _____    ______ ____
ROOT
ATOM      1  N   UNL     1      -2.854   2.447   7.275  0.00  0.00    -0.255 N 
ATOM      2  C   UNL     1      -2.929   3.776   7.586  0.00  0.00    +0.025 C 
ATOM      3  C   UNL     1      -3.680   4.208   8.622  0.00  0.00    +0.056 C 
ATOM      4  C   UNL     1      -4.426   3.169   9.434  0.00  0.00    +0.139 C 
ATOM      5  N   UNL     1      -4.274   1.764   9.020  0.00  0.00    -0.315 N 
ATOM      6  C   UNL     1      -3.492   1.488   7.958  0.00  0.00    +0.142 C 
ATOM      7  S   UNL     1      -3.307  -0.141   7.466  0.00  0.00    -0.018 S 
ATOM      8  C   UNL     1      -2.166   4.776   6.756  0.00  0.00    +0.062 C 
ATOM      9  H   UNL     1      -4.727   1.053   9.501  0.00  0.00    +0.149 HD
ENDROOT
BRANCH   3  10
ATOM     10  C   UNL     1      -3.762   5.586   8.942  0.00  0.00    +0.246 C 
ATOM     11  O   UNL     1      -3.080   6.044   9.840  0.00  0.00    -0.270 OA
ATOM     12  N   UNL     1      -4.596   6.389   8.252  0.00  0.00    -0.293 N 
ATOM     13  C   UNL     1      -5.485   5.845   7.213  0.00  0.00    +0.136 C 
ATOM     14  C   UNL     1      -6.910   6.350   7.489  0.00  0.00    +0.179 C 
ATOM     15  O   UNL     1      -6.886   7.773   7.621  0.00  0.00    -0.377 OA
ATOM     16  C   UNL     1      -6.104   8.245   8.721  0.00  0.00    +0.179 C 
ATOM     17  C   UNL     1      -4.641   7.837   8.512  0.00  0.00    +0.136 C 
ENDBRANCH   3  10
BRANCH   1  21
ATOM     18  C   UNL     1      -0.497   1.317   4.030  0.00  0.00    -0.044 A 
ATOM     19  C   UNL     1      -0.009   1.184   5.316  0.00  0.00    +0.006 A 
ATOM     20  C   UNL     1      -0.786   1.563   6.394  0.00  0.00    +0.024 A 
ATOM     21  C   UNL     1      -2.062   2.067   6.184  0.00  0.00    +0.040 A 
ATOM     22  C   UNL     1      -2.552   2.195   4.891  0.00  0.00    +0.024 A 
ATOM     23  C   UNL     1      -1.768   1.819   3.818  0.00  0.00    +0.006 A 
BRANCH  18  24
ATOM     24  C   UNL     1       0.355   0.909   2.856  0.00  0.00    +0.016 C 
ATOM     25  C   UNL     1       0.706  -0.576   2.973  0.00  0.00    +0.012 C 
BRANCH  24  27
ATOM     26  C   UNL     1       2.449   1.412   1.588  0.00  0.00    +0.004 C 
ATOM     27  C   UNL     1       1.641   1.738   2.847  0.00  0.00    +0.004 C 
ENDBRANCH  24  27
ENDBRANCH  18  24
ENDBRANCH   1  21
BRANCH   4  28
ATOM     28  C   UNL     1      -3.970   3.283  10.866  0.00  0.00    -0.019 A 
ATOM     29  C   UNL     1      -2.791   2.682  11.264  0.00  0.00    +0.009 A 
ATOM     30  C   UNL     1      -2.368   2.784  12.576  0.00  0.00    +0.050 A 
ATOM     31  C   UNL     1      -3.126   3.491  13.495  0.00  0.00    +0.161 A 
ATOM     32  C   UNL     1      -4.313   4.097  13.094  0.00  0.00    +0.159 A 
ATOM     33  C   UNL     1      -4.729   3.994  11.776  0.00  0.00    +0.055 A 
BRANCH  32  34
ATOM     34  O   UNL     1      -5.061   4.791  13.993  0.00  0.00    -0.503 OA
ATOM     35  H   UNL     1      -4.887   5.742  13.998  0.00  0.00    +0.292 HD
ENDBRANCH  32  34
BRANCH  31  36
ATOM     36  O   UNL     1      -2.711   3.594  14.787  0.00  0.00    -0.491 OA
ATOM     37  C   UNL     1      -1.483   2.948  15.126  0.00  0.00    +0.277 C 
ENDBRANCH  31  36
ENDBRANCH   4  28
TORSDOF 7
