REMARK  Name = ZINC12554731
REMARK  7 active torsions:
REMARK  status: ('A' for Active; 'I' for Inactive)
REMARK    1  A    between atoms: C_1  and  C_2
REMARK    2  A    between atoms: C_3  and  C_30
REMARK    3  A    between atoms: C_7  and  N_16
REMARK    4  A    between atoms: C_9  and  C_11
REMARK    5  A    between atoms: C_11  and  N_55
REMARK    6  A    between atoms: N_16  and  C_17
REMARK    7  A    between atoms: C_26  and  C_29
REMARK                            x       y       z     vdW  Elec       q    Type
REMARK                         _______ _______ _______ _____ _____    ______ ____
ROOT
ATOM      1  C   UNL     1      -1.305   3.962   0.335  0.00  0.00    +0.045 C 
ATOM      2  C   UNL     1       0.123   4.435   0.246  0.00  0.00    -0.028 A 
ATOM      3  C   UNL     1       0.397   5.735   0.066  0.00  0.00    -0.008 A 
ATOM      4  S   UNL     1       2.179   5.785   0.028  0.00  0.00    -0.074 S 
ATOM      5  C   UNL     1       2.507   4.057   0.256  0.00  0.00    +0.114 A 
ATOM      6  C   UNL     1       1.219   3.488   0.355  0.00  0.00    +0.051 A 
ATOM      7  C   UNL     1       1.188   2.079   0.546  0.00  0.00    +0.135 A 
ATOM      8  N   UNL     1       2.329   1.413   0.621  0.00  0.00    -0.219 NA
ATOM      9  C   UNL     1       3.501   2.012   0.514  0.00  0.00    +0.116 A 
ATOM     10  N   UNL     1       3.594   3.316   0.337  0.00  0.00    -0.227 NA
ATOM     11  C   UNL     1      -0.571   6.882  -0.073  0.00  0.00    +0.052 C 
ENDROOT
BRANCH   7  12
ATOM     12  N   UNL     1      -0.020   1.413   0.657  0.00  0.00    -0.299 N 
ATOM     13  H   UNL     1      -0.849   1.916   0.694  0.00  0.00    +0.154 HD
BRANCH  12  14
ATOM     14  C   UNL     1      -0.047   0.015   0.710  0.00  0.00    +0.034 A 
ATOM     15  C   UNL     1       0.899  -0.724   0.011  0.00  0.00    +0.027 A 
ATOM     16  C   UNL     1       0.880  -2.106   0.065  0.00  0.00    +0.049 A 
ATOM     17  C   UNL     1      -0.089  -2.755   0.809  0.00  0.00    +0.143 A 
ATOM     18  C   UNL     1      -1.043  -2.017   1.508  0.00  0.00    +0.077 A 
ATOM     19  C   UNL     1      -1.021  -0.633   1.458  0.00  0.00    +0.050 A 
ATOM     20  N   UNL     1      -2.019  -2.690   2.256  0.00  0.00    -0.279 N 
ATOM     21  C   UNL     1      -1.837  -3.997   2.544  0.00  0.00    +0.258 C 
ATOM     22  O   UNL     1      -2.682  -4.607   3.165  0.00  0.00    -0.271 OA
ATOM     23  C   UNL     1      -0.579  -4.694   2.093  0.00  0.00    +0.256 C 
ATOM     24  O   UNL     1      -0.122  -4.115   0.868  0.00  0.00    -0.478 OA
ATOM     25  C   UNL     1       0.502  -4.539   3.164  0.00  0.00    +0.062 C 
ATOM     26  H   UNL     1      -2.813  -2.225   2.561  0.00  0.00    +0.155 HD
ENDBRANCH  12  14
ENDBRANCH   7  12
BRANCH   9  27
ATOM     27  C   UNL     1       4.760   1.189   0.603  0.00  0.00    -0.001 C 
BRANCH  27  32
ATOM     28  C   UNL     1       4.087   0.637   2.877  0.00  0.00    -0.078 C 
ATOM     29  C   UNL     1       4.825   0.117   4.136  0.00  0.00    -0.020 C 
ATOM     30  C   UNL     1       6.095  -0.538   3.547  0.00  0.00    -0.020 C 
ATOM     31  C   UNL     1       6.282   0.117   2.165  0.00  0.00    -0.078 C 
ATOM     32  N   UNL     1       5.199   1.093   2.028  0.00  0.00    +0.384 N 
ATOM     33  H   UNL     1       5.521   2.015   2.344  0.00  0.00    -0.081 HD
ENDBRANCH  27  32
ENDBRANCH   9  27
TORSDOF 4
