REMARK  Name = ZINC60213016
REMARK  10 active torsions:
REMARK  status: ('A' for Active; 'I' for Inactive)
REMARK    1  A    between atoms: C_1  and  C_2
REMARK    2  A    between atoms: C_2  and  C_4
REMARK    3  A    between atoms: C_2  and  N_15
REMARK    4  A    between atoms: C_7  and  N_10
REMARK    5  A    between atoms: N_15  and  C_16
REMARK    6  A    between atoms: N_19  and  C_20
REMARK    7  A    between atoms: C_20  and  C_21
REMARK    8  A    between atoms: C_21  and  C_22
REMARK    9  A    between atoms: C_21  and  C_23
REMARK   10  A    between atoms: C_21  and  C_24
REMARK                            x       y       z     vdW  Elec       q    Type
REMARK                         _______ _______ _______ _____ _____    ______ ____
ROOT
ATOM      1  N   UNL     1       0.820  -0.441  -1.214  0.00  0.00    -0.282 N 
ATOM      2  C   UNL     1       0.543   0.071  -2.558  0.00  0.00    +0.134 C 
ATOM      3  C   UNL     1       1.830  -1.312  -1.019  0.00  0.00    +0.302 C 
ATOM      4  O   UNL     1       2.059  -1.737   0.097  0.00  0.00    -0.253 OA
ATOM      5  N   UNL     1       2.584  -1.714  -2.062  0.00  0.00    -0.298 N 
ATOM      6  H   UNL     1       2.401  -1.375  -2.952  0.00  0.00    +0.150 HD
ENDROOT
BRANCH   1   8
ATOM      7  C   UNL     1       0.007   1.524  -0.005  0.00  0.00    +0.033 C 
ATOM      8  C   UNL     1       0.000  -0.005  -0.081  0.00  0.00    +0.104 C 
BRANCH   8   9
ATOM      9  C   UNL     1      -1.413  -0.492  -0.267  0.00  0.00    -0.027 A 
ATOM     10  C   UNL     1      -1.652  -1.672  -0.948  0.00  0.00    +0.007 A 
ATOM     11  C   UNL     1      -2.947  -2.122  -1.119  0.00  0.00    +0.028 A 
ATOM     12  C   UNL     1      -4.009  -1.388  -0.608  0.00  0.00    +0.067 A 
ATOM     13  C   UNL     1      -3.766  -0.204   0.075  0.00  0.00    +0.028 A 
ATOM     14  C   UNL     1      -2.469   0.238   0.248  0.00  0.00    +0.007 A 
BRANCH  12  15
ATOM     15  N   UNL     1      -5.324  -1.842  -0.781  0.00  0.00    -0.220 N 
ATOM     16  C   UNL     1      -6.449  -1.241  -0.349  0.00  0.00    +0.225 A 
ATOM     17  N   UNL     1      -7.468  -1.979  -0.710  0.00  0.00    -0.222 NA
ATOM     18  C   UNL     1      -7.036  -3.054  -1.370  0.00  0.00    +0.245 A 
ATOM     19  N   UNL     1      -5.731  -3.011  -1.444  0.00  0.00    -0.154 NA
ENDBRANCH  12  15
ENDBRANCH   8   9
ENDBRANCH   1   8
BRANCH   5  20
ATOM     20  C   UNL     1       3.681  -2.661  -1.850  0.00  0.00    +0.116 C 
BRANCH  20  21
ATOM     21  C   UNL     1       4.372  -2.948  -3.185  0.00  0.00    +0.006 C 
ATOM     22  C   UNL     1       3.361  -3.549  -4.163  0.00  0.00    +0.017 C 
ATOM     23  C   UNL     1       4.928  -1.645  -3.762  0.00  0.00    +0.017 C 
BRANCH  21  24
ATOM     24  C   UNL     1       5.500  -3.923  -2.967  0.00  0.00    -0.037 A 
ATOM     25  C   UNL     1       5.757  -4.410  -1.699  0.00  0.00    +0.008 A 
ATOM     26  C   UNL     1       6.792  -5.303  -1.495  0.00  0.00    +0.050 A 
ATOM     27  C   UNL     1       7.575  -5.714  -2.563  0.00  0.00    +0.162 A 
ATOM     28  C   UNL     1       7.316  -5.227  -3.838  0.00  0.00    +0.162 A 
ATOM     29  C   UNL     1       6.273  -4.334  -4.037  0.00  0.00    +0.053 A 
ATOM     30  O   UNL     1       8.067  -5.623  -4.902  0.00  0.00    -0.485 OA
ATOM     31  C   UNL     1       9.329  -6.231  -4.606  0.00  0.00    +0.270 C 
ATOM     32  C   UNL     1       9.115  -7.267  -3.495  0.00  0.00    +0.270 C 
ATOM     33  O   UNL     1       8.593  -6.590  -2.346  0.00  0.00    -0.485 OA
ENDBRANCH  21  24
ENDBRANCH  20  21
ENDBRANCH   5  20
TORSDOF 6
