REMARK  Name = ZINC49150516
REMARK  8 active torsions:
REMARK  status: ('A' for Active; 'I' for Inactive)
REMARK    1  A    between atoms: C_1  and  C_2
REMARK    2  A    between atoms: C_2  and  C_4
REMARK    3  A    between atoms: C_2  and  N_10
REMARK    4  A    between atoms: C_4  and  N_5
REMARK    5  A    between atoms: N_10  and  S_11
REMARK    6  A    between atoms: S_11  and  C_14
REMARK    7  A    between atoms: C_17  and  N_22
REMARK    8  A    between atoms: C_19  and  C_20
REMARK                            x       y       z     vdW  Elec       q    Type
REMARK                         _______ _______ _______ _____ _____    ______ ____
ROOT
ATOM      1  S   UNL     1       2.288  -0.978   1.069  0.00  0.00    +0.060 S 
ATOM      2  O   UNL     1       2.751  -1.546   2.287  0.00  0.00    -0.153 OA
ATOM      3  O   UNL     1       2.271  -1.704  -0.152  0.00  0.00    -0.153 OA
ENDROOT
BRANCH   1   4
ATOM      4  C   UNL     1       3.260   0.464   0.785  0.00  0.00    +0.123 A 
ATOM      5  C   UNL     1       3.853   0.665  -0.445  0.00  0.00    +0.031 A 
ATOM      6  C   UNL     1       4.617   1.794  -0.674  0.00  0.00    +0.025 A 
ATOM      7  C   UNL     1       4.793   2.735   0.334  0.00  0.00    +0.026 A 
ATOM      8  C   UNL     1       4.202   2.543   1.573  0.00  0.00    +0.043 A 
ATOM      9  C   UNL     1       3.426   1.406   1.802  0.00  0.00    +0.080 A 
BRANCH   7  10
ATOM     10  N   UNL     1       5.566   3.874   0.098  0.00  0.00    -0.358 N 
ATOM     11  H   UNL     1       5.980   4.009  -0.769  0.00  0.00    +0.142 HD
ATOM     12  H   UNL     1       5.689   4.531   0.801  0.00  0.00    +0.142 HD
ENDBRANCH   7  10
BRANCH   9  13
ATOM     13  C   UNL     1       2.807   1.203   3.077  0.00  0.00    +0.101 C 
ATOM     14  N   UNL     1       2.316   1.042   4.089  0.00  0.00    -0.191 NA
ENDBRANCH   9  13
ENDBRANCH   1   4
BRANCH   1  15
ATOM     15  N   UNL     1       0.734  -0.475   1.342  0.00  0.00    -0.189 NA
ATOM     16  H   UNL     1       0.325  -0.615   2.211  0.00  0.00    +0.148 HD
BRANCH  15  18
ATOM     17  C   UNL     1       0.054   1.699   0.451  0.00  0.00    +0.024 C 
ATOM     18  C   UNL     1      -0.022   0.181   0.273  0.00  0.00    +0.057 C 
BRANCH  18  19
ATOM     19  C   UNL     1      -1.484  -0.267   0.333  0.00  0.00    -0.059 C 
BRANCH  19  20
ATOM     20  N   UNL     1      -1.549  -1.734   0.282  0.00  0.00    +0.381 N 
ATOM     21  C   UNL     1      -0.996  -2.315   1.532  0.00  0.00    -0.079 C 
ATOM     22  C   UNL     1      -1.630  -3.728   1.576  0.00  0.00    -0.020 C 
ATOM     23  C   UNL     1      -3.055  -3.485   1.029  0.00  0.00    -0.020 C 
ATOM     24  C   UNL     1      -2.958  -2.179   0.218  0.00  0.00    -0.079 C 
ATOM     25  H   UNL     1      -1.039  -2.077  -0.518  0.00  0.00    -0.082 HD
ENDBRANCH  19  20
ENDBRANCH  18  19
ENDBRANCH  15  18
ENDBRANCH   1  15
TORSDOF 7
