REMARK  Name = ZINC40798956
REMARK  4 active torsions:
REMARK  status: ('A' for Active; 'I' for Inactive)
REMARK    1  A    between atoms: C_1  and  C_2
REMARK    2  A    between atoms: C_10  and  N_26
REMARK    3  A    between atoms: C_11  and  S_15
REMARK    4  A    between atoms: S_15  and  C_16
REMARK                            x       y       z     vdW  Elec       q    Type
REMARK                         _______ _______ _______ _____ _____    ______ ____
ROOT
ATOM      1  C   UNL     1      -0.705   1.499  -0.206  0.00  0.00    +0.045 C 
ATOM      2  C   UNL     1      -0.576   0.002  -0.084  0.00  0.00    -0.032 A 
ATOM      3  C   UNL     1      -0.505  -0.596   1.167  0.00  0.00    +0.008 A 
ATOM      4  C   UNL     1      -0.388  -1.972   1.235  0.00  0.00    +0.044 A 
ATOM      5  C   UNL     1      -0.345  -2.707   0.054  0.00  0.00    +0.124 A 
ATOM      6  N   UNL     1      -0.416  -2.099  -1.120  0.00  0.00    -0.240 NA
ATOM      7  C   UNL     1      -0.534  -0.788  -1.215  0.00  0.00    +0.116 A 
ATOM      8  N   UNL     1      -0.228  -4.092   0.107  0.00  0.00    -0.283 N 
ATOM      9  C   UNL     1      -0.294  -4.841  -1.063  0.00  0.00    +0.149 A 
ATOM     10  C   UNL     1      -0.287  -6.237  -1.013  0.00  0.00    +0.098 A 
ATOM     11  C   UNL     1      -0.356  -6.940  -2.217  0.00  0.00    +0.127 A 
ATOM     12  N   UNL     1      -0.426  -6.258  -3.359  0.00  0.00    -0.227 NA
ATOM     13  C   UNL     1      -0.431  -4.941  -3.361  0.00  0.00    +0.224 A 
ATOM     14  N   UNL     1      -0.372  -4.239  -2.247  0.00  0.00    -0.219 NA
ATOM     15  H   UNL     1      -0.099  -4.535   0.960  0.00  0.00    +0.155 HD
ENDROOT
BRANCH  10  16
ATOM     16  N   UNL     1      -0.211  -6.913   0.214  0.00  0.00    -0.353 N 
ATOM     17  H   UNL     1      -0.163  -6.412   1.043  0.00  0.00    +0.142 HD
ATOM     18  H   UNL     1      -0.206  -7.883   0.234  0.00  0.00    +0.142 HD
ENDBRANCH  10  16
BRANCH  11  19
ATOM     19  S   UNL     1      -0.349  -8.702  -2.226  0.00  0.00    -0.066 S 
BRANCH  19  20
ATOM     20  C   UNL     1      -0.302  -9.120  -3.937  0.00  0.00    +0.040 A 
ATOM     21  C   UNL     1       0.871  -9.564  -4.512  0.00  0.00    +0.017 A 
ATOM     22  C   UNL     1       0.921  -9.897  -5.862  0.00  0.00    +0.002 A 
ATOM     23  C   UNL     1      -0.184  -9.793  -6.651  0.00  0.00    +0.010 A 
ATOM     24  C   UNL     1      -1.397  -9.345  -6.104  0.00  0.00    +0.001 A 
ATOM     25  C   UNL     1      -1.466  -9.007  -4.730  0.00  0.00    +0.085 A 
ATOM     26  N   UNL     1      -2.618  -8.585  -4.205  0.00  0.00    -0.254 NA
ATOM     27  C   UNL     1      -3.702  -8.478  -4.936  0.00  0.00    +0.111 A 
ATOM     28  C   UNL     1      -3.705  -8.799  -6.292  0.00  0.00    +0.020 A 
ATOM     29  C   UNL     1      -2.556  -9.226  -6.894  0.00  0.00    +0.011 A 
ENDBRANCH  19  20
ENDBRANCH  11  19
TORSDOF 3
