REMARK  Name = ZINC35780368
REMARK  7 active torsions:
REMARK  status: ('A' for Active; 'I' for Inactive)
REMARK    1  A    between atoms: C_1  and  C_2
REMARK    2  A    between atoms: C_2  and  O_3
REMARK    3  A    between atoms: O_3  and  C_4
REMARK    4  A    between atoms: C_4  and  C_6
REMARK    5  A    between atoms: C_9  and  N_12
REMARK    6  A    between atoms: C_30  and  C_38
REMARK    7  A    between atoms: C_32  and  C_37
REMARK                            x       y       z     vdW  Elec       q    Type
REMARK                         _______ _______ _______ _____ _____    ______ ____
ROOT
ATOM      1  N   UNL     1       3.369  -3.896  -5.888  0.00  0.00    -0.210 N 
ATOM      2  C   UNL     1       3.822  -3.124  -6.883  0.00  0.00    +0.232 C 
ATOM      3  O   UNL     1       3.735  -1.916  -6.927  0.00  0.00    -0.274 OA
ATOM      4  C   UNL     1       4.460  -3.993  -7.942  0.00  0.00    +0.107 C 
ATOM      5  C   UNL     1       3.608  -3.946  -9.224  0.00  0.00    +0.071 C 
ATOM      6  C   UNL     1       2.806  -2.633  -9.255  0.00  0.00    +0.021 C 
ATOM      7  C   UNL     1       1.461  -2.955  -8.574  0.00  0.00    +0.017 C 
ATOM      8  C   UNL     1       1.565  -4.435  -8.156  0.00  0.00    +0.086 C 
ATOM      9  N   UNL     1       2.602  -5.040  -9.067  0.00  0.00    -0.281 NA
ATOM     10  C   UNL     1       3.334  -6.117  -8.380  0.00  0.00    +0.138 C 
ATOM     11  C   UNL     1       4.292  -5.430  -7.377  0.00  0.00    +0.123 C 
ATOM     12  C   UNL     1       3.585  -5.205  -6.059  0.00  0.00    +0.233 C 
ATOM     13  O   UNL     1       3.263  -6.076  -5.280  0.00  0.00    -0.274 OA
ATOM     14  C   UNL     1       2.395  -7.061  -7.681  0.00  0.00    +0.004 A 
ATOM     15  C   UNL     1       1.447  -6.896  -6.696  0.00  0.00    +0.011 A 
ATOM     16  C   UNL     1       0.722  -7.984  -6.245  0.00  0.00    -0.050 A 
ATOM     17  C   UNL     1       0.950  -9.236  -6.787  0.00  0.00    +0.008 A 
ATOM     18  C   UNL     1       1.897  -9.405  -7.775  0.00  0.00    -0.029 A 
ATOM     19  C   UNL     1       2.633  -8.315  -8.234  0.00  0.00    +0.042 A 
ATOM     20  N   UNL     1       3.631  -8.231  -9.208  0.00  0.00    -0.283 N 
ATOM     21  C   UNL     1       4.094  -6.975  -9.354  0.00  0.00    +0.243 C 
ATOM     22  O   UNL     1       4.957  -6.607 -10.123  0.00  0.00    -0.273 OA
ATOM     23  C   UNL     1       2.138 -10.773  -8.359  0.00  0.00    +0.045 C 
ATOM     24  C   UNL     1      -0.315  -7.807  -5.165  0.00  0.00    +0.044 C 
ATOM     25  H   UNL     1       3.952  -8.990  -9.720  0.00  0.00    +0.155 HD
ENDROOT
BRANCH   1  29
ATOM     26  C   UNL     1       1.454  -2.346  -2.525  0.00  0.00    +0.059 A 
ATOM     27  C   UNL     1       2.811  -2.087  -2.741  0.00  0.00    +0.017 A 
ATOM     28  C   UNL     1       3.440  -2.600  -3.853  0.00  0.00    +0.025 A 
ATOM     29  C   UNL     1       2.727  -3.376  -4.760  0.00  0.00    +0.044 A 
ATOM     30  C   UNL     1       1.377  -3.637  -4.549  0.00  0.00    +0.025 A 
ATOM     31  C   UNL     1       0.743  -3.131  -3.436  0.00  0.00    +0.017 A 
BRANCH  26  32
ATOM     32  C   UNL     1       0.777  -1.797  -1.335  0.00  0.00    +0.339 C 
ATOM     33  O   UNL     1      -0.401  -2.028  -1.146  0.00  0.00    -0.245 OA
BRANCH  32  34
ATOM     34  O   UNL     1       1.464  -1.041  -0.457  0.00  0.00    -0.461 OA
BRANCH  34  36
ATOM     35  C   UNL     1       1.684   0.288   1.549  0.00  0.00    +0.048 C 
ATOM     36  C   UNL     1       0.745  -0.542   0.673  0.00  0.00    +0.229 C 
ENDBRANCH  34  36
ENDBRANCH  32  34
ENDBRANCH  26  32
ENDBRANCH   1  29
TORSDOF 4
