REMARK  Name = ZINC04546263
REMARK  7 active torsions:
REMARK  status: ('A' for Active; 'I' for Inactive)
REMARK    1  A    between atoms: C_1  and  C_2
REMARK    2  A    between atoms: C_2  and  C_4
REMARK    3  A    between atoms: C_2  and  O_16
REMARK    4  A    between atoms: N_9  and  C_10
REMARK    5  A    between atoms: O_16  and  C_17
REMARK    6  A    between atoms: C_17  and  C_19
REMARK    7  A    between atoms: C_19  and  C_20
REMARK                            x       y       z     vdW  Elec       q    Type
REMARK                         _______ _______ _______ _____ _____    ______ ____
ROOT
ATOM      1  C   UNL     1      -0.019   1.526   0.010  0.00  0.00    +0.062 C 
ATOM      2  C   UNL     1       0.002  -0.004   0.002  0.00  0.00    +0.259 C 
ENDROOT
BRANCH   2   3
ATOM      3  C   UNL     1       0.731  -0.503   1.223  0.00  0.00    +0.261 C 
ATOM      4  O   UNL     1       1.774  -1.109   1.101  0.00  0.00    -0.271 OA
ATOM      5  N   UNL     1       0.223  -0.277   2.451  0.00  0.00    -0.237 N 
ATOM      6  C   UNL     1       0.875  -0.723   3.542  0.00  0.00    +0.306 C 
ATOM      7  O   UNL     1       1.921  -1.330   3.420  0.00  0.00    -0.252 OA
ATOM      8  N   UNL     1       0.367  -0.496   4.770  0.00  0.00    -0.296 N 
ATOM      9  H   UNL     1      -0.611   0.208   2.548  0.00  0.00    +0.159 HD
ATOM     10  H   UNL     1      -0.467  -0.011   4.868  0.00  0.00    +0.151 HD
BRANCH   8  11
ATOM     11  C   UNL     1       1.076  -0.981   5.957  0.00  0.00    +0.074 C 
ATOM     12  C   UNL     1       0.685  -2.436   6.225  0.00  0.00    +0.022 C 
ATOM     13  C   UNL     1       1.425  -2.943   7.464  0.00  0.00    +0.002 C 
ATOM     14  C   UNL     1       1.047  -2.083   8.672  0.00  0.00    +0.000 C 
ATOM     15  C   UNL     1       1.437  -0.628   8.404  0.00  0.00    +0.002 C 
ATOM     16  C   UNL     1       0.697  -0.121   7.164  0.00  0.00    +0.022 C 
ENDBRANCH   8  11
ENDBRANCH   2   3
BRANCH   2  17
ATOM     17  O   UNL     1       0.671  -0.465  -1.174  0.00  0.00    -0.452 OA
BRANCH  17  18
ATOM     18  C   UNL     1      -0.085  -0.672  -2.263  0.00  0.00    +0.309 C 
ATOM     19  O   UNL     1      -1.276  -0.469  -2.220  0.00  0.00    -0.251 OA
BRANCH  18  20
ATOM     20  C   UNL     1       0.551  -1.158  -3.540  0.00  0.00    +0.144 C 
BRANCH  20  21
ATOM     21  C   UNL     1      -0.524  -1.312  -4.619  0.00  0.00    +0.148 C 
ATOM     22  C   UNL     1       0.087  -1.903  -5.862  0.00  0.00    +0.231 C 
ATOM     23  O   UNL     1      -0.035  -3.095  -6.054  0.00  0.00    -0.274 OA
ATOM     24  N   UNL     1       0.754  -1.184  -6.758  0.00  0.00    -0.284 N 
ATOM     25  C   UNL     1       0.898   0.200  -6.772  0.00  0.00    +0.047 A 
ATOM     26  C   UNL     1       1.893   0.772  -7.558  0.00  0.00    +0.024 A 
ATOM     27  C   UNL     1       2.062   2.142  -7.581  0.00  0.00    +0.002 A 
ATOM     28  C   UNL     1       1.246   2.962  -6.824  0.00  0.00    +0.001 A 
ATOM     29  C   UNL     1       0.251   2.408  -6.040  0.00  0.00    +0.016 A 
ATOM     30  C   UNL     1       0.074   1.034  -6.017  0.00  0.00    +0.030 A 
ATOM     31  S   UNL     1      -1.214   0.320  -5.031  0.00  0.00    -0.110 S 
ATOM     32  H   UNL     1       1.185  -1.673  -7.477  0.00  0.00    +0.155 HD
ENDBRANCH  20  21
ENDBRANCH  18  20
ENDBRANCH  17  18
ENDBRANCH   2  17
TORSDOF 6
