REMARK  Name = ZINC09092740
REMARK  6 active torsions:
REMARK  status: ('A' for Active; 'I' for Inactive)
REMARK    1  A    between atoms: C_1  and  C_2
REMARK    2  A    between atoms: C_2  and  C_22
REMARK    3  A    between atoms: N_5  and  C_9
REMARK    4  A    between atoms: C_9  and  C_10
REMARK    5  A    between atoms: N_15  and  C_16
REMARK    6  A    between atoms: C_16  and  C_17
REMARK                            x       y       z     vdW  Elec       q    Type
REMARK                         _______ _______ _______ _____ _____    ______ ____
ROOT
ATOM      1  C   UNL     1      -3.805  -1.891  -1.102  0.00  0.00    +0.047 C 
ATOM      2  C   UNL     1      -4.082  -0.468  -0.615  0.00  0.00    +0.135 C 
ATOM      3  C   UNL     1      -3.008   0.487  -1.096  0.00  0.00    +0.251 C 
ATOM      4  O   UNL     1      -2.725   0.754  -2.244  0.00  0.00    -0.272 OA
ATOM      5  N   UNL     1      -2.430   0.977   0.019  0.00  0.00    -0.215 N 
ATOM      6  C   UNL     1      -2.990   0.475   1.126  0.00  0.00    +0.310 C 
ATOM      7  O   UNL     1      -2.642   0.770   2.252  0.00  0.00    -0.252 OA
ATOM      8  N   UNL     1      -3.981  -0.393   0.852  0.00  0.00    -0.281 N 
ATOM      9  H   UNL     1      -4.523  -0.875   1.496  0.00  0.00    +0.152 HD
ENDROOT
BRANCH   2  10
ATOM     10  C   UNL     1      -5.441  -0.006  -1.077  0.00  0.00    -0.012 A 
ATOM     11  C   UNL     1      -5.576   0.622  -2.301  0.00  0.00    +0.010 A 
ATOM     12  C   UNL     1      -6.821   1.043  -2.731  0.00  0.00    +0.050 A 
ATOM     13  C   UNL     1      -7.934   0.845  -1.931  0.00  0.00    +0.166 A 
ATOM     14  C   UNL     1      -7.797   0.216  -0.696  0.00  0.00    +0.167 A 
ATOM     15  C   UNL     1      -6.547  -0.208  -0.274  0.00  0.00    +0.055 A 
ATOM     16  O   UNL     1      -9.025   0.141  -0.106  0.00  0.00    -0.453 OA
ATOM     17  C   UNL     1      -9.975   0.360  -1.165  0.00  0.00    +0.466 C 
ATOM     18  O   UNL     1      -9.249   1.163  -2.115  0.00  0.00    -0.453 OA
ENDBRANCH   2  10
BRANCH   5  19
ATOM     19  C   UNL     1      -1.330   1.944   0.019  0.00  0.00    +0.214 C 
BRANCH  19  20
ATOM     20  C   UNL     1      -0.014   1.208   0.009  0.00  0.00    +0.238 C 
ATOM     21  O   UNL     1       0.002  -0.004   0.002  0.00  0.00    -0.274 OA
ATOM     22  N   UNL     1       1.143   1.898   0.001  0.00  0.00    -0.239 N 
ATOM     23  C   UNL     1       2.320   1.240  -0.013  0.00  0.00    +0.306 C 
ATOM     24  O   UNL     1       2.336   0.025  -0.020  0.00  0.00    -0.252 OA
ATOM     25  N   UNL     1       3.478   1.930  -0.021  0.00  0.00    -0.292 N 
ATOM     26  H   UNL     1       1.130   2.868   0.007  0.00  0.00    +0.159 HD
ATOM     27  H   UNL     1       3.465   2.900  -0.015  0.00  0.00    +0.151 HD
BRANCH  25  28
ATOM     28  C   UNL     1       4.756   1.214  -0.037  0.00  0.00    +0.180 C 
BRANCH  28  29
ATOM     29  C   UNL     1       5.888   2.209  -0.042  0.00  0.00    +0.122 A 
ATOM     30  C   UNL     1       6.489   2.723   1.046  0.00  0.00    +0.046 A 
ATOM     31  C   UNL     1       7.489   3.608   0.582  0.00  0.00    +0.041 A 
ATOM     32  C   UNL     1       7.439   3.582  -0.762  0.00  0.00    +0.195 A 
ATOM     33  O   UNL     1       6.471   2.729  -1.135  0.00  0.00    -0.466 OA
ENDBRANCH  28  29
ENDBRANCH  25  28
ENDBRANCH  19  20
ENDBRANCH   5  19
TORSDOF 5
