REMARK  Name = ZINC02700174
REMARK  10 active torsions:
REMARK  status: ('A' for Active; 'I' for Inactive)
REMARK    1  A    between atoms: C_1  and  C_2
REMARK    2  A    between atoms: N_8  and  C_9
REMARK    3  A    between atoms: C_9  and  C_10
REMARK    4  A    between atoms: C_19  and  C_27
REMARK    5  A    between atoms: C_21  and  C_25
REMARK    6  A    between atoms: C_22  and  N_24
REMARK    7  A    between atoms: C_30  and  O_35
REMARK    8  A    between atoms: C_31  and  O_33
REMARK    9  A    between atoms: O_33  and  C_34
REMARK   10  A    between atoms: O_35  and  C_36
REMARK                            x       y       z     vdW  Elec       q    Type
REMARK                         _______ _______ _______ _____ _____    ______ ____
ROOT
ATOM      1  C   UNL     1      -4.198   9.381  -2.457  0.00  0.00    +0.064 C 
ATOM      2  C   UNL     1      -3.363   8.781  -1.356  0.00  0.00    +0.023 A 
ATOM      3  C   UNL     1      -2.018   8.774  -1.468  0.00  0.00    +0.068 A 
ATOM      4  C   UNL     1      -1.232   8.213  -0.440  0.00  0.00    +0.141 A 
ATOM      5  C   UNL     1      -1.860   7.681   0.665  0.00  0.00    +0.072 A 
ATOM      6  C   UNL     1      -3.259   7.710   0.739  0.00  0.00    +0.259 A 
ATOM      7  O   UNL     1      -3.828   7.241   1.712  0.00  0.00    -0.267 OA
ATOM      8  N   UNL     1      -3.975   8.254  -0.263  0.00  0.00    -0.308 N 
ATOM      9  C   UNL     1      -1.061   7.072   1.785  0.00  0.00    +0.103 C 
ATOM     10  C   UNL     1       0.377   7.502   1.684  0.00  0.00    +0.098 C 
ATOM     11  C   UNL     1       0.875   8.034   0.545  0.00  0.00    +0.199 C 
ATOM     12  O   UNL     1       0.114   8.205  -0.550  0.00  0.00    -0.441 OA
ENDROOT
BRANCH   9  13
ATOM     13  C   UNL     1      -1.140   5.570   1.697  0.00  0.00    -0.031 A 
ATOM     14  C   UNL     1      -0.679   4.920   0.568  0.00  0.00    +0.008 A 
ATOM     15  C   UNL     1      -0.744   3.541   0.485  0.00  0.00    +0.050 A 
ATOM     16  C   UNL     1      -1.284   2.809   1.530  0.00  0.00    +0.162 A 
ATOM     17  C   UNL     1      -1.749   3.464   2.667  0.00  0.00    +0.162 A 
ATOM     18  C   UNL     1      -1.675   4.845   2.746  0.00  0.00    +0.054 A 
BRANCH  17  19
ATOM     19  O   UNL     1      -2.275   2.749   3.697  0.00  0.00    -0.491 OA
ATOM     20  C   UNL     1      -2.732   3.488   4.832  0.00  0.00    +0.277 C 
ENDBRANCH  17  19
BRANCH  16  21
ATOM     21  O   UNL     1      -1.355   1.454   1.448  0.00  0.00    -0.491 OA
ATOM     22  C   UNL     1      -0.858   0.850   0.251  0.00  0.00    +0.277 C 
ENDBRANCH  16  21
ENDBRANCH   9  13
BRANCH  11  23
ATOM     23  N   UNL     1       2.194   8.410   0.505  0.00  0.00    -0.328 N 
ATOM     24  H   UNL     1       2.565   8.793  -0.305  0.00  0.00    +0.145 HD
ATOM     25  H   UNL     1       2.756   8.293   1.287  0.00  0.00    +0.145 HD
ENDBRANCH  11  23
BRANCH  10  26
ATOM     26  C   UNL     1       1.238   7.345   2.817  0.00  0.00    +0.101 C 
ATOM     27  N   UNL     1       1.922   7.220   3.715  0.00  0.00    -0.191 NA
ENDBRANCH  10  26
BRANCH   8  28
ATOM     28  C   UNL     1      -5.437   8.278  -0.173  0.00  0.00    +0.160 C 
BRANCH  28  29
ATOM     29  C   UNL     1      -5.873   9.509   0.579  0.00  0.00    -0.024 A 
ATOM     30  C   UNL     1      -6.126  10.683  -0.106  0.00  0.00    +0.009 A 
ATOM     31  C   UNL     1      -6.527  11.814   0.579  0.00  0.00    +0.050 A 
ATOM     32  C   UNL     1      -6.676  11.775   1.956  0.00  0.00    +0.166 A 
ATOM     33  C   UNL     1      -6.421  10.592   2.647  0.00  0.00    +0.167 A 
ATOM     34  C   UNL     1      -6.025   9.460   1.952  0.00  0.00    +0.055 A 
ATOM     35  O   UNL     1      -6.637  10.809   3.977  0.00  0.00    -0.453 OA
ATOM     36  C   UNL     1      -6.631  12.239   4.140  0.00  0.00    +0.466 C 
ATOM     37  O   UNL     1      -7.052  12.732   2.854  0.00  0.00    -0.453 OA
ENDBRANCH  28  29
ENDBRANCH   8  28
TORSDOF 7
