REMARK  Name = ZINC15988792
REMARK  8 active torsions:
REMARK  status: ('A' for Active; 'I' for Inactive)
REMARK    1  A    between atoms: C_1  and  C_2
REMARK    2  A    between atoms: C_5  and  C_17
REMARK    3  A    between atoms: C_7  and  S_8
REMARK    4  A    between atoms: S_8  and  N_11
REMARK    5  A    between atoms: N_19  and  C_20
REMARK    6  A    between atoms: C_20  and  C_21
REMARK    7  A    between atoms: C_21  and  C_23
REMARK    8  A    between atoms: C_21  and  N_65
REMARK                            x       y       z     vdW  Elec       q    Type
REMARK                         _______ _______ _______ _____ _____    ______ ____
ROOT
ATOM      1  C   UNL     1      -3.526   4.230  -2.578  0.00  0.00    +0.244 C 
ATOM      2  O   UNL     1      -3.180   3.910  -3.698  0.00  0.00    -0.270 OA
ATOM      3  N   UNL     1      -3.125   3.504  -1.515  0.00  0.00    -0.312 N 
ATOM      4  H   UNL     1      -3.400   3.760  -0.621  0.00  0.00    +0.149 HD
ENDROOT
BRANCH   1   9
ATOM      5  C   UNL     1      -6.871   8.849  -1.808  0.00  0.00    +0.046 C 
ATOM      6  C   UNL     1      -5.995   7.639  -2.009  0.00  0.00    -0.024 A 
ATOM      7  C   UNL     1      -5.586   6.896  -0.917  0.00  0.00    +0.006 A 
ATOM      8  C   UNL     1      -4.788   5.784  -1.095  0.00  0.00    +0.013 A 
ATOM      9  C   UNL     1      -4.385   5.417  -2.380  0.00  0.00    +0.039 A 
ATOM     10  C   UNL     1      -4.802   6.171  -3.478  0.00  0.00    +0.041 A 
ATOM     11  C   UNL     1      -5.604   7.277  -3.286  0.00  0.00    +0.109 A 
BRANCH  11  12
ATOM     12  S   UNL     1      -6.132   8.231  -4.670  0.00  0.00    +0.061 S 
ATOM     13  O   UNL     1      -5.960   9.596  -4.313  0.00  0.00    -0.153 OA
ATOM     14  O   UNL     1      -5.514   7.660  -5.816  0.00  0.00    -0.153 OA
BRANCH  12  15
ATOM     15  N   UNL     1      -7.761   7.988  -4.841  0.00  0.00    -0.177 NA
ATOM     16  C   UNL     1      -8.270   6.839  -5.603  0.00  0.00    +0.109 C 
ATOM     17  C   UNL     1      -9.256   6.063  -4.716  0.00  0.00    +0.017 C 
ATOM     18  C   UNL     1     -10.342   7.017  -4.215  0.00  0.00    +0.003 C 
ATOM     19  C   UNL     1      -9.704   8.123  -3.371  0.00  0.00    +0.017 C 
ATOM     20  C   UNL     1      -8.724   8.919  -4.238  0.00  0.00    +0.109 C 
ENDBRANCH  12  15
ENDBRANCH  11  12
ENDBRANCH   1   9
BRANCH   3  21
ATOM     21  C   UNL     1      -2.273   2.328  -1.711  0.00  0.00    +0.097 C 
BRANCH  21  22
ATOM     22  C   UNL     1      -1.966   1.690  -0.355  0.00  0.00    +0.016 C 
BRANCH  22  28
ATOM     23  C   UNL     1      -0.178   3.295  -0.061  0.00  0.00    -0.078 C 
ATOM     24  C   UNL     1       0.322   4.436   0.827  0.00  0.00    -0.019 C 
ATOM     25  C   UNL     1       0.644   3.889   2.220  0.00  0.00    -0.004 C 
ATOM     26  C   UNL     1      -0.609   3.228   2.802  0.00  0.00    -0.019 C 
ATOM     27  C   UNL     1      -1.082   2.122   1.857  0.00  0.00    -0.078 C 
ATOM     28  N   UNL     1      -1.398   2.718   0.541  0.00  0.00    +0.387 N 
ATOM     29  H   UNL     1      -2.091   3.465   0.672  0.00  0.00    -0.081 HD
ENDBRANCH  22  28
BRANCH  22  30
ATOM     30  C   UNL     1      -0.992   0.555  -0.544  0.00  0.00    +0.093 A 
ATOM     31  C   UNL     1      -1.282  -0.755  -0.450  0.00  0.00    +0.043 A 
ATOM     32  C   UNL     1      -0.084  -1.460  -0.704  0.00  0.00    +0.041 A 
ATOM     33  C   UNL     1       0.868  -0.538  -0.939  0.00  0.00    +0.195 A 
ATOM     34  O   UNL     1       0.312   0.680  -0.840  0.00  0.00    -0.469 OA
ENDBRANCH  22  30
ENDBRANCH  21  22
ENDBRANCH   3  21
TORSDOF 7
