REMARK  Name = ZINC06744940
REMARK  13 active torsions:
REMARK  status: ('A' for Active; 'I' for Inactive)
REMARK    1  A    between atoms: C_4  and  C_7
REMARK    2  A    between atoms: C_7  and  O_8
REMARK    3  A    between atoms: O_8  and  C_9
REMARK    4  A    between atoms: C_13  and  S_15
REMARK    5  A    between atoms: S_15  and  C_16
REMARK    6  A    between atoms: C_19  and  C_23
REMARK    7  A    between atoms: C_23  and  C_24
REMARK    8  A    between atoms: C_24  and  C_25
REMARK    9  A    between atoms: C_25  and  C_26
REMARK   10  A    between atoms: C_25  and  C_28
REMARK   11  A    between atoms: C_25  and  N_56
REMARK   12  A    between atoms: C_26  and  O_27
REMARK   13  A    between atoms: C_28  and  O_29
REMARK                            x       y       z     vdW  Elec       q    Type
REMARK                         _______ _______ _______ _____ _____    ______ ____
ROOT
ATOM      1  C   UNL     1       9.102  -3.555  -4.457  0.00  0.00    +0.014 A 
ATOM      2  C   UNL     1       9.556  -3.824  -3.171  0.00  0.00    +0.015 A 
ATOM      3  C   UNL     1      10.799  -4.394  -2.984  0.00  0.00    +0.006 A 
ATOM      4  C   UNL     1      11.600  -4.685  -4.074  0.00  0.00    -0.029 A 
ATOM      5  C   UNL     1      11.154  -4.412  -5.356  0.00  0.00    +0.045 A 
ATOM      6  C   UNL     1       9.908  -3.848  -5.550  0.00  0.00    +0.035 A 
ATOM      7 CL   UNL     1      12.162  -4.780  -6.721  0.00  0.00    -0.083 Cl
ENDROOT
BRANCH   1   8
ATOM      8  S   UNL     1       7.512  -2.836  -4.700  0.00  0.00    -0.089 S 
BRANCH   8  13
ATOM      9  C   UNL     1       6.855  -1.051  -1.152  0.00  0.00    +0.122 A 
ATOM     10  C   UNL     1       6.045  -1.971  -0.499  0.00  0.00    +0.046 A 
ATOM     11  C   UNL     1       5.687  -3.148  -1.128  0.00  0.00    +0.005 A 
ATOM     12  C   UNL     1       6.133  -3.414  -2.408  0.00  0.00    +0.015 A 
ATOM     13  C   UNL     1       6.943  -2.497  -3.067  0.00  0.00    +0.016 A 
ATOM     14  C   UNL     1       7.300  -1.311  -2.438  0.00  0.00    +0.060 A 
BRANCH   9  15
ATOM     15  O   UNL     1       7.206   0.106  -0.532  0.00  0.00    -0.487 OA
BRANCH  15  16
ATOM     16  C   UNL     1       6.706   0.311   0.791  0.00  0.00    +0.264 C 
BRANCH  16  20
ATOM     17  C   UNL     1       8.093   4.070   2.271  0.00  0.00    +0.000 A 
ATOM     18  C   UNL     1       8.840   2.926   2.482  0.00  0.00    +0.000 A 
ATOM     19  C   UNL     1       8.391   1.710   2.002  0.00  0.00    +0.007 A 
ATOM     20  C   UNL     1       7.195   1.637   1.313  0.00  0.00    -0.010 A 
ATOM     21  C   UNL     1       6.448   2.781   1.102  0.00  0.00    +0.007 A 
ATOM     22  C   UNL     1       6.897   3.998   1.581  0.00  0.00    +0.000 A 
ENDBRANCH  16  20
ENDBRANCH  15  16
ENDBRANCH   9  15
ENDBRANCH   8  13
ENDBRANCH   1   8
BRANCH   4  23
ATOM     23  C   UNL     1      12.959  -5.300  -3.865  0.00  0.00    +0.035 C 
BRANCH  23  24
ATOM     24  C   UNL     1      14.020  -4.198  -3.842  0.00  0.00    -0.004 C 
BRANCH  24  25
ATOM     25  C   UNL     1      15.400  -4.823  -3.631  0.00  0.00    -0.024 C 
BRANCH  25  28
ATOM     26  H   UNL     1      15.040  -6.529  -4.724  0.00  0.00    -0.089 HD
ATOM     27  H   UNL     1      15.681  -5.282  -5.618  0.00  0.00    -0.089 HD
ATOM     28  N   UNL     1      15.712  -5.764  -4.721  0.00  0.00    +0.385 N 
ATOM     29  H   UNL     1      16.654  -6.146  -4.578  0.00  0.00    -0.089 HD
ENDBRANCH  25  28
BRANCH  25  30
ATOM     30  C   UNL     1      16.461  -3.720  -3.608  0.00  0.00    +0.145 C 
BRANCH  30  31
ATOM     31  O   UNL     1      17.760  -4.311  -3.527  0.00  0.00    -0.396 OA
ATOM     32  H   UNL     1      18.483  -3.669  -3.508  0.00  0.00    +0.209 HD
ENDBRANCH  30  31
ENDBRANCH  25  30
BRANCH  25  33
ATOM     33  C   UNL     1      15.420  -5.577  -2.300  0.00  0.00    +0.145 C 
BRANCH  33  34
ATOM     34  O   UNL     1      15.140  -4.669  -1.233  0.00  0.00    -0.396 OA
ATOM     35  H   UNL     1      15.136  -5.079  -0.357  0.00  0.00    +0.209 HD
ENDBRANCH  33  34
ENDBRANCH  25  33
ENDBRANCH  24  25
ENDBRANCH  23  24
ENDBRANCH   4  23
TORSDOF 13
