REMARK  Name = ZINC48793257
REMARK  10 active torsions:
REMARK  status: ('A' for Active; 'I' for Inactive)
REMARK    1  A    between atoms: C_1  and  C_2
REMARK    2  A    between atoms: C_2  and  C_3
REMARK    3  A    between atoms: C_3  and  S_4
REMARK    4  A    between atoms: S_4  and  N_7
REMARK    5  A    between atoms: C_10  and  N_13
REMARK    6  A    between atoms: N_16  and  C_17
REMARK    7  A    between atoms: C_17  and  C_18
REMARK    8  A    between atoms: C_18  and  C_20
REMARK    9  A    between atoms: C_18  and  N_21
REMARK   10  A    between atoms: C_25  and  C_28
REMARK                            x       y       z     vdW  Elec       q    Type
REMARK                         _______ _______ _______ _____ _____    ______ ____
ROOT
ATOM      1  N   UNL     1      -6.082  -6.247   1.042  0.00  0.00    -0.296 N 
ATOM      2  C   UNL     1      -7.088  -6.285   0.146  0.00  0.00    +0.300 C 
ATOM      3  O   UNL     1      -7.424  -5.270  -0.433  0.00  0.00    -0.253 OA
ATOM      4  N   UNL     1      -7.722  -7.447  -0.108  0.00  0.00    -0.301 N 
ATOM      5  H   UNL     1      -5.814  -7.057   1.504  0.00  0.00    +0.151 HD
ATOM      6  H   UNL     1      -7.454  -8.256   0.354  0.00  0.00    +0.150 HD
ENDROOT
BRANCH   1  10
ATOM      7  N   UNL     1      -3.126  -3.415   1.947  0.00  0.00    -0.181 NA
ATOM      8  C   UNL     1      -4.091  -3.698   3.017  0.00  0.00    +0.111 C 
ATOM      9  C   UNL     1      -4.781  -5.033   2.719  0.00  0.00    +0.039 C 
ATOM     10  C   UNL     1      -5.393  -4.984   1.317  0.00  0.00    +0.077 C 
ATOM     11  C   UNL     1      -4.286  -4.771   0.282  0.00  0.00    +0.039 C 
ATOM     12  C   UNL     1      -3.592  -3.427   0.553  0.00  0.00    +0.111 C 
BRANCH   7  13
ATOM     13  S   UNL     1      -1.544  -3.081   2.304  0.00  0.00    +0.032 S 
ATOM     14  O   UNL     1      -0.822  -3.460   1.140  0.00  0.00    -0.158 OA
ATOM     15  O   UNL     1      -1.308  -3.730   3.546  0.00  0.00    -0.158 OA
BRANCH  13  16
ATOM     16  C   UNL     1      -1.483  -1.281   2.518  0.00  0.00    +0.185 C 
BRANCH  16  18
ATOM     17  C   UNL     1      -0.002   0.663   3.036  0.00  0.00    +0.005 C 
ATOM     18  C   UNL     1      -0.053  -0.855   2.855  0.00  0.00    +0.021 C 
ENDBRANCH  16  18
ENDBRANCH  13  16
ENDBRANCH   7  13
ENDBRANCH   1  10
BRANCH   4  19
ATOM     19  C   UNL     1      -8.816  -7.487  -1.082  0.00  0.00    +0.090 C 
BRANCH  19  20
ATOM     20  C   UNL     1      -9.269  -8.935  -1.280  0.00  0.00    -0.054 C 
ATOM     21  C   UNL     1     -10.342  -8.989  -2.369  0.00  0.00    -0.012 C 
BRANCH  20  22
ATOM     22  N   UNL     1      -8.120  -9.757  -1.683  0.00  0.00    +0.383 N 
ATOM     23  C   UNL     1      -7.646  -9.319  -3.002  0.00  0.00    -0.078 C 
ATOM     24  C   UNL     1      -6.399 -10.117  -3.391  0.00  0.00    -0.018 C 
ATOM     25  C   UNL     1      -6.749 -11.607  -3.442  0.00  0.00    -0.001 C 
ATOM     26  C   UNL     1      -7.313 -12.035  -2.084  0.00  0.00    -0.031 C 
ATOM     27  C   UNL     1      -8.525 -11.166  -1.743  0.00  0.00    -0.075 C 
ATOM     28  C   UNL     1      -7.737 -13.504  -2.147  0.00  0.00    +0.005 C 
ATOM     29  H   UNL     1      -7.378  -9.649  -1.008  0.00  0.00    -0.081 HD
ENDBRANCH  20  22
ENDBRANCH  19  20
ENDBRANCH   4  19
TORSDOF 7
