REMARK  Name = ZINC63350986
REMARK  4 active torsions:
REMARK  status: ('A' for Active; 'I' for Inactive)
REMARK    1  A    between atoms: C_4  and  C_7
REMARK    2  A    between atoms: C_7  and  C_9
REMARK    3  A    between atoms: C_7  and  O_31
REMARK    4  A    between atoms: C_9  and  N_10
REMARK                            x       y       z     vdW  Elec       q    Type
REMARK                         _______ _______ _______ _____ _____    ______ ____
ROOT
ATOM      1  N   UNL     1       5.358  -1.774  -1.497  0.00  0.00    -0.288 N 
ATOM      2  C   UNL     1       6.580  -0.995  -1.612  0.00  0.00    +0.203 C 
ATOM      3  C   UNL     1       7.799  -1.856  -1.631  0.00  0.00    +0.234 C 
ATOM      4  O   UNL     1       8.876  -1.306  -1.726  0.00  0.00    -0.274 OA
ATOM      5  N   UNL     1       7.789  -3.191  -1.550  0.00  0.00    -0.286 N 
ATOM      6  C   UNL     1       9.088  -3.899  -1.607  0.00  0.00    +0.137 C 
ATOM      7  C   UNL     1       9.255  -4.672  -0.296  0.00  0.00    +0.124 C 
ATOM      8  C   UNL     1       7.966  -5.454  -0.082  0.00  0.00    -0.035 C 
ATOM      9  C   UNL     1       8.318  -6.728   0.051  0.00  0.00    -0.001 A 
ATOM     10  C   UNL     1       7.530  -7.936   0.346  0.00  0.00    +0.010 A 
ATOM     11  C   UNL     1       8.223  -9.104   0.402  0.00  0.00    +0.001 A 
ATOM     12  C   UNL     1       9.604  -9.190   0.196  0.00  0.00    +0.002 A 
ATOM     13  C   UNL     1      10.406  -8.130  -0.076  0.00  0.00    +0.026 A 
ATOM     14  C   UNL     1       9.793  -6.846  -0.156  0.00  0.00    +0.043 A 
ATOM     15  N   UNL     1      10.331  -5.661  -0.378  0.00  0.00    -0.376 N 
ATOM     16  C   UNL     1       6.607  -4.798  -0.119  0.00  0.00    +0.065 C 
ATOM     17  C   UNL     1       6.558  -3.963  -1.411  0.00  0.00    +0.166 C 
ATOM     18  C   UNL     1       5.338  -3.102  -1.401  0.00  0.00    +0.237 C 
ATOM     19  O   UNL     1       4.259  -3.648  -1.305  0.00  0.00    -0.274 OA
ATOM     20  H   UNL     1      11.263  -5.471  -0.566  0.00  0.00    +0.160 HD
ENDROOT
BRANCH   1  21
ATOM     21  C   UNL     1       4.080  -1.059  -1.480  0.00  0.00    +0.144 C 
BRANCH  21  22
ATOM     22  C   UNL     1       3.711  -0.707  -0.038  0.00  0.00    +0.162 C 
BRANCH  22  26
ATOM     23  C   UNL     1      -0.017   1.378   0.010  0.00  0.00    +0.000 A 
ATOM     24  C   UNL     1       1.171   2.086   0.002  0.00  0.00    +0.000 A 
ATOM     25  C   UNL     1       2.377   1.411  -0.013  0.00  0.00    +0.006 A 
ATOM     26  C   UNL     1       2.396   0.029  -0.020  0.00  0.00    -0.018 A 
ATOM     27  C   UNL     1       1.208  -0.679  -0.012  0.00  0.00    +0.006 A 
ATOM     28  C   UNL     1       0.002  -0.004   0.002  0.00  0.00    +0.000 A 
ENDBRANCH  22  26
BRANCH  22  29
ATOM     29  O   UNL     1       3.596  -1.907   0.731  0.00  0.00    -0.386 OA
ATOM     30  H   UNL     1       2.922  -2.519   0.405  0.00  0.00    +0.210 HD
ENDBRANCH  22  29
ENDBRANCH  21  22
ENDBRANCH   1  21
TORSDOF 4
