REMARK  Name = ZINC06858384
REMARK  8 active torsions:
REMARK  status: ('A' for Active; 'I' for Inactive)
REMARK    1  A    between atoms: C_1  and  C_2
REMARK    2  A    between atoms: C_5  and  C_8
REMARK    3  A    between atoms: C_12  and  S_14
REMARK    4  A    between atoms: S_14  and  C_15
REMARK    5  A    between atoms: C_15  and  C_16
REMARK    6  A    between atoms: C_21  and  C_28
REMARK    7  A    between atoms: C_24  and  C_27
REMARK    8  A    between atoms: C_28  and  O_29
REMARK                            x       y       z     vdW  Elec       q    Type
REMARK                         _______ _______ _______ _____ _____    ______ ____
ROOT
ATOM      1  C   UNL     1       4.947   5.036  -1.121  0.00  0.00    +0.165 A 
ATOM      2  N   UNL     1       4.835   3.767  -0.756  0.00  0.00    -0.193 NA
ATOM      3  C   UNL     1       3.659   3.263  -0.389  0.00  0.00    +0.229 A 
ATOM      4  C   UNL     1       2.545   4.087  -0.393  0.00  0.00    +0.051 A 
ATOM      5  C   UNL     1       2.696   5.417  -0.782  0.00  0.00    +0.108 A 
ATOM      6  N   UNL     1       3.903   5.852  -1.137  0.00  0.00    -0.221 NA
ATOM      7  C   UNL     1       1.194   3.570   0.014  0.00  0.00    +0.082 C 
ATOM      8  C   UNL     1       1.185   2.068   0.002  0.00  0.00    +0.008 A 
ATOM      9  C   UNL     1      -0.017   1.378   0.010  0.00  0.00    +0.003 A 
ATOM     10  C   UNL     1       0.002  -0.004   0.002  0.00  0.00    +0.117 A 
ATOM     11  N   UNL     1       1.144  -0.664  -0.013  0.00  0.00    -0.256 NA
ATOM     12  C   UNL     1       2.306  -0.043  -0.022  0.00  0.00    +0.081 A 
ATOM     13  C   UNL     1       2.368   1.345  -0.014  0.00  0.00    +0.155 A 
ATOM     14  O   UNL     1       3.570   1.967  -0.021  0.00  0.00    -0.436 OA
ATOM     15  C   UNL     1       3.581  -0.847  -0.040  0.00  0.00    +0.069 C 
ENDROOT
BRANCH   1  20
ATOM     16  C   UNL     1      10.110   7.060  -2.675  0.00  0.00    +0.044 C 
ATOM     17  C   UNL     1       8.759   6.530  -2.268  0.00  0.00    -0.050 A 
ATOM     18  C   UNL     1       8.624   5.208  -1.886  0.00  0.00    +0.004 A 
ATOM     19  C   UNL     1       7.389   4.717  -1.512  0.00  0.00    +0.012 A 
ATOM     20  C   UNL     1       6.277   5.557  -1.521  0.00  0.00    +0.019 A 
ATOM     21  C   UNL     1       6.418   6.887  -1.913  0.00  0.00    +0.012 A 
ATOM     22  C   UNL     1       7.658   7.368  -2.280  0.00  0.00    +0.004 A 
ENDBRANCH   1  20
BRANCH   5  23
ATOM     23  S   UNL     1       1.311   6.506  -0.805  0.00  0.00    -0.096 S 
BRANCH  23  24
ATOM     24  C   UNL     1       2.114   8.025  -1.373  0.00  0.00    +0.171 C 
BRANCH  24  25
ATOM     25  C   UNL     1       1.091   9.128  -1.470  0.00  0.00    +0.221 C 
ATOM     26  O   UNL     1      -0.066   8.908  -1.184  0.00  0.00    -0.275 OA
ATOM     27  N   UNL     1       1.464  10.358  -1.876  0.00  0.00    -0.329 N 
ATOM     28  H   UNL     1       2.389  10.534  -2.106  0.00  0.00    +0.145 HD
ATOM     29  H   UNL     1       0.805  11.068  -1.939  0.00  0.00    +0.145 HD
ENDBRANCH  24  25
ENDBRANCH  23  24
ENDBRANCH   5  23
BRANCH   9  30
ATOM     30  C   UNL     1      -1.326   2.125   0.020  0.00  0.00    +0.193 C 
BRANCH  30  31
ATOM     31  O   UNL     1      -2.407   1.190   0.020  0.00  0.00    -0.390 OA
ATOM     32  H   UNL     1      -3.282   1.601   0.026  0.00  0.00    +0.210 HD
ENDBRANCH  30  31
ENDBRANCH   9  30
TORSDOF 6
