REMARK  Name = ZINC38659106
REMARK  9 active torsions:
REMARK  status: ('A' for Active; 'I' for Inactive)
REMARK    1  A    between atoms: C_1  and  C_2
REMARK    2  A    between atoms: C_5  and  C_7
REMARK    3  A    between atoms: C_12  and  O_21
REMARK    4  A    between atoms: C_16  and  N_20
REMARK    5  A    between atoms: C_17  and  C_18
REMARK    6  A    between atoms: O_21  and  C_22
REMARK    7  A    between atoms: C_22  and  C_24
REMARK    8  A    between atoms: C_24  and  O_25
REMARK    9  A    between atoms: O_25  and  C_26
REMARK                            x       y       z     vdW  Elec       q    Type
REMARK                         _______ _______ _______ _____ _____    ______ ____
ROOT
ATOM      1  C   UNL     1       1.727  -3.284  -0.051  0.00  0.00    +0.134 C 
ATOM      2  C   UNL     1       2.582  -3.231   1.188  0.00  0.00    +0.011 A 
ATOM      3  C   UNL     1       2.021  -2.824   2.385  0.00  0.00    +0.012 A 
ATOM      4  C   UNL     1       2.789  -2.769   3.531  0.00  0.00    +0.047 A 
ATOM      5  C   UNL     1       4.131  -3.121   3.484  0.00  0.00    +0.135 A 
ATOM      6  C   UNL     1       4.696  -3.528   2.286  0.00  0.00    +0.093 A 
ATOM      7  C   UNL     1       3.921  -3.584   1.135  0.00  0.00    +0.138 A 
ATOM      8  O   UNL     1       4.490  -3.984  -0.029  0.00  0.00    -0.441 OA
ATOM      9  C   UNL     1       3.901  -3.686  -1.200  0.00  0.00    +0.199 C 
ATOM     10  C   UNL     1       2.595  -3.344  -1.276  0.00  0.00    +0.101 C 
ENDROOT
BRANCH   1  15
ATOM     11  C   UNL     1       0.322   1.554  -0.280  0.00  0.00    +0.086 C 
ATOM     12  C   UNL     1       0.249   0.051  -0.212  0.00  0.00    +0.102 A 
ATOM     13  C   UNL     1      -0.878  -0.682  -0.185  0.00  0.00    +0.044 A 
ATOM     14  C   UNL     1      -0.485  -2.038  -0.121  0.00  0.00    +0.046 A 
ATOM     15  C   UNL     1       0.860  -2.053  -0.113  0.00  0.00    +0.118 A 
ATOM     16  O   UNL     1       1.300  -0.786  -0.173  0.00  0.00    -0.464 OA
ENDBRANCH   1  15
BRANCH   9  17
ATOM     17  N   UNL     1       4.648  -3.726  -2.350  0.00  0.00    -0.328 N 
ATOM     18  H   UNL     1       5.587  -3.968  -2.311  0.00  0.00    +0.145 HD
ATOM     19  H   UNL     1       4.238  -3.514  -3.203  0.00  0.00    +0.145 HD
ENDBRANCH   9  17
BRANCH  10  20
ATOM     20  C   UNL     1       2.028  -3.035  -2.554  0.00  0.00    +0.101 C 
ATOM     21  N   UNL     1       1.578  -2.790  -3.567  0.00  0.00    -0.191 NA
ENDBRANCH  10  20
BRANCH   5  22
ATOM     22  O   UNL     1       4.889  -3.067   4.610  0.00  0.00    -0.423 OA
BRANCH  22  23
ATOM     23  C   UNL     1       5.843  -2.124   4.684  0.00  0.00    +0.350 C 
ATOM     24  O   UNL     1       5.938  -1.292   3.813  0.00  0.00    -0.247 OA
BRANCH  23  25
ATOM     25  C   UNL     1       6.794  -2.103   5.853  0.00  0.00    +0.349 C 
BRANCH  25  26
ATOM     26  O   UNL     1       7.708  -1.015   5.704  0.00  0.00    -0.481 OA
BRANCH  26  27
ATOM     27  C   UNL     1       8.639  -0.853   6.680  0.00  0.00    +0.121 A 
ATOM     28  C   UNL     1       8.676  -1.728   7.756  0.00  0.00    +0.047 A 
ATOM     29  C   UNL     1       9.623  -1.562   8.748  0.00  0.00    +0.023 A 
ATOM     30  C   UNL     1      10.535  -0.524   8.668  0.00  0.00    +0.041 A 
ATOM     31  C   UNL     1      10.499   0.350   7.596  0.00  0.00    +0.023 A 
ATOM     32  C   UNL     1       9.558   0.183   6.599  0.00  0.00    +0.047 A 
ATOM     33 CL   UNL     1      11.724  -0.317   9.916  0.00  0.00    -0.084 Cl
ENDBRANCH  26  27
ENDBRANCH  25  26
ENDBRANCH  23  25
ENDBRANCH  22  23
ENDBRANCH   5  22
TORSDOF 8
