REMARK  Name = ZINC15957250
REMARK  7 active torsions:
REMARK  status: ('A' for Active; 'I' for Inactive)
REMARK    1  A    between atoms: C_1  and  C_2
REMARK    2  A    between atoms: C_5  and  N_9
REMARK    3  A    between atoms: C_6  and  C_8
REMARK    4  A    between atoms: C_14  and  C_31
REMARK    5  A    between atoms: C_31  and  C_32
REMARK    6  A    between atoms: C_32  and  S_33
REMARK    7  A    between atoms: S_33  and  C_34
REMARK                            x       y       z     vdW  Elec       q    Type
REMARK                         _______ _______ _______ _____ _____    ______ ____
ROOT
ATOM      1  N   UNL     1       0.830  -4.369  -0.649  0.00  0.00    -0.210 N 
ATOM      2  C   UNL     1      -0.178  -5.066  -0.111  0.00  0.00    +0.232 C 
ATOM      3  O   UNL     1      -1.098  -4.593   0.521  0.00  0.00    -0.274 OA
ATOM      4  C   UNL     1       0.010  -6.535  -0.413  0.00  0.00    +0.107 C 
ATOM      5  C   UNL     1      -1.101  -7.004  -1.377  0.00  0.00    +0.068 C 
ATOM      6  N   UNL     1      -0.577  -6.710  -2.737  0.00  0.00    -0.295 NA
ATOM      7  C   UNL     1       0.859  -7.037  -2.648  0.00  0.00    +0.136 C 
ATOM      8  C   UNL     1       1.322  -6.565  -1.247  0.00  0.00    +0.123 C 
ATOM      9  C   UNL     1       1.725  -5.109  -1.311  0.00  0.00    +0.233 C 
ATOM     10  O   UNL     1       2.710  -4.680  -1.874  0.00  0.00    -0.274 OA
ATOM     11  C   UNL     1       1.645  -6.377  -3.744  0.00  0.00    +0.003 A 
ATOM     12  C   UNL     1       1.840  -5.065  -4.114  0.00  0.00    +0.008 A 
ATOM     13  C   UNL     1       2.640  -4.763  -5.201  0.00  0.00    +0.000 A 
ATOM     14  C   UNL     1       3.244  -5.782  -5.916  0.00  0.00    +0.002 A 
ATOM     15  C   UNL     1       3.052  -7.098  -5.549  0.00  0.00    +0.023 A 
ATOM     16  C   UNL     1       2.248  -7.411  -4.455  0.00  0.00    +0.039 A 
ATOM     17  N   UNL     1       1.909  -8.644  -3.895  0.00  0.00    -0.283 N 
ATOM     18  C   UNL     1       1.096  -8.512  -2.829  0.00  0.00    +0.243 C 
ATOM     19  O   UNL     1       0.644  -9.407  -2.147  0.00  0.00    -0.273 OA
ATOM     20  H   UNL     1      -1.035  -7.280  -3.432  0.00  0.00    +0.123 HD
ATOM     21  H   UNL     1       2.221  -9.497  -4.235  0.00  0.00    +0.155 HD
ENDROOT
BRANCH   1  26
ATOM     22  C   UNL     1       1.253   1.272  -0.178  0.00  0.00    +0.044 C 
ATOM     23  C   UNL     1       1.141  -0.226  -0.303  0.00  0.00    -0.050 A 
ATOM     24  C   UNL     1       0.454  -0.780  -1.368  0.00  0.00    +0.005 A 
ATOM     25  C   UNL     1       0.349  -2.152  -1.485  0.00  0.00    +0.024 A 
ATOM     26  C   UNL     1       0.934  -2.976  -0.533  0.00  0.00    +0.047 A 
ATOM     27  C   UNL     1       1.624  -2.417   0.535  0.00  0.00    -0.028 A 
ATOM     28  C   UNL     1       1.729  -1.044   0.644  0.00  0.00    +0.008 A 
ATOM     29  C   UNL     1       2.260  -3.307   1.571  0.00  0.00    +0.046 C 
ENDBRANCH   1  26
BRANCH   5  30
ATOM     30  C   UNL     1      -1.350  -8.504  -1.213  0.00  0.00    +0.030 C 
BRANCH  30  31
ATOM     31  C   UNL     1      -2.471  -8.727  -0.196  0.00  0.00    +0.070 C 
BRANCH  31  32
ATOM     32  S   UNL     1      -2.766 -10.506  -0.001  0.00  0.00    -0.164 S 
ATOM     33  C   UNL     1      -4.105 -10.598   1.219  0.00  0.00    +0.084 C 
ENDBRANCH  31  32
ENDBRANCH  30  31
ENDBRANCH   5  30
TORSDOF 4
