REMARK  Name = ZINC32561723
REMARK  7 active torsions:
REMARK  status: ('A' for Active; 'I' for Inactive)
REMARK    1  A    between atoms: C_1  and  N_2
REMARK    2  A    between atoms: N_2  and  C_3
REMARK    3  A    between atoms: N_2  and  C_24
REMARK    4  A    between atoms: C_3  and  C_4
REMARK    5  A    between atoms: C_7  and  C_10
REMARK    6  A    between atoms: C_16  and  C_18
REMARK    7  A    between atoms: C_24  and  C_25
REMARK                            x       y       z     vdW  Elec       q    Type
REMARK                         _______ _______ _______ _____ _____    ______ ____
ROOT
ATOM      1  C   UNL     1       2.163  -0.149   1.104  0.00  0.00    -0.033 A 
ATOM      2  C   UNL     1       3.061  -0.991   0.473  0.00  0.00    +0.005 A 
ATOM      3  C   UNL     1       4.396  -0.650   0.400  0.00  0.00    +0.012 A 
ATOM      4  C   UNL     1       4.840   0.547   0.965  0.00  0.00    +0.017 A 
ATOM      5  C   UNL     1       3.928   1.392   1.600  0.00  0.00    +0.012 A 
ATOM      6  C   UNL     1       2.595   1.042   1.661  0.00  0.00    +0.005 A 
ENDROOT
BRANCH   4   7
ATOM      7  C   UNL     1       6.268   0.918   0.892  0.00  0.00    +0.141 A 
ATOM      8  N   UNL     1       6.683   2.088   1.454  0.00  0.00    -0.307 N 
ATOM      9  H   UNL     1       6.042   2.667   1.896  0.00  0.00    +0.170 HD
ATOM     10  C   UNL     1       7.984   2.443   1.397  0.00  0.00    +0.252 A 
ATOM     11  O   UNL     1       8.365   3.489   1.898  0.00  0.00    -0.268 OA
ATOM     12  C   UNL     1       8.892   1.587   0.751  0.00  0.00    +0.098 A 
ATOM     13  C   UNL     1       8.416   0.409   0.196  0.00  0.00    +0.078 A 
ATOM     14  N   UNL     1       7.112   0.109   0.290  0.00  0.00    -0.229 NA
BRANCH  13  15
ATOM     15  C   UNL     1       9.344  -0.517  -0.493  0.00  0.00    +0.001 A 
ATOM     16  C   UNL     1      10.702  -0.211  -0.581  0.00  0.00    +0.010 A 
ATOM     17  C   UNL     1      11.562  -1.078  -1.223  0.00  0.00    +0.001 A 
ATOM     18  C   UNL     1      11.080  -2.249  -1.779  0.00  0.00    +0.000 A 
ATOM     19  C   UNL     1       9.734  -2.559  -1.695  0.00  0.00    +0.001 A 
ATOM     20  C   UNL     1       8.865  -1.702  -1.051  0.00  0.00    +0.010 A 
ENDBRANCH  13  15
ENDBRANCH   4   7
BRANCH   1  21
ATOM     21  C   UNL     1       0.706  -0.527   1.180  0.00  0.00    +0.119 C 
BRANCH  21  23
ATOM     22  C   UNL     1      -0.018   1.465   0.010  0.00  0.00    +0.105 C 
ATOM     23  N   UNL     1       0.002  -0.004   0.002  0.00  0.00    -0.294 NA
BRANCH  23  24
ATOM     24  C   UNL     1      -1.360  -0.549  -0.083  0.00  0.00    +0.160 C 
BRANCH  24  25
ATOM     25  C   UNL     1      -1.962  -0.191  -1.417  0.00  0.00    +0.145 A 
ATOM     26  N   UNL     1      -3.224  -0.529  -1.841  0.00  0.00    -0.293 N 
ATOM     27  H   UNL     1      -3.876  -1.038  -1.334  0.00  0.00    +0.172 HD
ATOM     28  C   UNL     1      -3.401  -0.034  -3.082  0.00  0.00    +0.342 A 
ATOM     29  O   UNL     1      -4.403  -0.143  -3.766  0.00  0.00    -0.245 OA
ATOM     30  N   UNL     1      -2.264   0.605  -3.428  0.00  0.00    -0.227 N 
ATOM     31  H   UNL     1      -2.094   1.063  -4.266  0.00  0.00    +0.194 HD
ATOM     32  N   UNL     1      -1.377   0.490  -2.349  0.00  0.00    -0.155 NA
ENDBRANCH  24  25
ENDBRANCH  23  24
ENDBRANCH  21  23
ENDBRANCH   1  21
TORSDOF 6
