REMARK  Name = ZINC24777747
REMARK  9 active torsions:
REMARK  status: ('A' for Active; 'I' for Inactive)
REMARK    1  A    between atoms: C_1  and  C_2
REMARK    2  A    between atoms: C_2  and  C_3
REMARK    3  A    between atoms: C_2  and  C_4
REMARK    4  A    between atoms: C_4  and  N_5
REMARK    5  A    between atoms: C_6  and  N_31
REMARK    6  A    between atoms: C_7  and  C_14
REMARK    7  A    between atoms: C_14  and  C_16
REMARK    8  A    between atoms: C_16  and  S_17
REMARK    9  A    between atoms: S_17  and  C_18
REMARK                            x       y       z     vdW  Elec       q    Type
REMARK                         _______ _______ _______ _____ _____    ______ ____
ROOT
ATOM      1  C   UNL     1      -2.739  -5.675  -0.003  0.00  0.00    +0.182 C 
ATOM      2  O   UNL     1      -1.576  -6.027  -0.007  0.00  0.00    -0.291 OA
ENDROOT
BRANCH   1   5
ATOM      3  N   UNL     1      -4.508  -8.907  -0.099  0.00  0.00    -0.281 N 
ATOM      4  C   UNL     1      -3.478  -8.011  -0.116  0.00  0.00    +0.116 A 
ATOM      5  C   UNL     1      -3.768  -6.640   0.004  0.00  0.00    +0.120 A 
ATOM      6  C   UNL     1      -5.177  -6.245   0.129  0.00  0.00    +0.266 A 
ATOM      7  O   UNL     1      -5.487  -5.072   0.230  0.00  0.00    -0.267 OA
ATOM      8  N   UNL     1      -6.121  -7.209   0.129  0.00  0.00    -0.274 N 
ATOM      9  H   UNL     1      -7.183  -6.939   0.222  0.00  0.00    +0.173 HD
ATOM     10  C   UNL     1      -5.783  -8.504   0.018  0.00  0.00    +0.331 A 
ATOM     11  O   UNL     1      -6.664  -9.341   0.023  0.00  0.00    -0.246 OA
BRANCH   4  12
ATOM     12  N   UNL     1      -2.192  -8.437  -0.240  0.00  0.00    -0.344 N 
ATOM     13  H   UNL     1      -1.369  -7.707  -0.253  0.00  0.00    +0.144 HD
ATOM     14  H   UNL     1      -1.975  -9.512  -0.328  0.00  0.00    +0.144 HD
ENDBRANCH   4  12
BRANCH   3  15
ATOM     15  C   UNL     1      -4.216 -10.338  -0.216  0.00  0.00    +0.131 C 
BRANCH  15  17
ATOM     16  C   UNL     1      -3.065 -10.031  -2.412  0.00  0.00    +0.009 C 
ATOM     17  C   UNL     1      -4.215 -10.739  -1.693  0.00  0.00    +0.003 C 
ATOM     18  C   UNL     1      -4.034 -12.254  -1.810  0.00  0.00    +0.009 C 
ENDBRANCH  15  17
ENDBRANCH   3  15
ENDBRANCH   1   5
BRANCH   1  19
ATOM     19  C   UNL     1      -3.082  -4.208  -0.004  0.00  0.00    +0.157 C 
BRANCH  19  20
ATOM     20  S   UNL     1      -1.554  -3.229  -0.013  0.00  0.00    -0.078 S 
BRANCH  20  21
ATOM     21  C   UNL     1      -2.117  -1.560  -0.014  0.00  0.00    +0.198 A 
ATOM     22  N   UNL     1      -3.368  -1.169  -0.009  0.00  0.00    -0.120 NA
ATOM     23  N   UNL     1      -3.384   0.232  -0.011  0.00  0.00    -0.110 NA
ATOM     24  C   UNL     1      -2.140   0.653  -0.018  0.00  0.00    +0.235 A 
ATOM     25  N   UNL     1      -1.325  -0.444  -0.019  0.00  0.00    -0.255 N 
ATOM     26  C   UNL     1       0.001  -0.004  -0.026  0.00  0.00    +0.075 A 
ATOM     27  C   UNL     1       1.214  -0.677  -0.031  0.00  0.00    +0.028 A 
ATOM     28  C   UNL     1       2.397   0.035  -0.037  0.00  0.00    +0.002 A 
ATOM     29  C   UNL     1       2.379   1.419  -0.040  0.00  0.00    +0.002 A 
ATOM     30  C   UNL     1       1.177   2.099  -0.035  0.00  0.00    +0.028 A 
ATOM     31  C   UNL     1      -0.018   1.391  -0.029  0.00  0.00    +0.066 A 
ATOM     32  N   UNL     1      -1.351   1.790  -0.018  0.00  0.00    -0.322 N 
ATOM     33  H   UNL     1      -1.820   2.785  -0.011  0.00  0.00    +0.169 HD
ENDBRANCH  20  21
ENDBRANCH  19  20
ENDBRANCH   1  19
TORSDOF 7
