REMARK  Name = ZINC20899154
REMARK  3 active torsions:
REMARK  status: ('A' for Active; 'I' for Inactive)
REMARK    1  A    between atoms: C_1  and  C_2
REMARK    2  A    between atoms: C_5  and  C_7
REMARK    3  A    between atoms: N_24  and  C_27
REMARK                            x       y       z     vdW  Elec       q    Type
REMARK                         _______ _______ _______ _____ _____    ______ ____
ROOT
ATOM      1  C   UNL     1       2.637  -4.320   0.166  0.00  0.00    +0.094 C 
ATOM      2  C   UNL     1       2.901  -4.432  -1.309  0.00  0.00    +0.071 C 
ATOM      3  C   UNL     1       3.083  -5.843  -1.746  0.00  0.00    +0.027 C 
ATOM      4  N   UNL     1       3.676  -6.817  -1.151  0.00  0.00    -0.316 N 
ATOM      5  C   UNL     1       4.171  -7.180   0.071  0.00  0.00    +0.045 A 
ATOM      6  C   UNL     1       4.472  -8.548   0.199  0.00  0.00    +0.024 A 
ATOM      7  C   UNL     1       4.981  -9.072   1.361  0.00  0.00    +0.002 A 
ATOM      8  C   UNL     1       5.208  -8.241   2.444  0.00  0.00    +0.001 A 
ATOM      9  C   UNL     1       4.918  -6.902   2.340  0.00  0.00    +0.016 A 
ATOM     10  C   UNL     1       4.396  -6.352   1.160  0.00  0.00    +0.030 A 
ATOM     11  S   UNL     1       4.074  -4.633   1.180  0.00  0.00    -0.114 S 
ATOM     12  C   UNL     1       2.530  -6.153  -2.976  0.00  0.00    +0.117 C 
ATOM     13  C   UNL     1       2.193  -5.104  -3.954  0.00  0.00    +0.258 C 
ATOM     14  N   UNL     1       1.658  -5.481  -5.133  0.00  0.00    -0.235 N 
ATOM     15  C   UNL     1       1.433  -6.771  -5.421  0.00  0.00    +0.320 C 
ATOM     16  O   UNL     1       0.948  -7.044  -6.502  0.00  0.00    -0.251 OA
ATOM     17  N   UNL     1       1.715  -7.775  -4.580  0.00  0.00    -0.190 N 
ATOM     18  C   UNL     1       2.259  -7.548  -3.366  0.00  0.00    +0.265 C 
ATOM     19  O   UNL     1       2.515  -8.469  -2.614  0.00  0.00    -0.269 OA
ATOM     20  O   UNL     1       2.393  -3.930  -3.705  0.00  0.00    -0.270 OA
ATOM     21  H   UNL     1       1.430  -4.803  -5.789  0.00  0.00    +0.159 HD
ATOM     22  H   UNL     1       3.822  -7.538  -1.784  0.00  0.00    +0.152 HD
ENDROOT
BRANCH  17  23
ATOM     23  C   UNL     1       1.442  -9.094  -4.971  0.00  0.00    +0.046 A 
ATOM     24  C   UNL     1       0.205  -9.660  -4.693  0.00  0.00    +0.025 A 
ATOM     25  C   UNL     1      -0.061 -10.959  -5.081  0.00  0.00    +0.022 A 
ATOM     26  C   UNL     1       0.904 -11.695  -5.745  0.00  0.00    +0.041 A 
ATOM     27  C   UNL     1       2.138 -11.133  -6.023  0.00  0.00    +0.022 A 
ATOM     28  C   UNL     1       2.406  -9.833  -5.643  0.00  0.00    +0.025 A 
ATOM     29 CL   UNL     1       0.567 -13.328  -6.230  0.00  0.00    -0.084 Cl
ENDBRANCH  17  23
BRANCH   1  34
ATOM     30  C   UNL     1       1.628   1.201   0.933  0.00  0.00    +0.051 C 
ATOM     31  C   UNL     1       1.654  -0.302   0.826  0.00  0.00    -0.013 A 
ATOM     32  C   UNL     1       0.693  -1.198   1.157  0.00  0.00    +0.011 A 
ATOM     33  C   UNL     1       0.939  -2.545   0.970  0.00  0.00    +0.012 A 
ATOM     34  C   UNL     1       2.134  -2.930   0.460  0.00  0.00    +0.004 A 
ATOM     35  S   UNL     1       2.956  -1.363   0.221  0.00  0.00    -0.097 S 
ENDBRANCH   1  34
TORSDOF 2
