REMARK  Name = ZINC43793303
REMARK  7 active torsions:
REMARK  status: ('A' for Active; 'I' for Inactive)
REMARK    1  A    between atoms: C_1  and  C_2
REMARK    2  A    between atoms: C_2  and  C_3
REMARK    3  A    between atoms: C_3  and  C_5
REMARK    4  A    between atoms: C_3  and  C_23
REMARK    5  A    between atoms: C_5  and  N_6
REMARK    6  A    between atoms: N_9  and  N_10
REMARK    7  A    between atoms: C_11  and  C_13
REMARK                            x       y       z     vdW  Elec       q    Type
REMARK                         _______ _______ _______ _____ _____    ______ ____
ROOT
ATOM      1  N   UNL     1       1.722  -2.399   0.035  0.00  0.00    -0.298 N 
ATOM      2  C   UNL     1       1.979  -3.696  -0.224  0.00  0.00    +0.316 C 
ATOM      3  O   UNL     1       1.505  -4.564   0.484  0.00  0.00    -0.251 OA
ATOM      4  N   UNL     1       2.762  -4.033  -1.269  0.00  0.00    -0.218 N 
ATOM      5  H   UNL     1       2.101  -1.707  -0.530  0.00  0.00    +0.150 HD
ATOM      6  H   UNL     1       2.946  -4.966  -1.456  0.00  0.00    +0.174 HD
ENDROOT
BRANCH   4   7
ATOM      7  N   UNL     1       3.308  -3.033  -2.085  0.00  0.00    -0.228 N 
ATOM      8  C   UNL     1       4.090  -3.370  -3.130  0.00  0.00    +0.279 C 
ATOM      9  O   UNL     1       4.322  -4.539  -3.364  0.00  0.00    -0.267 OA
ATOM     10  H   UNL     1       3.123  -2.100  -1.898  0.00  0.00    +0.173 HD
BRANCH   8  11
ATOM     11  C   UNL     1       4.669  -2.312  -3.993  0.00  0.00    +0.127 A 
ATOM     12  C   UNL     1       5.476  -2.680  -5.080  0.00  0.00    +0.034 A 
ATOM     13  C   UNL     1       6.015  -1.716  -5.882  0.00  0.00    +0.012 A 
ATOM     14  C   UNL     1       5.735  -0.369  -5.585  0.00  0.00    +0.000 A 
ATOM     15  C   UNL     1       6.255   0.673  -6.369  0.00  0.00    +0.010 A 
ATOM     16  C   UNL     1       5.963   1.965  -6.051  0.00  0.00    +0.001 A 
ATOM     17  C   UNL     1       5.153   2.268  -4.957  0.00  0.00    +0.002 A 
ATOM     18  C   UNL     1       4.632   1.285  -4.176  0.00  0.00    +0.028 A 
ATOM     19  C   UNL     1       4.910  -0.064  -4.471  0.00  0.00    +0.072 A 
ATOM     20  N   UNL     1       4.408  -1.047  -3.725  0.00  0.00    -0.242 NA
ENDBRANCH   8  11
ENDBRANCH   4   7
BRANCH   1  21
ATOM     21  C   UNL     1       0.872  -2.034   1.171  0.00  0.00    +0.114 C 
BRANCH  21  22
ATOM     22  C   UNL     1       0.742  -0.511   1.242  0.00  0.00    +0.036 C 
BRANCH  22  23
ATOM     23  C   UNL     1      -0.030  -0.130   2.478  0.00  0.00    -0.043 A 
ATOM     24  C   UNL     1      -1.322  -0.588   2.656  0.00  0.00    +0.004 A 
ATOM     25  C   UNL     1      -2.030  -0.238   3.790  0.00  0.00    +0.000 A 
ATOM     26  C   UNL     1      -1.446   0.570   4.748  0.00  0.00    +0.000 A 
ATOM     27  C   UNL     1      -0.153   1.028   4.571  0.00  0.00    +0.000 A 
ATOM     28  C   UNL     1       0.556   0.674   3.438  0.00  0.00    +0.004 A 
ENDBRANCH  22  23
BRANCH  22  30
ATOM     29  C   UNL     1      -0.019   1.526   0.010  0.00  0.00    +0.004 C 
ATOM     30  C   UNL     1       0.002  -0.004   0.002  0.00  0.00    +0.006 C 
ENDBRANCH  22  30
ENDBRANCH  21  22
ENDBRANCH   1  21
TORSDOF 6
