REMARK  Name = ZINC40824366
REMARK  7 active torsions:
REMARK  status: ('A' for Active; 'I' for Inactive)
REMARK    1  A    between atoms: C_1  and  C_2
REMARK    2  A    between atoms: C_6  and  C_7
REMARK    3  A    between atoms: N_9  and  C_10
REMARK    4  A    between atoms: C_15  and  C_16
REMARK    5  A    between atoms: C_16  and  O_18
REMARK    6  A    between atoms: O_18  and  C_19
REMARK    7  A    between atoms: N_24  and  N_25
REMARK                            x       y       z     vdW  Elec       q    Type
REMARK                         _______ _______ _______ _____ _____    ______ ____
ROOT
ATOM      1  C   UNL     1      -0.025   1.501   0.010  0.00  0.00    +0.048 C 
ATOM      2  C   UNL     1       0.012  -0.005   0.002  0.00  0.00    +0.009 A 
ATOM      3  C   UNL     1       0.034  -0.839  -1.122  0.00  0.00    +0.042 A 
ATOM      4  C   UNL     1       0.063  -2.138  -0.673  0.00  0.00    +0.115 A 
ATOM      5  O   UNL     1       0.062  -2.113   0.658  0.00  0.00    -0.454 OA
ATOM      6  C   UNL     1       0.036  -0.832   1.091  0.00  0.00    +0.193 A 
ATOM      7  C   UNL     1       0.088  -3.327  -1.600  0.00  0.00    +0.075 C 
ATOM      8  C   UNL     1      -0.433  -2.909  -2.977  0.00  0.00    +0.014 C 
ATOM      9  C   UNL     1       0.328  -1.683  -3.493  0.00  0.00    +0.058 C 
ATOM     10  C   UNL     1       0.032  -0.513  -2.566  0.00  0.00    +0.070 C 
ATOM     11  N   UNL     1      -0.205   0.683  -3.009  0.00  0.00    -0.183 NA
ENDROOT
BRANCH  11  12
ATOM     12  N   UNL     1      -0.195   0.934  -4.387  0.00  0.00    -0.191 N 
ATOM     13  C   UNL     1      -0.441   2.177  -4.847  0.00  0.00    +0.317 C 
ATOM     14  O   UNL     1      -0.432   2.396  -6.043  0.00  0.00    -0.251 OA
ATOM     15  N   UNL     1      -0.698   3.177  -3.981  0.00  0.00    -0.312 N 
ATOM     16  H   UNL     1      -0.010   0.214  -5.010  0.00  0.00    +0.179 HD
ATOM     17  H   UNL     1      -0.706   3.003  -3.027  0.00  0.00    +0.147 HD
ATOM     18  H   UNL     1      -0.876   4.072  -4.312  0.00  0.00    +0.147 HD
ENDBRANCH  11  12
BRANCH   6  19
ATOM     19  C   UNL     1       0.031  -0.401   2.493  0.00  0.00    +0.284 C 
ATOM     20  O   UNL     1       0.003   0.784   2.766  0.00  0.00    -0.266 OA
ATOM     21  N   UNL     1       0.057  -1.319   3.480  0.00  0.00    -0.278 N 
ATOM     22  H   UNL     1      -0.002  -2.263   3.266  0.00  0.00    +0.155 HD
BRANCH  21  23
ATOM     23  C   UNL     1       0.168  -0.912   4.806  0.00  0.00    +0.048 A 
ATOM     24  C   UNL     1       0.760   0.306   5.115  0.00  0.00    +0.024 A 
ATOM     25  C   UNL     1       0.869   0.708   6.430  0.00  0.00    +0.002 A 
ATOM     26  C   UNL     1       0.391  -0.097   7.452  0.00  0.00    +0.001 A 
ATOM     27  C   UNL     1      -0.200  -1.309   7.165  0.00  0.00    +0.017 A 
ATOM     28  C   UNL     1      -0.323  -1.727   5.838  0.00  0.00    +0.080 A 
BRANCH  28  29
ATOM     29  C   UNL     1      -0.958  -3.019   5.523  0.00  0.00    +0.341 C 
ATOM     30  O   UNL     1      -0.979  -3.423   4.378  0.00  0.00    -0.245 OA
BRANCH  29  31
ATOM     31  O   UNL     1      -1.516  -3.752   6.506  0.00  0.00    -0.464 OA
ATOM     32  C   UNL     1      -2.115  -4.994   6.130  0.00  0.00    +0.280 C 
ENDBRANCH  29  31
ENDBRANCH  28  29
ENDBRANCH  21  23
ENDBRANCH   6  19
TORSDOF 5
