REMARK  Name = ZINC39631553
REMARK  13 active torsions:
REMARK  status: ('A' for Active; 'I' for Inactive)
REMARK    1  A    between atoms: C_1  and  C_2
REMARK    2  A    between atoms: C_3  and  C_14
REMARK    3  A    between atoms: C_4  and  C_7
REMARK    4  A    between atoms: C_18  and  C_27
REMARK    5  A    between atoms: N_29  and  C_30
REMARK    6  A    between atoms: C_30  and  C_32
REMARK    7  A    between atoms: C_30  and  C_33
REMARK    8  A    between atoms: C_33  and  C_34
REMARK    9  A    between atoms: C_34  and  C_35
REMARK   10  A    between atoms: C_35  and  C_36
REMARK   11  A    between atoms: C_36  and  C_37
REMARK   12  A    between atoms: C_36  and  C_38
REMARK   13  A    between atoms: C_36  and  O_39
REMARK                            x       y       z     vdW  Elec       q    Type
REMARK                         _______ _______ _______ _____ _____    ______ ____
ROOT
ATOM      1  C   UNL     1      -2.620  -0.386  -0.013  0.00  0.00    +0.252 C 
ATOM      2  O   UNL     1      -3.215  -0.161  -1.050  0.00  0.00    -0.270 OA
ATOM      3  N   UNL     1      -3.230  -0.181   1.172  0.00  0.00    -0.296 N 
ATOM      4  C   UNL     1      -2.671  -0.389   2.529  0.00  0.00    +0.121 C 
ATOM      5  C   UNL     1      -3.209   0.798   3.358  0.00  0.00    +0.100 C 
ATOM      6  C   UNL     1      -4.481   1.248   2.622  0.00  0.00    -0.004 C 
ATOM      7  C   UNL     1      -4.607   0.311   1.411  0.00  0.00    +0.115 C 
ATOM      8  C   UNL     1      -4.337   2.692   2.150  0.00  0.00    -0.010 C 
ATOM      9  C   UNL     1      -5.636   3.135   1.471  0.00  0.00    -0.082 C 
ATOM     10  N   UNL     1      -6.750   3.017   2.419  0.00  0.00    +0.379 N 
ATOM     11  C   UNL     1      -6.942   1.612   2.796  0.00  0.00    -0.082 C 
ATOM     12  C   UNL     1      -5.698   1.105   3.531  0.00  0.00    -0.010 C 
ATOM     13  H   UNL     1      -6.547   3.561   3.244  0.00  0.00    -0.086 HD
ATOM     14  H   UNL     1      -7.594   3.367   1.989  0.00  0.00    -0.086 HD
ENDROOT
BRANCH   1  17
ATOM     15  C   UNL     1      -0.041   1.379  -0.035  0.00  0.00    +0.090 C 
ATOM     16  C   UNL     1      -0.099  -0.127  -0.061  0.00  0.00    +0.147 A 
ATOM     17  C   UNL     1      -1.234  -0.883  -0.052  0.00  0.00    +0.106 A 
ATOM     18  C   UNL     1      -0.807  -2.290  -0.087  0.00  0.00    +0.127 A 
ATOM     19  N   UNL     1       0.501  -2.290  -0.114  0.00  0.00    -0.077 NA
ATOM     20  O   UNL     1       0.952  -0.950  -0.104  0.00  0.00    -0.359 OA
BRANCH  18  21
ATOM     21  C   UNL     1      -1.691  -3.481  -0.091  0.00  0.00    +0.023 A 
ATOM     22  C   UNL     1      -3.076  -3.325  -0.065  0.00  0.00    +0.011 A 
ATOM     23  C   UNL     1      -3.893  -4.437  -0.069  0.00  0.00    +0.001 A 
ATOM     24  C   UNL     1      -3.341  -5.705  -0.098  0.00  0.00    +0.001 A 
ATOM     25  C   UNL     1      -1.968  -5.867  -0.124  0.00  0.00    +0.020 A 
ATOM     26  C   UNL     1      -1.139  -4.761  -0.126  0.00  0.00    +0.050 A 
ATOM     27 CL   UNL     1       0.584  -4.966  -0.166  0.00  0.00    -0.083 Cl
ENDBRANCH  18  21
ENDBRANCH   1  17
BRANCH   5  28
ATOM     28  C   UNL     1      -3.541   0.352   4.759  0.00  0.00    +0.218 C 
ATOM     29  O   UNL     1      -3.932  -0.779   4.958  0.00  0.00    -0.275 OA
ATOM     30  N   UNL     1      -3.403   1.209   5.790  0.00  0.00    -0.312 N 
ATOM     31  H   UNL     1      -3.091   2.113   5.630  0.00  0.00    +0.149 HD
BRANCH  30  32
ATOM     32  C   UNL     1      -3.726   0.775   7.152  0.00  0.00    +0.070 C 
ATOM     33  C   UNL     1      -2.512   0.073   7.764  0.00  0.00    +0.028 C 
BRANCH  32  34
ATOM     34  C   UNL     1      -4.093   1.993   8.001  0.00  0.00    +0.022 C 
BRANCH  34  35
ATOM     35  C   UNL     1      -5.379   2.622   7.462  0.00  0.00    +0.005 C 
BRANCH  35  36
ATOM     36  C   UNL     1      -5.747   3.840   8.311  0.00  0.00    +0.034 C 
BRANCH  36  37
ATOM     37  C   UNL     1      -7.033   4.469   7.772  0.00  0.00    +0.061 C 
ATOM     38  C   UNL     1      -7.333   5.757   8.541  0.00  0.00    +0.041 C 
ATOM     39  C   UNL     1      -6.859   4.792   6.286  0.00  0.00    +0.041 C 
BRANCH  37  40
ATOM     40  O   UNL     1      -8.117   3.553   7.936  0.00  0.00    -0.389 OA
ATOM     41  H   UNL     1      -8.285   3.303   8.855  0.00  0.00    +0.210 HD
ENDBRANCH  37  40
ENDBRANCH  36  37
ENDBRANCH  35  36
ENDBRANCH  34  35
ENDBRANCH  32  34
ENDBRANCH  30  32
ENDBRANCH   5  28
TORSDOF 9
