REMARK  Name = ZINC14478661
REMARK  3 active torsions:
REMARK  status: ('A' for Active; 'I' for Inactive)
REMARK    1  A    between atoms: C_1  and  C_2
REMARK    2  A    between atoms: C_7  and  C_8
REMARK    3  A    between atoms: C_21  and  N_24
REMARK                            x       y       z     vdW  Elec       q    Type
REMARK                         _______ _______ _______ _____ _____    ______ ____
ROOT
ATOM      1  C   UNL     1       3.684  -2.074  -0.007  0.00  0.00    +0.105 C 
ATOM      2  C   UNL     1       2.507  -2.587  -0.809  0.00  0.00    +0.029 C 
ATOM      3  C   UNL     1       2.257  -4.100  -0.832  0.00  0.00    +0.033 C 
ATOM      4  C   UNL     1       0.738  -4.154  -1.017  0.00  0.00    -0.030 C 
ATOM      5  C   UNL     1       0.183  -3.047  -0.536  0.00  0.00    -0.023 C 
ATOM      6  C   UNL     1       1.252  -2.166   0.018  0.00  0.00    +0.049 C 
ATOM      7  C   UNL     1       1.200  -0.688  -0.012  0.00  0.00    -0.017 A 
ATOM      8  C   UNL     1       0.002  -0.004   0.002  0.00  0.00    +0.006 A 
ATOM      9  C   UNL     1      -0.017   1.378   0.010  0.00  0.00    +0.003 A 
ATOM     10  C   UNL     1       1.176   2.078   0.002  0.00  0.00    +0.034 A 
ATOM     11  C   UNL     1       2.376   1.403  -0.021  0.00  0.00    +0.147 A 
ATOM     12  C   UNL     1       2.412   0.007  -0.036  0.00  0.00    +0.062 A 
ATOM     13  N   UNL     1       3.662  -0.605  -0.096  0.00  0.00    -0.335 N 
ATOM     14  H   UNL     1       4.299  -0.192   0.569  0.00  0.00    +0.147 HD
ENDROOT
BRANCH   1  21
ATOM     15  C   UNL     1       4.721  -4.636   0.835  0.00  0.00    +0.044 C 
ATOM     16  C   UNL     1       4.051  -3.729   1.834  0.00  0.00    -0.045 A 
ATOM     17  C   UNL     1       3.932  -4.123   3.154  0.00  0.00    +0.004 A 
ATOM     18  C   UNL     1       3.318  -3.291   4.071  0.00  0.00    +0.000 A 
ATOM     19  C   UNL     1       2.821  -2.065   3.668  0.00  0.00    +0.000 A 
ATOM     20  C   UNL     1       2.945  -1.669   2.350  0.00  0.00    +0.006 A 
ATOM     21  C   UNL     1       3.555  -2.503   1.432  0.00  0.00    -0.024 A 
ENDBRANCH   1  21
BRANCH  11  22
ATOM     22  N   UNL     1       3.644   2.167  -0.029  0.00  0.00    +0.058 N 
ATOM     23  O   UNL     1       3.622   3.385  -0.016  0.00  0.00    -0.126 OA
ATOM     24  O   UNL     1       4.710   1.577  -0.049  0.00  0.00    -0.126 OA
ENDBRANCH  11  22
TORSDOF 2
