REMARK  Name = ZINC08738421
REMARK  19 active torsions:
REMARK  status: ('A' for Active; 'I' for Inactive)
REMARK    1  A    between atoms: C_1  and  C_2
REMARK    2  A    between atoms: C_4  and  C_13
REMARK    3  A    between atoms: C_7  and  O_8
REMARK    4  A    between atoms: O_8  and  C_9
REMARK    5  A    between atoms: C_9  and  C_10
REMARK    6  A    between atoms: C_10  and  C_11
REMARK    7  A    between atoms: C_10  and  C_12
REMARK    8  A    between atoms: C_13  and  C_15
REMARK    9  A    between atoms: C_16  and  O_36
REMARK   10  A    between atoms: N_19  and  C_31
REMARK   11  A    between atoms: C_20  and  C_22
REMARK   12  A    between atoms: C_25  and  O_30
REMARK   13  A    between atoms: C_26  and  O_28
REMARK   14  A    between atoms: O_28  and  C_29
REMARK   15  A    between atoms: C_31  and  C_32
REMARK   16  A    between atoms: C_32  and  C_33
REMARK   17  A    between atoms: C_33  and  N_72
REMARK   18  A    between atoms: C_34  and  N_72
REMARK   19  A    between atoms: C_35  and  N_72
REMARK                            x       y       z     vdW  Elec       q    Type
REMARK                         _______ _______ _______ _____ _____    ______ ____
ROOT
ATOM      1  C   UNL     1      -2.510  -5.627  -1.725  0.00  0.00    +0.071 C 
ATOM      2  C   UNL     1      -2.273  -5.533  -0.396  0.00  0.00    +0.188 C 
ATOM      3  C   UNL     1      -2.238  -4.107  -0.008  0.00  0.00    +0.282 C 
ATOM      4  O   UNL     1      -2.045  -3.696   1.118  0.00  0.00    -0.267 OA
ATOM      5  N   UNL     1      -2.451  -3.333  -1.087  0.00  0.00    -0.284 N 
ATOM      6  C   UNL     1      -2.644  -4.215  -2.245  0.00  0.00    +0.145 C 
ENDROOT
BRANCH   6   7
ATOM      7  C   UNL     1      -1.586  -3.946  -3.283  0.00  0.00    -0.019 A 
ATOM      8  C   UNL     1      -0.255  -3.882  -2.913  0.00  0.00    +0.009 A 
ATOM      9  C   UNL     1       0.720  -3.642  -3.863  0.00  0.00    +0.049 A 
ATOM     10  C   UNL     1       0.363  -3.452  -5.188  0.00  0.00    +0.158 A 
ATOM     11  C   UNL     1      -0.976  -3.509  -5.561  0.00  0.00    +0.162 A 
ATOM     12  C   UNL     1      -1.948  -3.757  -4.604  0.00  0.00    +0.055 A 
BRANCH  11  13
ATOM     13  O   UNL     1      -1.331  -3.324  -6.860  0.00  0.00    -0.491 OA
ATOM     14  C   UNL     1      -2.729  -3.287  -7.152  0.00  0.00    +0.277 C 
ENDBRANCH  11  13
BRANCH  10  15
ATOM     15  O   UNL     1       1.321  -3.209  -6.123  0.00  0.00    -0.503 OA
ATOM     16  H   UNL     1       1.520  -2.271  -6.248  0.00  0.00    +0.292 HD
ENDBRANCH  10  15
ENDBRANCH   6   7
BRANCH   1  17
ATOM     17  C   UNL     1      -2.623  -6.861  -2.508  0.00  0.00    +0.195 C 
ATOM     18  O   UNL     1      -1.654  -7.585  -2.646  0.00  0.00    -0.287 OA
BRANCH  17  22
ATOM     19  C   UNL     1      -5.369 -10.057  -5.176  0.00  0.00    +0.047 C 
ATOM     20  C   UNL     1      -5.236  -8.764  -4.414  0.00  0.00    -0.008 A 
ATOM     21  C   UNL     1      -4.033  -8.427  -3.836  0.00  0.00    +0.018 A 
ATOM     22  C   UNL     1      -3.911  -7.227  -3.130  0.00  0.00    +0.023 A 
ATOM     23  C   UNL     1      -5.014  -6.376  -3.009  0.00  0.00    +0.015 A 
ATOM     24  C   UNL     1      -6.212  -6.718  -3.594  0.00  0.00    +0.046 A 
ATOM     25  C   UNL     1      -6.329  -7.912  -4.296  0.00  0.00    +0.123 A 
BRANCH  25  26
ATOM     26  O   UNL     1      -7.513  -8.248  -4.868  0.00  0.00    -0.491 OA
BRANCH  26  27
ATOM     27  C   UNL     1      -8.561  -7.279  -4.804  0.00  0.00    +0.232 C 
BRANCH  27  28
ATOM     28  C   UNL     1      -9.769  -7.782  -5.598  0.00  0.00    +0.020 C 
ATOM     29  C   UNL     1     -10.934  -6.805  -5.428  0.00  0.00    +0.010 C 
ATOM     30  C   UNL     1      -9.400  -7.883  -7.079  0.00  0.00    +0.010 C 
ENDBRANCH  27  28
ENDBRANCH  26  27
ENDBRANCH  25  26
ENDBRANCH  17  22
ENDBRANCH   1  17
BRANCH   2  31
ATOM     31  O   UNL     1      -2.098  -6.579   0.445  0.00  0.00    -0.502 OA
ATOM     32  H   UNL     1      -1.939  -6.238   1.372  0.00  0.00    +0.292 HD
ENDBRANCH   2  31
BRANCH   5  33
ATOM     33  C   UNL     1      -2.489  -1.868  -1.104  0.00  0.00    +0.107 C 
BRANCH  33  34
ATOM     34  C   UNL     1      -1.083  -1.324  -1.365  0.00  0.00    +0.000 C 
BRANCH  34  35
ATOM     35  C   UNL     1      -1.123   0.205  -1.382  0.00  0.00    -0.078 C 
BRANCH  35  38
ATOM     36  C   UNL     1       0.192   2.174  -1.891  0.00  0.00    -0.097 C 
ATOM     37  C   UNL     1       1.128   0.414  -0.516  0.00  0.00    -0.097 C 
ATOM     38  N   UNL     1       0.237   0.715  -1.656  0.00  0.00    +0.376 N 
ATOM     39  H   UNL     1       0.603   0.253  -2.497  0.00  0.00    -0.083 HD
ENDBRANCH  35  38
ENDBRANCH  34  35
ENDBRANCH  33  34
ENDBRANCH   5  33
TORSDOF 13
