REMARK  Name = ZINC13467051
REMARK  4 active torsions:
REMARK  status: ('A' for Active; 'I' for Inactive)
REMARK    1  A    between atoms: C_1  and  C_2
REMARK    2  A    between atoms: N_14  and  N_15
REMARK    3  A    between atoms: C_22  and  C_29
REMARK    4  A    between atoms: C_25  and  O_28
REMARK                            x       y       z     vdW  Elec       q    Type
REMARK                         _______ _______ _______ _____ _____    ______ ____
ROOT
ATOM      1  C   UNL     1      -6.079   3.511   3.584  0.00  0.00    +0.018 C 
ATOM      2  C   UNL     1      -4.730   3.877   4.207  0.00  0.00    +0.011 C 
ATOM      3  C   UNL     1      -4.042   5.029   3.468  0.00  0.00    +0.013 C 
ATOM      4  C   UNL     1      -3.561   4.558   2.083  0.00  0.00    +0.005 C 
ATOM      5  C   UNL     1      -2.498   3.471   2.288  0.00  0.00    +0.003 C 
ATOM      6  C   UNL     1      -3.150   2.275   2.986  0.00  0.00    +0.001 C 
ATOM      7  C   UNL     1      -3.791   2.663   4.296  0.00  0.00    +0.005 C 
ATOM      8  C   UNL     1      -2.758   3.098   5.354  0.00  0.00    +0.010 C 
ATOM      9  C   UNL     1      -3.619   3.863   6.387  0.00  0.00    +0.053 C 
ATOM     10  C   UNL     1      -4.871   4.317   5.664  0.00  0.00    +0.043 C 
ATOM     11  N   UNL     1      -5.859   4.950   6.176  0.00  0.00    -0.187 NA
ATOM     12  C   UNL     1      -2.061   1.229   3.262  0.00  0.00    +0.031 C 
ATOM     13  C   UNL     1      -1.326   0.913   1.994  0.00  0.00    -0.027 C 
ATOM     14  C   UNL     1      -1.297   1.700   0.983  0.00  0.00    -0.065 C 
ATOM     15  C   UNL     1      -1.968   3.047   0.924  0.00  0.00    -0.008 C 
ATOM     16  C   UNL     1      -3.087   3.009  -0.114  0.00  0.00    +0.014 C 
ATOM     17  C   UNL     1      -2.760   1.983  -1.198  0.00  0.00    +0.032 C 
ATOM     18  C   UNL     1      -1.257   1.921  -1.463  0.00  0.00    +0.119 C 
ATOM     19  C   UNL     1      -0.552   1.263  -0.268  0.00  0.00    +0.062 C 
ATOM     20  C   UNL     1      -0.931   4.077   0.472  0.00  0.00    +0.016 C 
ENDROOT
BRANCH  11  21
ATOM     21  N   UNL     1      -5.845   5.288   7.535  0.00  0.00    -0.191 N 
ATOM     22  C   UNL     1      -6.885   5.955   8.075  0.00  0.00    +0.317 C 
ATOM     23  O   UNL     1      -6.873   6.248   9.254  0.00  0.00    -0.251 OA
ATOM     24  N   UNL     1      -7.939   6.296   7.306  0.00  0.00    -0.312 N 
ATOM     25  H   UNL     1      -5.087   5.043   8.088  0.00  0.00    +0.179 HD
ATOM     26  H   UNL     1      -7.948   6.062   6.365  0.00  0.00    +0.147 HD
ATOM     27  H   UNL     1      -8.687   6.775   7.694  0.00  0.00    +0.147 HD
ENDBRANCH  11  21
BRANCH  18  28
ATOM     28  O   UNL     1      -0.751   3.245  -1.643  0.00  0.00    -0.391 OA
ATOM     29  H   UNL     1       0.177   3.279  -1.910  0.00  0.00    +0.210 HD
ENDBRANCH  18  28
TORSDOF 2
