REMARK  Name = ZINC23300161
REMARK  10 active torsions:
REMARK  status: ('A' for Active; 'I' for Inactive)
REMARK    1  A    between atoms: C_1  and  C_2
REMARK    2  A    between atoms: C_9  and  N_15
REMARK    3  A    between atoms: C_10  and  C_11
REMARK    4  A    between atoms: C_11  and  O_13
REMARK    5  A    between atoms: O_13  and  C_14
REMARK    6  A    between atoms: C_16  and  C_18
REMARK    7  A    between atoms: C_18  and  N_19
REMARK    8  A    between atoms: N_22  and  C_25
REMARK    9  A    between atoms: C_25  and  C_26
REMARK   10  A    between atoms: N_28  and  C_29
REMARK                            x       y       z     vdW  Elec       q    Type
REMARK                         _______ _______ _______ _____ _____    ______ ____
ROOT
ATOM      1  N   UNL     1      -2.307  -5.916   0.763  0.00  0.00    -0.278 N 
ATOM      2  C   UNL     1      -3.571  -6.203   0.396  0.00  0.00    +0.232 C 
ATOM      3  O   UNL     1      -4.299  -5.323  -0.012  0.00  0.00    -0.274 OA
ATOM      4  H   UNL     1      -1.647  -6.714   1.133  0.00  0.00    +0.155 HD
ENDROOT
BRANCH   1  12
ATOM      5  C   UNL     1      -0.019   1.526   0.010  0.00  0.00    +0.008 C 
ATOM      6  C   UNL     1       0.002  -0.004   0.002  0.00  0.00    -0.009 C 
ATOM      7  C   UNL     1       0.742  -0.514   1.242  0.00  0.00    +0.008 C 
ATOM      8  C   UNL     1       0.984  -2.020   1.121  0.00  0.00    +0.037 C 
ATOM      9  C   UNL     1      -0.341  -2.706   0.809  0.00  0.00    -0.021 A 
ATOM     10  C   UNL     1      -1.390  -2.006   0.327  0.00  0.00    -0.004 A 
ATOM     11  S   UNL     1      -2.678  -3.203   0.124  0.00  0.00    -0.077 S 
ATOM     12  C   UNL     1      -1.837  -4.615   0.672  0.00  0.00    +0.086 A 
ATOM     13  C   UNL     1      -0.579  -4.127   0.999  0.00  0.00    +0.091 A 
ATOM     14  C   UNL     1      -1.437  -0.538   0.031  0.00  0.00    +0.046 C 
BRANCH  13  15
ATOM     15  C   UNL     1       0.468  -5.011   1.515  0.00  0.00    +0.342 C 
ATOM     16  O   UNL     1       0.576  -5.191   2.713  0.00  0.00    -0.245 OA
BRANCH  15  17
ATOM     17  O   UNL     1       1.314  -5.624   0.662  0.00  0.00    -0.464 OA
ATOM     18  C   UNL     1       2.327  -6.486   1.244  0.00  0.00    +0.280 C 
ENDBRANCH  15  17
ENDBRANCH  13  15
ENDBRANCH   1  12
BRANCH   2  19
ATOM     19  C   UNL     1      -4.082  -7.618   0.495  0.00  0.00    +0.180 C 
BRANCH  19  20
ATOM     20  N   UNL     1      -5.477  -7.668   0.040  0.00  0.00    -0.298 NA
ATOM     21  C   UNL     1      -6.355  -6.919   0.950  0.00  0.00    +0.066 C 
ATOM     22  C   UNL     1      -7.783  -6.928   0.400  0.00  0.00    -0.063 C 
ATOM     23  N   UNL     1      -8.241  -8.317   0.255  0.00  0.00    +0.387 N 
ATOM     24  C   UNL     1      -7.363  -9.066  -0.655  0.00  0.00    -0.063 C 
ATOM     25  C   UNL     1      -5.935  -9.057  -0.105  0.00  0.00    +0.066 C 
ATOM     26  H   UNL     1      -8.192  -8.796   1.245  0.00  0.00    -0.081 HD
BRANCH  23  27
ATOM     27  C   UNL     1      -9.637  -8.367  -0.200  0.00  0.00    +0.019 C 
BRANCH  27  28
ATOM     28  C   UNL     1     -10.535  -7.807   0.873  0.00  0.00    +0.197 C 
ATOM     29  O   UNL     1     -10.059  -7.405   1.914  0.00  0.00    -0.278 OA
ATOM     30  N   UNL     1     -11.867  -7.752   0.675  0.00  0.00    -0.314 N 
ATOM     31  H   UNL     1     -12.299  -8.116  -0.269  0.00  0.00    +0.149 HD
BRANCH  30  32
ATOM     32  C   UNL     1     -12.740  -7.207   1.718  0.00  0.00    +0.073 C 
ATOM     33  C   UNL     1     -14.033  -7.965   2.024  0.00  0.00    +0.024 C 
ATOM     34  C   UNL     1     -14.087  -6.628   1.280  0.00  0.00    +0.024 C 
ENDBRANCH  30  32
ENDBRANCH  27  28
ENDBRANCH  23  27
ENDBRANCH  19  20
ENDBRANCH   2  19
TORSDOF 8
