REMARK  Name = ZINC66938910
REMARK  10 active torsions:
REMARK  status: ('A' for Active; 'I' for Inactive)
REMARK    1  A    between atoms: C_1  and  C_2
REMARK    2  A    between atoms: C_6  and  C_28
REMARK    3  A    between atoms: C_7  and  O_8
REMARK    4  A    between atoms: O_8  and  C_9
REMARK    5  A    between atoms: C_9  and  C_11
REMARK    6  A    between atoms: C_9  and  C_12
REMARK    7  A    between atoms: N_14  and  N_15
REMARK    8  A    between atoms: N_15  and  C_16
REMARK    9  A    between atoms: C_16  and  C_18
REMARK   10  A    between atoms: C_16  and  C_25
REMARK                            x       y       z     vdW  Elec       q    Type
REMARK                         _______ _______ _______ _____ _____    ______ ____
ROOT
ATOM      1  C   UNL     1      -2.122   1.366   6.010  0.00  0.00    +0.267 C 
ATOM      2  O   UNL     1      -0.942   1.091   6.038  0.00  0.00    -0.270 OA
ATOM      3  N   UNL     1      -2.807   1.513   7.162  0.00  0.00    -0.247 N 
ATOM      4  H   UNL     1      -3.751   1.734   7.140  0.00  0.00    +0.169 HD
ENDROOT
BRANCH   1   5
ATOM      5  C   UNL     1      -2.824   1.545   4.688  0.00  0.00    +0.257 C 
ATOM      6  C   UNL     1      -3.286   2.997   4.548  0.00  0.00    +0.062 C 
BRANCH   5   7
ATOM      7  O   UNL     1      -1.924   1.226   3.625  0.00  0.00    -0.479 OA
BRANCH   7  14
ATOM      8  C   UNL     1      -2.368  -1.560   3.751  0.00  0.00    +0.047 C 
ATOM      9  C   UNL     1      -2.695  -0.740   2.530  0.00  0.00    -0.007 A 
ATOM     10  C   UNL     1      -3.240  -1.347   1.415  0.00  0.00    +0.027 A 
ATOM     11  C   UNL     1      -3.541  -0.594   0.293  0.00  0.00    +0.042 A 
ATOM     12  C   UNL     1      -3.296   0.768   0.286  0.00  0.00    +0.027 A 
ATOM     13  C   UNL     1      -2.752   1.379   1.399  0.00  0.00    -0.007 A 
ATOM     14  C   UNL     1      -2.455   0.626   2.527  0.00  0.00    +0.127 A 
ATOM     15  C   UNL     1      -2.485   2.862   1.391  0.00  0.00    +0.047 C 
ATOM     16 CL   UNL     1      -4.224  -1.359  -1.107  0.00  0.00    -0.084 Cl
ENDBRANCH   7  14
ENDBRANCH   5   7
ENDBRANCH   1   5
BRANCH   3  17
ATOM     17  N   UNL     1      -2.171   1.351   8.360  0.00  0.00    -0.224 NA
ATOM     18  H   UNL     1      -1.646   0.490   8.377  0.00  0.00    +0.145 HD
BRANCH  17  19
ATOM     19  C   UNL     1      -3.126   1.408   9.475  0.00  0.00    +0.188 C 
BRANCH  19  20
ATOM     20  C   UNL     1      -4.040   0.211   9.414  0.00  0.00    -0.020 A 
ATOM     21  C   UNL     1      -3.980  -0.754  10.403  0.00  0.00    +0.008 A 
ATOM     22  C   UNL     1      -4.817  -1.852  10.349  0.00  0.00    +0.038 A 
ATOM     23  C   UNL     1      -5.717  -1.986   9.305  0.00  0.00    +0.123 A 
ATOM     24  C   UNL     1      -5.775  -1.019   8.315  0.00  0.00    +0.038 A 
ATOM     25  C   UNL     1      -4.941   0.081   8.374  0.00  0.00    +0.008 A 
ATOM     26  F   UNL     1      -6.535  -3.059   9.251  0.00  0.00    -0.205 F 
ENDBRANCH  19  20
BRANCH  19  27
ATOM     27  C   UNL     1      -3.944   2.669   9.372  0.00  0.00    +0.234 C 
ATOM     28  O   UNL     1      -3.750   3.445   8.460  0.00  0.00    -0.274 OA
ATOM     29  N   UNL     1      -4.891   2.936  10.294  0.00  0.00    -0.328 N 
ATOM     30  H   UNL     1      -5.045   2.315  11.023  0.00  0.00    +0.145 HD
ATOM     31  H   UNL     1      -5.417   3.748  10.228  0.00  0.00    +0.145 HD
ENDBRANCH  19  27
ENDBRANCH  17  19
ENDBRANCH   3  17
TORSDOF 7
