REMARK  Name = ZINC65491765
REMARK  7 active torsions:
REMARK  status: ('A' for Active; 'I' for Inactive)
REMARK    1  A    between atoms: C_1  and  C_2
REMARK    2  A    between atoms: C_5  and  C_31
REMARK    3  A    between atoms: N_13  and  C_14
REMARK    4  A    between atoms: C_14  and  C_15
REMARK    5  A    between atoms: N_17  and  C_18
REMARK    6  A    between atoms: C_18  and  C_20
REMARK    7  A    between atoms: C_18  and  C_21
REMARK                            x       y       z     vdW  Elec       q    Type
REMARK                         _______ _______ _______ _____ _____    ______ ____
ROOT
ATOM      1  C   UNL     1      -0.047  -1.084   2.282  0.00  0.00    +0.201 C 
ENDROOT
BRANCH   1  12
ATOM      2  C   UNL     1      -0.005   1.545   0.011  0.00  0.00    +0.028 C 
ATOM      3  C   UNL     1      -0.009   0.015  -0.016  0.00  0.00    +0.072 C 
ATOM      4  C   UNL     1       0.728  -0.484  -1.266  0.00  0.00    +0.039 C 
ATOM      5  C   UNL     1       2.141   0.099  -1.272  0.00  0.00    +0.108 C 
ATOM      6  C   UNL     1       2.822  -0.157   0.046  0.00  0.00    -0.014 A 
ATOM      7  C   UNL     1       4.205  -0.107   0.107  0.00  0.00    +0.006 A 
ATOM      8  C   UNL     1       4.859  -0.334   1.302  0.00  0.00    +0.000 A 
ATOM      9  C   UNL     1       4.136  -0.613   2.448  0.00  0.00    +0.002 A 
ATOM     10  C   UNL     1       2.757  -0.666   2.396  0.00  0.00    +0.023 A 
ATOM     11  C   UNL     1       2.097  -0.439   1.194  0.00  0.00    +0.034 A 
ATOM     12  N   UNL     1       0.698  -0.505   1.161  0.00  0.00    -0.318 N 
BRANCH   5  13
ATOM     13  C   UNL     1       2.941  -0.546  -2.374  0.00  0.00    +0.218 C 
ATOM     14  O   UNL     1       2.775  -1.718  -2.638  0.00  0.00    -0.275 OA
ATOM     15  N   UNL     1       3.840   0.180  -3.067  0.00  0.00    -0.329 N 
ATOM     16  H   UNL     1       4.025   1.097  -2.811  0.00  0.00    +0.145 HD
ATOM     17  H   UNL     1       4.303  -0.215  -3.823  0.00  0.00    +0.145 HD
ENDBRANCH   5  13
ENDBRANCH   1  12
BRANCH   1  18
ATOM     18  C   UNL     1      -0.227  -2.563   2.055  0.00  0.00    +0.231 C 
ATOM     19  O   UNL     1       0.223  -3.083   1.055  0.00  0.00    -0.274 OA
ATOM     20  N   UNL     1      -0.888  -3.309   2.962  0.00  0.00    -0.307 N 
ATOM     21  H   UNL     1      -1.248  -2.894   3.761  0.00  0.00    +0.149 HD
BRANCH  20  22
ATOM     22  C   UNL     1      -1.063  -4.747   2.741  0.00  0.00    +0.100 C 
ATOM     23  C   UNL     1       0.173  -5.494   3.245  0.00  0.00    +0.033 C 
BRANCH  22  24
ATOM     24  C   UNL     1      -2.280  -5.225   3.491  0.00  0.00    -0.024 A 
ATOM     25  C   UNL     1      -2.548  -4.736   4.756  0.00  0.00    +0.009 A 
ATOM     26  C   UNL     1      -3.662  -5.174   5.447  0.00  0.00    +0.050 A 
ATOM     27  C   UNL     1      -4.514  -6.105   4.872  0.00  0.00    +0.162 A 
ATOM     28  C   UNL     1      -4.246  -6.595   3.600  0.00  0.00    +0.162 A 
ATOM     29  C   UNL     1      -3.129  -6.149   2.910  0.00  0.00    +0.055 A 
ATOM     30  O   UNL     1      -5.074  -7.504   3.015  0.00  0.00    -0.485 OA
ATOM     31  C   UNL     1      -5.978  -8.201   3.878  0.00  0.00    +0.270 C 
ATOM     32  C   UNL     1      -6.636  -7.176   4.813  0.00  0.00    +0.270 C 
ATOM     33  O   UNL     1      -5.605  -6.530   5.567  0.00  0.00    -0.485 OA
ENDBRANCH  22  24
ENDBRANCH  20  22
ENDBRANCH   1  18
TORSDOF 5
