REMARK  Name = ZINC63878464
REMARK  9 active torsions:
REMARK  status: ('A' for Active; 'I' for Inactive)
REMARK    1  A    between atoms: C_1  and  C_2
REMARK    2  A    between atoms: C_5  and  C_22
REMARK    3  A    between atoms: C_7  and  N_8
REMARK    4  A    between atoms: N_8  and  S_9
REMARK    5  A    between atoms: S_9  and  C_12
REMARK    6  A    between atoms: C_14  and  C_21
REMARK    7  A    between atoms: C_15  and  O_19
REMARK    8  A    between atoms: C_17  and  C_18
REMARK    9  A    between atoms: O_19  and  C_20
REMARK                            x       y       z     vdW  Elec       q    Type
REMARK                         _______ _______ _______ _____ _____    ______ ____
ROOT
ATOM      1  S   UNL     1       0.762  -0.538   3.759  0.00  0.00    +0.073 S 
ATOM      2  O   UNL     1      -0.029  -0.239   2.616  0.00  0.00    -0.150 OA
ATOM      3  O   UNL     1       0.651   0.189   4.974  0.00  0.00    -0.150 OA
ENDROOT
BRANCH   1   4
ATOM      4  C   UNL     1       2.445  -0.418   3.252  0.00  0.00    +0.112 A 
ATOM      5  C   UNL     1       3.341   0.321   4.003  0.00  0.00    +0.036 A 
ATOM      6  C   UNL     1       4.661   0.417   3.607  0.00  0.00    -0.007 A 
ATOM      7  C   UNL     1       5.088  -0.228   2.456  0.00  0.00    +0.123 A 
ATOM      8  C   UNL     1       4.188  -0.969   1.705  0.00  0.00    +0.051 A 
ATOM      9  C   UNL     1       2.869  -1.067   2.107  0.00  0.00    -0.020 A 
ATOM     10  C   UNL     1       1.892  -1.876   1.295  0.00  0.00    +0.046 C 
ATOM     11  C   UNL     1       5.636   1.223   4.426  0.00  0.00    +0.047 C 
BRANCH   7  12
ATOM     12  O   UNL     1       6.386  -0.135   2.065  0.00  0.00    -0.495 OA
ATOM     13  C   UNL     1       6.755  -0.825   0.869  0.00  0.00    +0.277 C 
ENDBRANCH   7  12
ENDBRANCH   1   4
BRANCH   1  14
ATOM     14  N   UNL     1       0.475  -2.127   4.130  0.00  0.00    -0.216 N 
ATOM     15  H   UNL     1      -0.205  -2.622   3.647  0.00  0.00    +0.174 HD
BRANCH  14  22
ATOM     16  C   UNL     1       1.136  -4.869   3.794  0.00  0.00    +0.046 C 
ATOM     17  C   UNL     1       1.558  -4.093   5.015  0.00  0.00    -0.028 A 
ATOM     18  C   UNL     1       2.292  -4.716   6.008  0.00  0.00    +0.006 A 
ATOM     19  C   UNL     1       2.682  -4.013   7.129  0.00  0.00    +0.019 A 
ATOM     20  C   UNL     1       2.335  -2.667   7.264  0.00  0.00    +0.054 A 
ATOM     21  C   UNL     1       1.595  -2.038   6.263  0.00  0.00    +0.043 A 
ATOM     22  C   UNL     1       1.212  -2.753   5.138  0.00  0.00    +0.052 A 
BRANCH  20  23
ATOM     23  C   UNL     1       2.738  -1.935   8.427  0.00  0.00    +0.099 C 
ATOM     24  N   UNL     1       3.058  -1.354   9.349  0.00  0.00    -0.191 NA
ENDBRANCH  20  23
ENDBRANCH  14  22
ENDBRANCH   1  14
TORSDOF 5
