REMARK  Name = ZINC54618891
REMARK  6 active torsions:
REMARK  status: ('A' for Active; 'I' for Inactive)
REMARK    1  A    between atoms: C_3  and  N_10
REMARK    2  A    between atoms: C_5  and  N_7
REMARK    3  A    between atoms: N_10  and  C_11
REMARK    4  A    between atoms: C_11  and  C_13
REMARK    5  A    between atoms: C_11  and  C_20
REMARK    6  A    between atoms: C_29  and  O_30
REMARK                            x       y       z     vdW  Elec       q    Type
REMARK                         _______ _______ _______ _____ _____    ______ ____
ROOT
ATOM      1  C   UNL     1       3.564   3.587  -0.014  0.00  0.00    +0.135 C 
ENDROOT
BRANCH   1   2
ATOM      2  C   UNL     1       4.795   4.101   0.687  0.00  0.00    +0.021 A 
ATOM      3  C   UNL     1       5.970   3.354   0.645  0.00  0.00    +0.010 A 
ATOM      4  C   UNL     1       7.099   3.791   1.268  0.00  0.00    +0.010 A 
ATOM      5  C   UNL     1       7.084   5.011   1.964  0.00  0.00    +0.004 A 
ATOM      6  C   UNL     1       8.232   5.495   2.620  0.00  0.00    +0.011 A 
ATOM      7  C   UNL     1       8.143   6.689   3.277  0.00  0.00    +0.020 A 
ATOM      8  C   UNL     1       6.939   7.391   3.284  0.00  0.00    +0.111 A 
ATOM      9  N   UNL     1       5.873   6.936   2.672  0.00  0.00    -0.251 NA
ATOM     10  C   UNL     1       5.893   5.775   2.011  0.00  0.00    +0.113 A 
ATOM     11  C   UNL     1       4.743   5.294   1.349  0.00  0.00    +0.148 A 
BRANCH  11  12
ATOM     12  O   UNL     1       3.590   6.011   1.375  0.00  0.00    -0.504 OA
ATOM     13  H   UNL     1       3.011   5.799   2.120  0.00  0.00    +0.292 HD
ENDBRANCH  11  12
ENDBRANCH   1   2
BRANCH   1  14
ATOM     14  C   UNL     1       3.511   4.147  -1.412  0.00  0.00    -0.023 A 
ATOM     15  C   UNL     1       4.272   3.576  -2.414  0.00  0.00    +0.008 A 
ATOM     16  C   UNL     1       4.224   4.088  -3.696  0.00  0.00    +0.038 A 
ATOM     17  C   UNL     1       3.414   5.175  -3.977  0.00  0.00    +0.123 A 
ATOM     18  C   UNL     1       2.652   5.747  -2.972  0.00  0.00    +0.038 A 
ATOM     19  C   UNL     1       2.697   5.229  -1.692  0.00  0.00    +0.008 A 
ATOM     20  F   UNL     1       3.366   5.678  -5.230  0.00  0.00    -0.205 F 
ENDBRANCH   1  14
BRANCH   1  21
ATOM     21  N   UNL     1       3.612   2.124  -0.076  0.00  0.00    -0.333 N 
ATOM     22  H   UNL     1       4.466   1.665  -0.045  0.00  0.00    +0.147 HD
BRANCH  21  25
ATOM     23  C   UNL     1       0.036   1.317  -0.324  0.00  0.00    +0.004 A 
ATOM     24  C   UNL     1       1.204   2.046  -0.222  0.00  0.00    +0.023 A 
ATOM     25  C   UNL     1       2.428   1.390  -0.178  0.00  0.00    +0.030 A 
ATOM     26  C   UNL     1       2.472   0.003  -0.237  0.00  0.00    +0.055 A 
ATOM     27  C   UNL     1       1.300  -0.720  -0.339  0.00  0.00    +0.128 A 
ATOM     28  C   UNL     1       0.083  -0.064  -0.382  0.00  0.00    +0.033 A 
BRANCH  27  29
ATOM     29  N   UNL     1       1.345  -2.198  -0.403  0.00  0.00    +0.056 N 
ATOM     30  O   UNL     1       2.409  -2.772  -0.365  0.00  0.00    -0.126 OA
ATOM     31  O   UNL     1       0.319  -2.831  -0.492  0.00  0.00    -0.126 OA
ENDBRANCH  27  29
ENDBRANCH  21  25
ENDBRANCH   1  21
TORSDOF 6
