REMARK  Name = ZINC04342943
REMARK  5 active torsions:
REMARK  status: ('A' for Active; 'I' for Inactive)
REMARK    1  A    between atoms: N_9  and  C1*_10
REMARK    2  A    between atoms: C2*_12  and  O2*_22
REMARK    3  A    between atoms: C3*_14  and  O3*_21
REMARK    4  A    between atoms: C4*_16  and  C5*_19
REMARK    5  A    between atoms: C5*_19  and  O5*_20
REMARK                            x       y       z     vdW  Elec       q    Type
REMARK                         _______ _______ _______ _____ _____    ______ ____
ROOT
ATOM      1  C1* UNL     1      -1.904  -1.318  -2.115  0.00  0.00    +0.255 C 
ATOM      2  C2* UNL     1      -2.087  -2.549  -1.191  0.00  0.00    +0.195 C 
ATOM      3  C3* UNL     1      -1.424  -2.071   0.123  0.00  0.00    +0.178 C 
ATOM      4  C4* UNL     1      -1.433  -0.534   0.013  0.00  0.00    +0.177 C 
ATOM      5  O4* UNL     1      -2.089  -0.195  -1.221  0.00  0.00    -0.346 OA
ENDROOT
BRANCH   1  14
ATOM      6  C   UNL     1      -3.785  -0.256  -3.272  0.00  0.00    +0.114 A 
ATOM      7  C   UNL     1      -4.720  -0.250  -4.247  0.00  0.00    +0.098 A 
ATOM      8  C   UNL     1      -4.783  -1.341  -5.149  0.00  0.00    +0.268 A 
ATOM      9  O   UNL     1      -5.617  -1.358  -6.036  0.00  0.00    -0.267 OA
ATOM     10  N   UNL     1      -3.910  -2.360  -5.015  0.00  0.00    -0.274 N 
ATOM     11  H   UNL     1      -3.946  -3.132  -5.650  0.00  0.00    +0.173 HD
ATOM     12  C   UNL     1      -2.992  -2.343  -4.032  0.00  0.00    +0.331 A 
ATOM     13  O   UNL     1      -2.214  -3.272  -3.921  0.00  0.00    -0.246 OA
ATOM     14  N   UNL     1      -2.918  -1.311  -3.172  0.00  0.00    -0.270 N 
ATOM     15 BR   UNL     1      -5.929   1.195  -4.407  0.00  0.00    -0.043 Br
ENDBRANCH   1  14
BRANCH   3  16
ATOM     16  O3* UNL     1      -2.189  -2.496   1.253  0.00  0.00    -0.386 OA
ATOM     17  H3* UNL     1      -1.851  -2.175   2.100  0.00  0.00    +0.210 HD
ENDBRANCH   3  16
BRANCH   2  18
ATOM     18  O2* UNL     1      -3.473  -2.834  -0.989  0.00  0.00    -0.385 OA
ATOM     19  H2* UNL     1      -3.640  -3.539  -0.349  0.00  0.00    +0.210 HD
ENDBRANCH   2  18
BRANCH   4  20
ATOM     20  C5* UNL     1       0.002  -0.004   0.002  0.00  0.00    +0.190 C 
BRANCH  20  21
ATOM     21  O5* UNL     1      -0.017   1.425   0.010  0.00  0.00    -0.392 OA
ATOM     22  H5* UNL     1       0.861   1.830   0.004  0.00  0.00    +0.210 HD
ENDBRANCH  20  21
ENDBRANCH   4  20
TORSDOF 5
