REMARK  Name = ZINC40755787
REMARK  7 active torsions:
REMARK  status: ('A' for Active; 'I' for Inactive)
REMARK    1  A    between atoms: C_1  and  C_2
REMARK    2  A    between atoms: C_2  and  C_3
REMARK    3  A    between atoms: C_2  and  O_4
REMARK    4  A    between atoms: O_4  and  C_5
REMARK    5  A    between atoms: C_6  and  N_22
REMARK    6  A    between atoms: C_7  and  N_11
REMARK    7  A    between atoms: N_11  and  C_12
REMARK                            x       y       z     vdW  Elec       q    Type
REMARK                         _______ _______ _______ _____ _____    ______ ____
ROOT
ATOM      1  C   UNL     1      -0.050  -0.699   2.273  0.00  0.00    +0.241 A 
ATOM      2  C   UNL     1       0.551  -1.156   3.445  0.00  0.00    +0.127 A 
ATOM      3  C   UNL     1      -0.260  -1.368   4.563  0.00  0.00    +0.147 A 
ATOM      4  N   UNL     1      -1.565  -1.127   4.467  0.00  0.00    -0.219 NA
ATOM      5  C   UNL     1      -2.092  -0.696   3.339  0.00  0.00    +0.227 A 
ATOM      6  N   UNL     1      -1.361  -0.479   2.264  0.00  0.00    -0.200 NA
ENDROOT
BRANCH   2   7
ATOM      7  N   UNL     1       1.933  -1.396   3.501  0.00  0.00    -0.351 N 
ATOM      8  H   UNL     1       2.483  -1.245   2.716  0.00  0.00    +0.143 HD
ATOM      9  H   UNL     1       2.337  -1.714   4.323  0.00  0.00    +0.143 HD
ENDBRANCH   2   7
BRANCH   3  10
ATOM     10  N   UNL     1       0.288  -1.823   5.756  0.00  0.00    -0.322 N 
ATOM     11  H   UNL     1       1.240  -1.996   5.817  0.00  0.00    +0.148 HD
BRANCH  10  12
ATOM     12  C   UNL     1      -0.573  -2.041   6.921  0.00  0.00    +0.034 C 
ATOM     13  C   UNL     1      -1.637  -3.087   6.580  0.00  0.00    +0.029 C 
ATOM     14  C   UNL     1      -2.536  -3.315   7.797  0.00  0.00    -0.008 C 
ATOM     15  C   UNL     1      -1.690  -3.812   8.970  0.00  0.00    +0.007 C 
ATOM     16  C   UNL     1      -0.626  -2.767   9.311  0.00  0.00    -0.008 C 
ATOM     17  C   UNL     1       0.273  -2.538   8.095  0.00  0.00    +0.029 C 
ATOM     18  C   UNL     1      -1.308  -1.452   9.695  0.00  0.00    +0.007 C 
ATOM     19  C   UNL     1      -2.154  -0.954   8.522  0.00  0.00    -0.008 C 
ATOM     20  C   UNL     1      -3.218  -2.000   8.181  0.00  0.00    +0.007 C 
ATOM     21  C   UNL     1      -1.255  -0.726   7.305  0.00  0.00    +0.029 C 
ENDBRANCH  10  12
ENDBRANCH   3  10
BRANCH   1  22
ATOM     22  O   UNL     1       0.693  -0.477   1.160  0.00  0.00    -0.472 OA
BRANCH  22  24
ATOM     23  C   UNL     1      -0.019   1.526   0.010  0.00  0.00    +0.051 C 
ATOM     24  C   UNL     1       0.002  -0.004   0.002  0.00  0.00    +0.169 C 
ATOM     25  C   UNL     1       0.718  -0.497  -1.257  0.00  0.00    +0.051 C 
ENDBRANCH  22  24
ENDBRANCH   1  22
TORSDOF 5
