REMARK  Name = ZINC39444095
REMARK  6 active torsions:
REMARK  status: ('A' for Active; 'I' for Inactive)
REMARK    1  A    between atoms: C_1  and  C_2
REMARK    2  A    between atoms: N_16  and  N_17
REMARK    3  A    between atoms: C_18  and  C_19
REMARK    4  A    between atoms: C_23  and  O_26
REMARK    5  A    between atoms: C_24  and  O_25
REMARK    6  A    between atoms: O_26  and  C_27
REMARK                            x       y       z     vdW  Elec       q    Type
REMARK                         _______ _______ _______ _____ _____    ______ ____
ROOT
ATOM      1  C   UNL     1      -0.018   1.503   0.010  0.00  0.00    +0.046 C 
ATOM      2  C   UNL     1       0.002  -0.004   0.002  0.00  0.00    -0.027 A 
ATOM      3  C   UNL     1       0.006  -0.681  -1.168  0.00  0.00    +0.005 A 
ATOM      4  C   UNL     1       0.022  -2.082  -1.210  0.00  0.00    +0.001 A 
ATOM      5  C   UNL     1       0.066  -2.840  -0.090  0.00  0.00    +0.012 A 
ATOM      6  C   UNL     1       0.098  -2.235   1.187  0.00  0.00    +0.025 A 
ATOM      7  C   UNL     1       0.260  -2.710   2.463  0.00  0.00    +0.115 C 
ATOM      8  C   UNL     1      -0.067  -1.533   3.375  0.00  0.00    +0.253 C 
ATOM      9  N   UNL     1      -0.012  -0.359   2.515  0.00  0.00    -0.358 N 
ATOM     10  C   UNL     1       0.024  -0.753   1.264  0.00  0.00    +0.049 A 
ATOM     11  N   UNL     1       0.944  -1.550   4.435  0.00  0.00    -0.220 NA
ATOM     12  C   UNL     1       1.488  -2.698   4.753  0.00  0.00    +0.227 C 
ATOM     13  N   UNL     1       1.212  -3.863   4.118  0.00  0.00    -0.247 N 
ATOM     14  N   UNL     1       0.628  -3.890   2.966  0.00  0.00    -0.171 NA
ATOM     15  N   UNL     1       2.395  -2.723   5.793  0.00  0.00    -0.206 N 
ATOM     16  H   UNL     1       2.814  -3.559   6.051  0.00  0.00    +0.177 HD
ATOM     17  H   UNL     1       1.469  -4.700   4.537  0.00  0.00    +0.192 HD
ATOM     18  H   UNL     1      -0.001   0.563   2.817  0.00  0.00    +0.162 HD
ENDROOT
BRANCH  15  19
ATOM     19  N   UNL     1       2.709  -1.541   6.476  0.00  0.00    -0.187 NA
ATOM     20  C   UNL     1       3.562  -1.564   7.455  0.00  0.00    +0.142 C 
BRANCH  20  21
ATOM     21  C   UNL     1       3.893  -0.321   8.173  0.00  0.00    +0.041 A 
ATOM     22  C   UNL     1       4.816  -0.341   9.224  0.00  0.00    +0.028 A 
ATOM     23  C   UNL     1       5.122   0.825   9.894  0.00  0.00    +0.022 A 
ATOM     24  C   UNL     1       4.521   2.019   9.531  0.00  0.00    +0.064 A 
ATOM     25  C   UNL     1       3.605   2.053   8.491  0.00  0.00    +0.163 A 
ATOM     26  C   UNL     1       3.290   0.887   7.804  0.00  0.00    +0.167 A 
ATOM     27 BR   UNL     1       6.370   0.793  11.315  0.00  0.00    -0.050 Br
BRANCH  26  28
ATOM     28  O   UNL     1       2.396   0.918   6.780  0.00  0.00    -0.503 OA
ATOM     29  H   UNL     1       1.480   0.773   7.053  0.00  0.00    +0.292 HD
ENDBRANCH  26  28
BRANCH  25  30
ATOM     30  O   UNL     1       3.018   3.228   8.141  0.00  0.00    -0.491 OA
ATOM     31  C   UNL     1       3.392   4.388   8.887  0.00  0.00    +0.277 C 
ENDBRANCH  25  30
ENDBRANCH  20  21
ENDBRANCH  15  19
TORSDOF 4
