REMARK  Name = ZINC08896547
REMARK  14 active torsions:
REMARK  status: ('A' for Active; 'I' for Inactive)
REMARK    1  A    between atoms: C_1  and  C_2
REMARK    2  A    between atoms: C_2  and  C_3
REMARK    3  A    between atoms: C_3  and  C_4
REMARK    4  A    between atoms: C_4  and  O_5
REMARK    5  A    between atoms: O_5  and  C_6
REMARK    6  A    between atoms: C_9  and  C_12
REMARK    7  A    between atoms: N_14  and  C_15
REMARK    8  A    between atoms: C_15  and  N_17
REMARK    9  A    between atoms: N_17  and  C_18
REMARK   10  A    between atoms: C_19  and  C_32
REMARK   11  A    between atoms: C_24  and  C_28
REMARK   12  A    between atoms: C_28  and  C_29
REMARK   13  A    between atoms: C_28  and  C_30
REMARK   14  A    between atoms: C_28  and  C_31
REMARK                            x       y       z     vdW  Elec       q    Type
REMARK                         _______ _______ _______ _____ _____    ______ ____
ROOT
ATOM      1  N   UNL     1      -0.011   0.966   0.007  0.00  0.00    -0.291 N 
ATOM      2  H   UNL     1       0.002  -0.004   0.002  0.00  0.00    +0.154 HD
ENDROOT
BRANCH   1   3
ATOM      3  C   UNL     1       1.179   1.675  -0.000  0.00  0.00    +0.084 A 
ATOM      4  C   UNL     1       2.477   1.182  -0.010  0.00  0.00    +0.068 A 
ATOM      5  C   UNL     1       3.562   2.148  -0.021  0.00  0.00    -0.023 A 
ATOM      6  C   UNL     1       3.179   3.443  -0.010  0.00  0.00    -0.004 A 
ATOM      7  S   UNL     1       1.410   3.392   0.007  0.00  0.00    -0.077 S 
ATOM      8  C   UNL     1       4.069   4.648  -0.012  0.00  0.00    +0.046 C 
ATOM      9  C   UNL     1       5.485   4.204  -0.406  0.00  0.00    -0.000 C 
ATOM     10  C   UNL     1       5.862   2.971   0.420  0.00  0.00    +0.009 C 
ATOM     11  C   UNL     1       5.037   1.766  -0.036  0.00  0.00    +0.037 C 
BRANCH   4  12
ATOM     12  C   UNL     1       2.742  -0.260  -0.013  0.00  0.00    +0.244 C 
ATOM     13  O   UNL     1       2.846  -0.857  -1.068  0.00  0.00    -0.270 OA
ATOM     14  N   UNL     1       2.872  -0.924   1.153  0.00  0.00    -0.325 N 
ATOM     15  H   UNL     1       2.790  -0.448   1.994  0.00  0.00    +0.145 HD
ATOM     16  H   UNL     1       3.048  -1.877   1.151  0.00  0.00    +0.145 HD
ENDBRANCH   4  12
BRANCH   9  17
ATOM     17  C   UNL     1       6.475   5.335  -0.122  0.00  0.00    -0.035 C 
ATOM     18  C   UNL     1       6.446   5.675   1.370  0.00  0.00    +0.011 C 
ATOM     19  C   UNL     1       7.885   4.889  -0.515  0.00  0.00    +0.011 C 
ATOM     20  C   UNL     1       6.085   6.570  -0.935  0.00  0.00    +0.011 C 
ENDBRANCH   9  17
ENDBRANCH   1   3
BRANCH   1  21
ATOM     21  C   UNL     1      -1.187   1.624   0.017  0.00  0.00    +0.141 C 
ATOM     22  S   UNL     1      -1.210   3.336   0.026  0.00  0.00    -0.018 S 
BRANCH  21  25
ATOM     23  C   UNL     1      -3.522   1.592   0.027  0.00  0.00    +0.250 C 
ATOM     24  O   UNL     1      -3.538   2.808   0.034  0.00  0.00    -0.270 OA
ATOM     25  N   UNL     1      -2.345   0.934   0.018  0.00  0.00    -0.264 N 
ATOM     26  H   UNL     1      -2.332  -0.036   0.013  0.00  0.00    +0.157 HD
BRANCH  23  30
ATOM     27  C   UNL     1      -7.169  -0.581   0.032  0.00  0.00    +0.121 A 
ATOM     28  C   UNL     1      -7.191   0.809   0.040  0.00  0.00    +0.046 A 
ATOM     29  C   UNL     1      -6.010   1.518   0.039  0.00  0.00    +0.016 A 
ATOM     30  C   UNL     1      -4.789   0.837   0.029  0.00  0.00    +0.037 A 
ATOM     31  C   UNL     1      -4.772  -0.560   0.016  0.00  0.00    +0.016 A 
ATOM     32  C   UNL     1      -5.957  -1.261   0.023  0.00  0.00    +0.046 A 
BRANCH  27  33
ATOM     33  O   UNL     1      -8.335  -1.275   0.034  0.00  0.00    -0.492 OA
BRANCH  33  34
ATOM     34  C   UNL     1      -8.241  -2.701   0.025  0.00  0.00    +0.229 C 
BRANCH  34  35
ATOM     35  C   UNL     1      -9.647  -3.305   0.028  0.00  0.00    +0.041 C 
BRANCH  35  37
ATOM     36  C   UNL     1     -10.952  -5.436   0.022  0.00  0.00    +0.004 C 
ATOM     37  C   UNL     1      -9.546  -4.832   0.019  0.00  0.00    -0.000 C 
ENDBRANCH  35  37
ENDBRANCH  34  35
ENDBRANCH  33  34
ENDBRANCH  27  33
ENDBRANCH  23  30
ENDBRANCH  21  25
ENDBRANCH   1  21
TORSDOF 10
