REMARK  Name = ZINC11870134
REMARK  8 active torsions:
REMARK  status: ('A' for Active; 'I' for Inactive)
REMARK    1  A    between atoms: C_1  and  C_2
REMARK    2  A    between atoms: C_2  and  C_4
REMARK    3  A    between atoms: C_8  and  C_11
REMARK    4  A    between atoms: C_11  and  N_62
REMARK    5  A    between atoms: C_17  and  C_21
REMARK    6  A    between atoms: C_21  and  N_22
REMARK    7  A    between atoms: N_22  and  S_23
REMARK    8  A    between atoms: S_23  and  C_26
REMARK                            x       y       z     vdW  Elec       q    Type
REMARK                         _______ _______ _______ _____ _____    ______ ____
ROOT
ATOM      1  C   UNL     1       1.330   2.036   0.000  0.00  0.00    -0.071 C 
ATOM      2  C   UNL     1       2.267   1.135  -0.810  0.00  0.00    +0.058 C 
ATOM      3  C   UNL     1       2.849   0.089   0.106  0.00  0.00    +0.132 A 
ATOM      4  N   UNL     1       4.090  -0.294   0.189  0.00  0.00    -0.134 NA
ATOM      5  N   UNL     1       4.191  -1.234   1.064  0.00  0.00    -0.133 NA
ATOM      6  C   UNL     1       3.017  -1.485   1.580  0.00  0.00    +0.149 A 
ATOM      7  N   UNL     1       2.138  -0.644   0.996  0.00  0.00    -0.316 N 
ATOM      8  C   UNL     1       0.704  -0.521   1.261  0.00  0.00    +0.106 C 
ATOM      9  C   UNL     1       0.002  -0.004   0.002  0.00  0.00    -0.056 C 
ATOM     10  N   UNL     1      -0.040   1.476   0.038  0.00  0.00    +0.384 N 
ATOM     11  H   UNL     1      -0.494   1.772   0.909  0.00  0.00    -0.081 HD
ENDROOT
BRANCH  10  12
ATOM     12  C   UNL     1      -0.820   1.984  -1.105  0.00  0.00    -0.048 C 
BRANCH  12  16
ATOM     13  C   UNL     1      -1.158   6.188  -0.275  0.00  0.00    +0.018 C 
ATOM     14  C   UNL     1      -2.471   5.397  -0.333  0.00  0.00    +0.012 C 
ATOM     15  C   UNL     1      -2.163   3.924  -0.066  0.00  0.00    +0.029 C 
ATOM     16  C   UNL     1      -1.022   3.467  -0.927  0.00  0.00    -0.090 C 
ATOM     17  C   UNL     1      -0.204   4.268  -1.531  0.00  0.00    -0.029 C 
ATOM     18  C   UNL     1      -0.285   5.765  -1.458  0.00  0.00    +0.035 C 
BRANCH  13  20
ATOM     19  C   UNL     1      -2.177   8.216  -1.565  0.00  0.00    +0.039 C 
ATOM     20  C   UNL     1      -1.452   7.664  -0.364  0.00  0.00    -0.076 C 
ATOM     21  C   UNL     1      -1.077   8.466   0.601  0.00  0.00    +0.007 C 
ENDBRANCH  13  20
ENDBRANCH  12  16
ENDBRANCH  10  12
BRANCH   6  22
ATOM     22  C   UNL     1       2.704  -2.519   2.631  0.00  0.00    +0.182 C 
BRANCH  22  23
ATOM     23  N   UNL     1       2.366  -3.788   1.982  0.00  0.00    -0.183 NA
ATOM     24  H   UNL     1       2.157  -3.808   1.035  0.00  0.00    +0.148 HD
BRANCH  23  25
ATOM     25  S   UNL     1       2.340  -5.189   2.865  0.00  0.00    +0.059 S 
ATOM     26  O   UNL     1       1.957  -6.225   1.972  0.00  0.00    -0.153 OA
ATOM     27  O   UNL     1       3.555  -5.228   3.601  0.00  0.00    -0.153 OA
BRANCH  25  28
ATOM     28  C   UNL     1       1.041  -5.036   4.046  0.00  0.00    +0.105 A 
ATOM     29  C   UNL     1       1.301  -4.502   5.294  0.00  0.00    +0.028 A 
ATOM     30  C   UNL     1       0.280  -4.378   6.218  0.00  0.00    +0.002 A 
ATOM     31  C   UNL     1      -0.997  -4.798   5.899  0.00  0.00    +0.000 A 
ATOM     32  C   UNL     1      -1.256  -5.337   4.652  0.00  0.00    +0.002 A 
ATOM     33  C   UNL     1      -0.237  -5.456   3.726  0.00  0.00    +0.028 A 
ENDBRANCH  25  28
ENDBRANCH  23  25
ENDBRANCH  22  23
ENDBRANCH   6  22
TORSDOF 7
