REMARK  Name = ZINC36573890
REMARK  13 active torsions:
REMARK  status: ('A' for Active; 'I' for Inactive)
REMARK    1  A    between atoms: C_1  and  C_2
REMARK    2  A    between atoms: C_2  and  C_3
REMARK    3  A    between atoms: C_3  and  C_4
REMARK    4  A    between atoms: N_6  and  C_7
REMARK    5  A    between atoms: N_6  and  C_10
REMARK    6  A    between atoms: C_7  and  C_8
REMARK    7  A    between atoms: C_8  and  C_9
REMARK    8  A    between atoms: C_10  and  C_12
REMARK    9  A    between atoms: C_10  and  C_21
REMARK   10  A    between atoms: C_13  and  O_20
REMARK   11  A    between atoms: C_15  and  O_19
REMARK   12  A    between atoms: C_17  and  O_18
REMARK   13  A    between atoms: N_23  and  C_24
REMARK                            x       y       z     vdW  Elec       q    Type
REMARK                         _______ _______ _______ _____ _____    ______ ____
ROOT
ATOM      1  C   UNL     1       1.744  -4.125   2.417  0.00  0.00    +0.199 C 
ENDROOT
BRANCH   1   2
ATOM      2  C   UNL     1       3.222  -4.370   2.579  0.00  0.00    +0.065 A 
ATOM      3  C   UNL     1       3.968  -3.569   3.430  0.00  0.00    +0.129 A 
ATOM      4  C   UNL     1       5.329  -3.794   3.579  0.00  0.00    +0.091 A 
ATOM      5  C   UNL     1       5.942  -4.821   2.877  0.00  0.00    +0.124 A 
ATOM      6  C   UNL     1       5.196  -5.622   2.027  0.00  0.00    +0.091 A 
ATOM      7  C   UNL     1       3.835  -5.399   1.881  0.00  0.00    +0.129 A 
BRANCH   7   8
ATOM      8  O   UNL     1       3.102  -6.188   1.051  0.00  0.00    -0.506 OA
ATOM      9  H   UNL     1       3.055  -5.864   0.141  0.00  0.00    +0.292 HD
ENDBRANCH   7   8
BRANCH   5  10
ATOM     10  O   UNL     1       7.275  -5.041   3.023  0.00  0.00    -0.507 OA
ATOM     11  H   UNL     1       7.497  -5.660   3.732  0.00  0.00    +0.292 HD
ENDBRANCH   5  10
BRANCH   3  12
ATOM     12  O   UNL     1       3.367  -2.563   4.118  0.00  0.00    -0.506 OA
ATOM     13  H   UNL     1       3.101  -2.805   5.016  0.00  0.00    +0.292 HD
ENDBRANCH   3  12
ENDBRANCH   1   2
BRANCH   1  14
ATOM     14  C   UNL     1       1.017  -4.606   3.647  0.00  0.00    +0.239 C 
ATOM     15  O   UNL     1       0.224  -3.878   4.206  0.00  0.00    -0.273 OA
ATOM     16  N   UNL     1       1.249  -5.844   4.125  0.00  0.00    -0.311 N 
ATOM     17  H   UNL     1       1.883  -6.426   3.678  0.00  0.00    +0.149 HD
BRANCH  16  18
ATOM     18  C   UNL     1       0.543  -6.311   5.321  0.00  0.00    +0.073 C 
ATOM     19  C   UNL     1       1.293  -5.847   6.571  0.00  0.00    +0.022 C 
ATOM     20  C   UNL     1       0.555  -6.336   7.819  0.00  0.00    +0.002 C 
ATOM     21  C   UNL     1       0.485  -7.864   7.804  0.00  0.00    +0.000 C 
ATOM     22  C   UNL     1      -0.266  -8.328   6.554  0.00  0.00    +0.002 C 
ATOM     23  C   UNL     1       0.472  -7.840   5.306  0.00  0.00    +0.022 C 
ENDBRANCH  16  18
ENDBRANCH   1  14
BRANCH   1  26
ATOM     24  C   UNL     1       1.724  -2.116   1.039  0.00  0.00    +0.216 C 
ATOM     25  O   UNL     1       2.122  -2.785   0.109  0.00  0.00    -0.276 OA
ATOM     26  N   UNL     1       1.503  -2.691   2.237  0.00  0.00    -0.286 N 
BRANCH  24  27
ATOM     27  C   UNL     1       1.476  -0.641   0.854  0.00  0.00    +0.096 C 
BRANCH  27  29
ATOM     28  C   UNL     1       1.551   1.252  -0.776  0.00  0.00    +0.004 C 
ATOM     29  C   UNL     1       1.802  -0.246  -0.588  0.00  0.00    +0.006 C 
ENDBRANCH  27  29
ENDBRANCH  24  27
BRANCH  26  30
ATOM     30  C   UNL     1       1.023  -1.882   3.361  0.00  0.00    +0.108 C 
BRANCH  30  31
ATOM     31  C   UNL     1      -0.491  -1.699   3.246  0.00  0.00    +0.016 C 
ATOM     32  C   UNL     1      -0.991  -0.843   4.412  0.00  0.00    +0.005 C 
ENDBRANCH  30  31
ENDBRANCH  26  30
ENDBRANCH   1  26
TORSDOF 11
