REMARK  Name = ZINC64788507
REMARK  8 active torsions:
REMARK  status: ('A' for Active; 'I' for Inactive)
REMARK    1  A    between atoms: C_1  and  O_2
REMARK    2  A    between atoms: O_2  and  C_3
REMARK    3  A    between atoms: C_5  and  C_12
REMARK    4  A    between atoms: C_7  and  O_10
REMARK    5  A    between atoms: C_8  and  O_9
REMARK    6  A    between atoms: O_10  and  C_11
REMARK    7  A    between atoms: N_24  and  C_27
REMARK    8  A    between atoms: C_27  and  C_28
REMARK                            x       y       z     vdW  Elec       q    Type
REMARK                         _______ _______ _______ _____ _____    ______ ____
ROOT
ATOM      1  C   UNL     1      -4.871   0.264   0.038  0.00  0.00    +0.108 C 
ATOM      2  C   UNL     1      -5.503   0.282   1.452  0.00  0.00    +0.077 C 
ATOM      3  C   UNL     1      -6.987   0.203   1.142  0.00  0.00    +0.038 C 
ATOM      4  N   UNL     1      -7.122  -0.175  -0.143  0.00  0.00    -0.283 N 
ATOM      5  N   UNL     1      -5.927  -0.402  -0.759  0.00  0.00    -0.235 NA
ATOM      6  C   UNL     1      -8.017   0.471   2.024  0.00  0.00    +0.117 C 
ATOM      7  C   UNL     1      -7.752   0.885   3.413  0.00  0.00    +0.258 C 
ATOM      8  N   UNL     1      -8.807   1.130   4.218  0.00  0.00    -0.235 N 
ATOM      9  H   UNL     1      -8.650   1.403   5.135  0.00  0.00    +0.159 HD
ATOM     10  C   UNL     1     -10.067   1.005   3.778  0.00  0.00    +0.316 C 
ATOM     11  O   UNL     1     -10.973   1.240   4.554  0.00  0.00    -0.252 OA
ATOM     12  N   UNL     1     -10.381   0.634   2.529  0.00  0.00    -0.217 N 
ATOM     13  C   UNL     1      -9.428   0.362   1.614  0.00  0.00    +0.261 C 
ATOM     14  O   UNL     1      -9.726   0.032   0.481  0.00  0.00    -0.269 OA
ATOM     15  O   UNL     1      -6.613   1.002   3.824  0.00  0.00    -0.270 OA
ATOM     16  H   UNL     1      -5.936  -0.056  -1.707  0.00  0.00    +0.145 HD
ATOM     17  H   UNL     1      -7.980  -0.275  -0.585  0.00  0.00    +0.166 HD
ENDROOT
BRANCH   1  20
ATOM     18  C   UNL     1      -1.201  -0.638   0.010  0.00  0.00    +0.165 A 
ATOM     19  C   UNL     1      -2.375   0.101   0.019  0.00  0.00    +0.055 A 
ATOM     20  C   UNL     1      -3.598  -0.543   0.028  0.00  0.00    -0.021 A 
ATOM     21  C   UNL     1      -3.657  -1.924   0.027  0.00  0.00    +0.055 A 
ATOM     22  C   UNL     1      -2.488  -2.670   0.017  0.00  0.00    +0.165 A 
ATOM     23  C   UNL     1      -1.256  -2.027   0.003  0.00  0.00    +0.201 A 
BRANCH  18  25
ATOM     24  C   UNL     1      -0.017   1.425   0.010  0.00  0.00    +0.277 C 
ATOM     25  O   UNL     1       0.002  -0.004   0.002  0.00  0.00    -0.491 OA
ENDBRANCH  18  25
BRANCH  23  26
ATOM     26  O   UNL     1      -0.106  -2.755  -0.012  0.00  0.00    -0.501 OA
ATOM     27  H   UNL     1       0.234  -2.970   0.867  0.00  0.00    +0.292 HD
ENDBRANCH  23  26
BRANCH  22  28
ATOM     28  O   UNL     1      -2.547  -4.028   0.017  0.00  0.00    -0.491 OA
ATOM     29  C   UNL     1      -3.847  -4.621   0.026  0.00  0.00    +0.277 C 
ENDBRANCH  22  28
ENDBRANCH   1  20
BRANCH  12  30
ATOM     30  C   UNL     1     -11.792   0.527   2.148  0.00  0.00    +0.153 C 
BRANCH  30  31
ATOM     31  C   UNL     1     -12.269   1.851   1.611  0.00  0.00    -0.030 A 
ATOM     32  C   UNL     1     -12.807   2.792   2.470  0.00  0.00    +0.005 A 
ATOM     33  C   UNL     1     -13.245   4.007   1.978  0.00  0.00    +0.000 A 
ATOM     34  C   UNL     1     -13.145   4.282   0.627  0.00  0.00    +0.000 A 
ATOM     35  C   UNL     1     -12.606   3.342  -0.232  0.00  0.00    +0.000 A 
ATOM     36  C   UNL     1     -12.164   2.128   0.261  0.00  0.00    +0.005 A 
ENDBRANCH  30  31
ENDBRANCH  12  30
TORSDOF 6
