REMARK  Name = ZINC09279924
REMARK  13 active torsions:
REMARK  status: ('A' for Active; 'I' for Inactive)
REMARK    1  A    between atoms: C_1  and  C_2
REMARK    2  A    between atoms: C_2  and  C_3
REMARK    3  A    between atoms: N_9  and  S_10
REMARK    4  A    between atoms: S_10  and  C_13
REMARK    5  A    between atoms: C_16  and  C_19
REMARK    6  A    between atoms: C_19  and  N_21
REMARK    7  A    between atoms: N_23  and  C_34
REMARK    8  A    between atoms: C_27  and  O_31
REMARK    9  A    between atoms: O_31  and  C_32
REMARK   10  A    between atoms: C_32  and  C_33
REMARK   11  A    between atoms: C_34  and  C_35
REMARK   12  A    between atoms: C_35  and  O_36
REMARK   13  A    between atoms: O_36  and  C_37
REMARK                            x       y       z     vdW  Elec       q    Type
REMARK                         _______ _______ _______ _____ _____    ______ ____
ROOT
ATOM      1  C   UNL     1       3.916   6.646   1.430  0.00  0.00    +0.269 C 
ATOM      2  O   UNL     1       2.720   6.625   1.665  0.00  0.00    -0.268 OA
ENDROOT
BRANCH   1   3
ATOM      3  N   UNL     1       4.523   5.554   0.953  0.00  0.00    -0.152 NA
ATOM      4  C   UNL     1       3.822   4.447   0.734  0.00  0.00    +0.167 A 
ATOM      5  N   UNL     1       4.261   3.252   0.255  0.00  0.00    -0.319 N 
ATOM      6  C   UNL     1       3.373   2.202   0.092  0.00  0.00    +0.058 A 
ATOM      7  C   UNL     1       3.636   0.907  -0.383  0.00  0.00    +0.030 A 
ATOM      8  C   UNL     1       2.630  -0.024  -0.483  0.00  0.00    +0.048 A 
ATOM      9  C   UNL     1       1.324   0.287  -0.123  0.00  0.00    +0.122 A 
ATOM     10  C   UNL     1       1.040   1.559   0.355  0.00  0.00    +0.062 A 
ATOM     11  C   UNL     1       2.049   2.488   0.454  0.00  0.00    +0.042 A 
ATOM     12  S   UNL     1       2.128   4.178   0.989  0.00  0.00    -0.052 S 
BRANCH   9  13
ATOM     13  O   UNL     1       0.339  -0.643  -0.233  0.00  0.00    -0.492 OA
BRANCH  13  14
ATOM     14  C   UNL     1       0.715  -1.930  -0.728  0.00  0.00    +0.225 C 
ATOM     15  C   UNL     1      -0.517  -2.836  -0.781  0.00  0.00    +0.048 C 
ENDBRANCH  13  14
ENDBRANCH   9  13
BRANCH   5  16
ATOM     16  C   UNL     1       5.674   3.076  -0.089  0.00  0.00    +0.152 C 
BRANCH  16  17
ATOM     17  C   UNL     1       6.213   4.366  -0.710  0.00  0.00    +0.181 C 
BRANCH  17  18
ATOM     18  O   UNL     1       7.548   4.152  -1.171  0.00  0.00    -0.381 OA
ATOM     19  C   UNL     1       8.147   5.302  -1.772  0.00  0.00    +0.194 C 
ENDBRANCH  17  18
ENDBRANCH  16  17
ENDBRANCH   5  16
ENDBRANCH   1   3
BRANCH   1  23
ATOM     20  C   UNL     1       6.158  10.188   2.131  0.00  0.00    +0.106 A 
ATOM     21  C   UNL     1       4.801  10.167   2.398  0.00  0.00    +0.029 A 
ATOM     22  C   UNL     1       4.067   9.020   2.173  0.00  0.00    +0.015 A 
ATOM     23  C   UNL     1       4.697   7.880   1.675  0.00  0.00    +0.039 A 
ATOM     24  C   UNL     1       6.067   7.905   1.412  0.00  0.00    +0.015 A 
ATOM     25  C   UNL     1       6.788   9.060   1.636  0.00  0.00    +0.029 A 
BRANCH  20  26
ATOM     26  S   UNL     1       7.087  11.656   2.421  0.00  0.00    +0.061 S 
ATOM     27  O   UNL     1       8.322  11.497   1.737  0.00  0.00    -0.153 OA
ATOM     28  O   UNL     1       6.212  12.747   2.170  0.00  0.00    -0.153 OA
BRANCH  26  34
ATOM     29  C   UNL     1       8.555  10.904   4.580  0.00  0.00    +0.080 C 
ATOM     30  C   UNL     1       8.030  10.045   5.734  0.00  0.00    +0.021 C 
ATOM     31  C   UNL     1       7.340  10.945   6.762  0.00  0.00    +0.003 C 
ATOM     32  C   UNL     1       6.151  11.652   6.107  0.00  0.00    +0.017 C 
ATOM     33  C   UNL     1       6.659  12.534   4.957  0.00  0.00    +0.110 C 
ATOM     34  N   UNL     1       7.444  11.698   4.038  0.00  0.00    -0.174 NA
BRANCH  29  36
ATOM     35  C   UNL     1      10.176   9.069   4.085  0.00  0.00    +0.005 C 
ATOM     36  C   UNL     1       9.124  10.002   3.483  0.00  0.00    +0.017 C 
ENDBRANCH  29  36
ENDBRANCH  26  34
ENDBRANCH  20  26
ENDBRANCH   1  23
TORSDOF 10
