REMARK  Name = ZINC43666595
REMARK  6 active torsions:
REMARK  status: ('A' for Active; 'I' for Inactive)
REMARK    1  A    between atoms: C_1  and  C_2
REMARK    2  A    between atoms: C_6  and  C_18
REMARK    3  A    between atoms: C_8  and  N_11
REMARK    4  A    between atoms: C_12  and  N_17
REMARK    5  A    between atoms: C_18  and  C_19
REMARK    6  A    between atoms: C_18  and  C_20
REMARK                            x       y       z     vdW  Elec       q    Type
REMARK                         _______ _______ _______ _____ _____    ______ ____
ROOT
ATOM      1  C   UNL     1      -0.019   1.526   0.010  0.00  0.00    +0.007 C 
ATOM      2  C   UNL     1       0.002  -0.004   0.002  0.00  0.00    -0.012 C 
ATOM      3  C   UNL     1       0.718  -0.497  -1.257  0.00  0.00    +0.004 C 
ATOM      4  C   UNL     1       0.739  -2.027  -1.265  0.00  0.00    +0.006 C 
ATOM      5  C   UNL     1       1.479  -2.534  -0.026  0.00  0.00    +0.016 C 
ATOM      6  C   UNL     1       0.763  -2.041   1.233  0.00  0.00    +0.113 C 
ATOM      7  C   UNL     1       0.742  -0.511   1.242  0.00  0.00    +0.030 C 
ENDROOT
BRANCH   6   8
ATOM      8  N   UNL     1      -0.612  -2.548   1.244  0.00  0.00    -0.247 N 
ATOM      9  C   UNL     1      -1.165  -3.340   2.198  0.00  0.00    +0.128 A 
ATOM     10  C   UNL     1      -2.454  -3.582   1.831  0.00  0.00    +0.072 A 
ATOM     11  C   UNL     1      -2.688  -2.919   0.623  0.00  0.00    +0.150 A 
ATOM     12  N   UNL     1      -1.591  -2.297   0.274  0.00  0.00    -0.177 NA
ATOM     13  I   UNL     1      -3.840  -4.743   2.890  0.00  0.00    -0.039 I 
BRANCH   9  14
ATOM     14  N   UNL     1      -0.530  -3.818   3.341  0.00  0.00    -0.343 N 
ATOM     15  H   UNL     1       0.396  -3.587   3.514  0.00  0.00    +0.144 HD
ATOM     16  H   UNL     1      -1.014  -4.380   3.966  0.00  0.00    +0.144 HD
ENDBRANCH   9  14
ENDBRANCH   6   8
BRANCH   5  17
ATOM     17  C   UNL     1       1.500  -4.064  -0.034  0.00  0.00    -0.012 C 
ATOM     18  C   UNL     1       2.216  -4.557  -1.293  0.00  0.00    +0.007 C 
ATOM     19  C   UNL     1       2.240  -4.571   1.205  0.00  0.00    +0.007 C 
ENDBRANCH   5  17
TORSDOF 3
