REMARK  Name = ZINC21190622
REMARK  6 active torsions:
REMARK  status: ('A' for Active; 'I' for Inactive)
REMARK    1  A    between atoms: C_1  and  C_2
REMARK    2  A    between atoms: C_2  and  C_3
REMARK    3  A    between atoms: C_2  and  C_4
REMARK    4  A    between atoms: C_7  and  C_13
REMARK    5  A    between atoms: C_9  and  N_10
REMARK    6  A    between atoms: C_14  and  C_15
REMARK                            x       y       z     vdW  Elec       q    Type
REMARK                         _______ _______ _______ _____ _____    ______ ____
ROOT
ATOM      1  C   UNL     1       0.016   2.362  -1.677  0.00  0.00    +0.031 C 
ATOM      2  C   UNL     1       0.416   3.636  -2.060  0.00  0.00    +0.084 C 
ATOM      3 CL   UNL     1       1.859   4.332  -1.389  0.00  0.00    -0.080 Cl
ENDROOT
BRANCH   2   4
ATOM      4  C   UNL     1      -0.344   4.360  -2.988  0.00  0.00    +0.154 A 
ATOM      5  N   UNL     1       0.072   5.612  -3.340  0.00  0.00    -0.190 NA
ATOM      6  C   UNL     1      -0.610   6.362  -4.232  0.00  0.00    +0.282 A 
ATOM      7  O   UNL     1      -0.228   7.473  -4.542  0.00  0.00    -0.265 OA
ATOM      8  C   UNL     1      -1.852   5.779  -4.817  0.00  0.00    +0.075 A 
ATOM      9  C   UNL     1      -2.733   6.324  -5.735  0.00  0.00    -0.023 A 
ATOM     10  C   UNL     1      -3.835   5.538  -6.117  0.00  0.00    -0.004 A 
ATOM     11  S   UNL     1      -3.689   4.059  -5.236  0.00  0.00    -0.075 S 
ATOM     12  C   UNL     1      -2.197   4.417  -4.350  0.00  0.00    +0.092 A 
ATOM     13  N   UNL     1      -1.453   3.796  -3.489  0.00  0.00    -0.333 N 
ATOM     14  C   UNL     1      -4.692   6.265  -7.118  0.00  0.00    +0.043 C 
ATOM     15  C   UNL     1      -3.795   7.397  -7.661  0.00  0.00    +0.010 C 
ATOM     16  C   UNL     1      -2.828   7.652  -6.491  0.00  0.00    +0.037 C 
ATOM     17  H   UNL     1      -1.748   2.785  -3.170  0.00  0.00    +0.168 HD
ENDBRANCH   2   4
BRANCH   1  21
ATOM     18  C   UNL     1       1.992   0.403   1.448  0.00  0.00    -0.015 A 
ATOM     19  C   UNL     1       2.724   0.979   0.420  0.00  0.00    +0.007 A 
ATOM     20  C   UNL     1       2.088   1.620  -0.605  0.00  0.00    +0.008 A 
ATOM     21  C   UNL     1       0.683   1.699  -0.618  0.00  0.00    -0.021 A 
ATOM     22  C   UNL     1      -0.054   1.113   0.428  0.00  0.00    +0.041 A 
ATOM     23  C   UNL     1       0.607   0.472   1.450  0.00  0.00    +0.130 A 
BRANCH  18  25
ATOM     24  C   UNL     1       3.510  -1.476   2.009  0.00  0.00    +0.012 C 
ATOM     25  C   UNL     1       2.708  -0.301   2.572  0.00  0.00    +0.015 C 
ATOM     26  C   UNL     1       3.656   0.679   3.266  0.00  0.00    +0.012 C 
ENDBRANCH  18  25
BRANCH  23  27
ATOM     27  N   UNL     1      -0.162  -0.146   2.554  0.00  0.00    +0.057 N 
ATOM     28  O   UNL     1      -1.004   0.582   3.258  0.00  0.00    -0.126 OA
ATOM     29  O   UNL     1      -0.004  -1.424   2.832  0.00  0.00    -0.126 OA
ENDBRANCH  23  27
ENDBRANCH   1  21
TORSDOF 4
