REMARK  Name = ZINC04670306
REMARK  4 active torsions:
REMARK  status: ('A' for Active; 'I' for Inactive)
REMARK    1  A    between atoms: C_1  and  C_2
REMARK    2  A    between atoms: C_8  and  N_10
REMARK    3  A    between atoms: C_11  and  C_13
REMARK    4  A    between atoms: N_23  and  C_24
REMARK                            x       y       z     vdW  Elec       q    Type
REMARK                         _______ _______ _______ _____ _____    ______ ____
ROOT
ATOM      1  C   UNL     1       1.029  -2.517   3.168  0.00  0.00    +0.213 C 
ATOM      2  C   UNL     1      -0.255  -3.039   3.757  0.00  0.00    +0.049 A 
ATOM      3  C   UNL     1      -1.480  -3.028   3.207  0.00  0.00    +0.025 A 
ATOM      4  C   UNL     1      -2.362  -3.625   4.132  0.00  0.00    +0.019 A 
ATOM      5  C   UNL     1      -1.636  -3.978   5.215  0.00  0.00    +0.086 A 
ATOM      6  N   UNL     1      -0.344  -3.622   4.993  0.00  0.00    -0.340 N 
ATOM      7  C   UNL     1       0.803  -3.805   5.886  0.00  0.00    +0.217 C 
ATOM      8  C   UNL     1       2.079  -3.609   5.122  0.00  0.00    +0.241 C 
ATOM      9  O   UNL     1       3.108  -3.998   5.634  0.00  0.00    -0.273 OA
ATOM     10  N   UNL     1       2.164  -3.038   3.922  0.00  0.00    -0.252 N 
ENDROOT
BRANCH  10  11
ATOM     11  C   UNL     1       3.433  -2.930   3.342  0.00  0.00    +0.038 A 
ATOM     12  C   UNL     1       3.743  -3.665   2.206  0.00  0.00    +0.025 A 
ATOM     13  C   UNL     1       4.995  -3.553   1.633  0.00  0.00    +0.022 A 
ATOM     14  C   UNL     1       5.943  -2.717   2.196  0.00  0.00    +0.041 A 
ATOM     15  C   UNL     1       5.638  -1.987   3.332  0.00  0.00    +0.022 A 
ATOM     16  C   UNL     1       4.386  -2.092   3.906  0.00  0.00    +0.025 A 
ATOM     17 CL   UNL     1       7.518  -2.584   1.478  0.00  0.00    -0.084 Cl
ENDBRANCH  10  11
BRANCH   1  19
ATOM     18  N   UNL     1       0.071  -0.307   2.603  0.00  0.00    -0.310 N 
ATOM     19  C   UNL     1       1.034  -1.011   3.232  0.00  0.00    +0.240 C 
ATOM     20  O   UNL     1       1.903  -0.433   3.848  0.00  0.00    -0.273 OA
ATOM     21  H   UNL     1      -0.624  -0.770   2.110  0.00  0.00    +0.149 HD
BRANCH  18  28
ATOM     22  C   UNL     1       0.045   1.261   0.168  0.00  0.00    +0.009 C 
ATOM     23  C   UNL     1      -0.659   1.720   1.446  0.00  0.00    +0.006 C 
ATOM     24  C   UNL     1      -2.103   1.214   1.443  0.00  0.00    +0.005 C 
ATOM     25  C   UNL     1      -2.807   1.673   2.721  0.00  0.00    +0.000 C 
ATOM     26  C   UNL     1      -2.072   1.110   3.939  0.00  0.00    +0.002 C 
ATOM     27  C   UNL     1      -0.628   1.615   3.942  0.00  0.00    +0.022 C 
ATOM     28  C   UNL     1       0.076   1.156   2.664  0.00  0.00    +0.076 C 
ENDBRANCH  18  28
ENDBRANCH   1  19
TORSDOF 3
