REMARK  Name = ZINC53110221
REMARK  6 active torsions:
REMARK  status: ('A' for Active; 'I' for Inactive)
REMARK    1  A    between atoms: C_1  and  C_2
REMARK    2  A    between atoms: C_7  and  C_9
REMARK    3  A    between atoms: C_7  and  N_11
REMARK    4  A    between atoms: C_9  and  O_10
REMARK    5  A    between atoms: N_11  and  C_12
REMARK    6  A    between atoms: C_17  and  N_18
REMARK                            x       y       z     vdW  Elec       q    Type
REMARK                         _______ _______ _______ _____ _____    ______ ____
ROOT
ATOM      1  N   UNL     1      -0.630  -2.602   1.320  0.00  0.00    -0.334 N 
ATOM      2  H   UNL     1      -0.899  -3.281   0.681  0.00  0.00    +0.147 HD
ENDROOT
BRANCH   1   8
ATOM      3  C   UNL     1      -0.167   1.242  -0.543  0.00  0.00    +0.007 C 
ATOM      4  C   UNL     1      -0.081  -0.266  -0.301  0.00  0.00    -0.012 C 
ATOM      5  C   UNL     1       0.699  -0.922  -1.442  0.00  0.00    +0.003 C 
ATOM      6  C   UNL     1       0.785  -2.430  -1.201  0.00  0.00    +0.002 C 
ATOM      7  C   UNL     1       1.501  -2.694   0.125  0.00  0.00    +0.028 C 
ATOM      8  C   UNL     1       0.721  -2.039   1.266  0.00  0.00    +0.055 C 
ATOM      9  C   UNL     1       0.635  -0.530   1.025  0.00  0.00    +0.031 C 
BRANCH   8  10
ATOM     10  C   UNL     1       1.437  -2.303   2.592  0.00  0.00    +0.181 C 
BRANCH  10  11
ATOM     11  O   UNL     1       1.419  -3.704   2.872  0.00  0.00    -0.393 OA
ATOM     12  H   UNL     1       1.857  -3.945   3.700  0.00  0.00    +0.209 HD
ENDBRANCH  10  11
ENDBRANCH   8  10
ENDBRANCH   1   8
BRANCH   1  13
ATOM     13  C   UNL     1      -1.532  -2.162   2.292  0.00  0.00    +0.058 A 
ATOM     14  C   UNL     1      -1.153  -1.181   3.200  0.00  0.00    +0.025 A 
ATOM     15  C   UNL     1      -2.047  -0.748   4.159  0.00  0.00    +0.002 A 
ATOM     16  C   UNL     1      -3.319  -1.290   4.216  0.00  0.00    +0.002 A 
ATOM     17  C   UNL     1      -3.699  -2.267   3.315  0.00  0.00    +0.034 A 
ATOM     18  C   UNL     1      -2.811  -2.700   2.349  0.00  0.00    +0.147 A 
BRANCH  18  19
ATOM     19  N   UNL     1      -3.221  -3.741   1.380  0.00  0.00    +0.058 N 
ATOM     20  O   UNL     1      -4.289  -4.294   1.502  0.00  0.00    -0.126 OA
ATOM     21  O   UNL     1      -2.487  -4.040   0.467  0.00  0.00    -0.126 OA
ENDBRANCH  18  19
ENDBRANCH   1  13
TORSDOF 5
