REMARK  Name = ZINC36929402
REMARK  5 active torsions:
REMARK  status: ('A' for Active; 'I' for Inactive)
REMARK    1  A    between atoms: C_3  and  S_8
REMARK    2  A    between atoms: C_5  and  C_6
REMARK    3  A    between atoms: C_6  and  N_7
REMARK    4  A    between atoms: S_8  and  N_11
REMARK    5  A    between atoms: N_11  and  C_12
REMARK                            x       y       z     vdW  Elec       q    Type
REMARK                         _______ _______ _______ _____ _____    ______ ____
ROOT
ATOM      1  S   UNL     1       3.950   1.934  -0.012  0.00  0.00    +0.065 S 
ATOM      2  O   UNL     1       4.739   0.853  -0.489  0.00  0.00    -0.153 OA
ATOM      3  O   UNL     1       3.915   3.197  -0.663  0.00  0.00    -0.153 OA
ENDROOT
BRANCH   1   6
ATOM      4  C   UNL     1      -0.067   1.392   0.195  0.00  0.00    +0.011 A 
ATOM      5  C   UNL     1       1.139   2.066   0.164  0.00  0.00    +0.036 A 
ATOM      6  C   UNL     1       2.288   1.355   0.052  0.00  0.00    +0.143 A 
ATOM      7  S   UNL     1       1.678  -0.322  -0.013  0.00  0.00    -0.075 S 
ATOM      8  C   UNL     1      -0.066   0.039   0.113  0.00  0.00    -0.026 A 
BRANCH   8   9
ATOM      9  C   UNL     1      -1.233  -0.914   0.125  0.00  0.00    -0.043 C 
BRANCH   9  10
ATOM     10  N   UNL     1      -1.696  -1.140  -1.251  0.00  0.00    +0.381 N 
ATOM     11  H   UNL     1      -1.982  -0.262  -1.658  0.00  0.00    -0.090 HD
ATOM     12  H   UNL     1      -0.945  -1.535  -1.798  0.00  0.00    -0.090 HD
ATOM     13  H   UNL     1      -2.477  -1.777  -1.243  0.00  0.00    -0.090 HD
ENDBRANCH   9  10
ENDBRANCH   8   9
ENDBRANCH   1   6
BRANCH   1  14
ATOM     14  N   UNL     1       4.430   2.219   1.547  0.00  0.00    -0.183 NA
ATOM     15  H   UNL     1       4.579   3.128   1.850  0.00  0.00    +0.149 HD
BRANCH  14  16
ATOM     16  C   UNL     1       4.630   1.098   2.468  0.00  0.00    +0.041 C 
ATOM     17  C   UNL     1       5.828   0.265   2.006  0.00  0.00    +0.027 C 
ATOM     18  C   UNL     1       6.037  -0.906   2.968  0.00  0.00    -0.009 C 
ATOM     19  C   UNL     1       6.302  -0.368   4.376  0.00  0.00    +0.007 C 
ATOM     20  C   UNL     1       5.104   0.464   4.838  0.00  0.00    -0.009 C 
ATOM     21  C   UNL     1       4.896   1.635   3.876  0.00  0.00    +0.027 C 
ATOM     22  C   UNL     1       3.850  -0.412   4.855  0.00  0.00    +0.007 C 
ATOM     23  C   UNL     1       3.585  -0.950   3.447  0.00  0.00    -0.009 C 
ATOM     24  C   UNL     1       4.782  -1.782   2.985  0.00  0.00    +0.007 C 
ATOM     25  C   UNL     1       3.376   0.221   2.485  0.00  0.00    +0.027 C 
ENDBRANCH  14  16
ENDBRANCH   1  14
TORSDOF 5
