REMARK  Name = ZINC60368125
REMARK  9 active torsions:
REMARK  status: ('A' for Active; 'I' for Inactive)
REMARK    1  A    between atoms: C_1  and  N_2
REMARK    2  A    between atoms: N_2  and  C_3
REMARK    3  A    between atoms: N_2  and  C_10
REMARK    4  A    between atoms: C_3  and  C_4
REMARK    5  A    between atoms: C_10  and  C_11
REMARK    6  A    between atoms: C_11  and  C_13
REMARK    7  A    between atoms: C_11  and  O_28
REMARK    8  A    between atoms: C_13  and  N_14
REMARK    9  A    between atoms: C_23  and  C_25
REMARK                            x       y       z     vdW  Elec       q    Type
REMARK                         _______ _______ _______ _____ _____    ______ ____
ROOT
ATOM      1  N   UNL     1      -0.110  -0.085  -4.889  0.00  0.00    -0.226 N 
ATOM      2  C   UNL     1       0.258   1.103  -5.410  0.00  0.00    +0.275 A 
ATOM      3  O   UNL     1       1.155   1.754  -4.906  0.00  0.00    -0.266 OA
ATOM      4  C   UNL     1      -0.450   1.594  -6.601  0.00  0.00    +0.050 A 
ATOM      5  C   UNL     1      -0.147   2.806  -7.214  0.00  0.00    +0.014 A 
ATOM      6  C   UNL     1      -0.859   3.195  -8.329  0.00  0.00    +0.001 A 
ATOM      7  C   UNL     1      -1.869   2.393  -8.842  0.00  0.00    +0.001 A 
ATOM      8  C   UNL     1      -2.185   1.189  -8.248  0.00  0.00    +0.011 A 
ATOM      9  C   UNL     1      -1.479   0.777  -7.123  0.00  0.00    +0.020 A 
ATOM     10  C   UNL     1      -1.753  -0.493  -6.431  0.00  0.00    +0.153 A 
ATOM     11  N   UNL     1      -1.041  -0.814  -5.378  0.00  0.00    -0.163 NA
ENDROOT
BRANCH  10  12
ATOM     12  C   UNL     1      -2.813  -1.397  -6.920  0.00  0.00    +0.262 C 
ATOM     13  O   UNL     1      -3.466  -1.094  -7.900  0.00  0.00    -0.269 OA
ATOM     14  N   UNL     1      -3.057  -2.557  -6.280  0.00  0.00    -0.324 N 
ATOM     15  H   UNL     1      -2.536  -2.799  -5.498  0.00  0.00    +0.145 HD
ATOM     16  H   UNL     1      -3.753  -3.151  -6.601  0.00  0.00    +0.145 HD
ENDBRANCH  10  12
BRANCH   1  17
ATOM     17  C   UNL     1       0.598  -0.571  -3.702  0.00  0.00    +0.176 C 
BRANCH  17  18
ATOM     18  C   UNL     1      -0.118  -0.077  -2.443  0.00  0.00    +0.119 C 
BRANCH  18  19
ATOM     19  O   UNL     1      -1.418  -0.665  -2.373  0.00  0.00    -0.392 OA
ATOM     20  H   UNL     1      -1.412  -1.631  -2.338  0.00  0.00    +0.210 HD
ENDBRANCH  18  19
BRANCH  18  21
ATOM     21  C   UNL     1       0.690  -0.478  -1.207  0.00  0.00    -0.045 C 
BRANCH  21  23
ATOM     22  C   UNL     1      -0.018   1.465   0.010  0.00  0.00    -0.096 C 
ATOM     23  N   UNL     1       0.002  -0.004   0.002  0.00  0.00    +0.382 N 
ATOM     24  H   UNL     1      -0.945  -0.353   0.009  0.00  0.00    -0.082 HD
BRANCH  23  25
ATOM     25  C   UNL     1       0.713  -0.491   1.192  0.00  0.00    -0.043 C 
BRANCH  25  26
ATOM     26  C   UNL     1      -0.059  -0.109   2.429  0.00  0.00    -0.064 A 
ATOM     27  C   UNL     1       0.188   1.099   3.053  0.00  0.00    +0.002 A 
ATOM     28  C   UNL     1      -0.520   1.449   4.188  0.00  0.00    +0.000 A 
ATOM     29  C   UNL     1      -1.476   0.591   4.698  0.00  0.00    +0.000 A 
ATOM     30  C   UNL     1      -1.724  -0.617   4.073  0.00  0.00    +0.000 A 
ATOM     31  C   UNL     1      -1.019  -0.965   2.936  0.00  0.00    +0.002 A 
ENDBRANCH  25  26
ENDBRANCH  23  25
ENDBRANCH  21  23
ENDBRANCH  18  21
ENDBRANCH  17  18
ENDBRANCH   1  17
TORSDOF 8
