REMARK  Name = ZINC63384163
REMARK  8 active torsions:
REMARK  status: ('A' for Active; 'I' for Inactive)
REMARK    1  A    between atoms: C_7  and  C_10
REMARK    2  A    between atoms: C_10  and  C_11
REMARK    3  A    between atoms: C_11  and  C_13
REMARK    4  A    between atoms: C_11  and  N_25
REMARK    5  A    between atoms: N_15  and  CA_16
REMARK    6  A    between atoms: CA_16  and  CB_18
REMARK    7  A    between atoms: CA_16  and  C_22
REMARK    8  A    between atoms: CB_18  and  CG_19
REMARK                            x       y       z     vdW  Elec       q    Type
REMARK                         _______ _______ _______ _____ _____    ______ ____
ROOT
ATOM      1  C   UNK A   0       0.457  -3.653  -1.462  0.00  0.00    +0.175 C 
ENDROOT
BRANCH   1   2
ATOM      2  N   UNK A   0       1.712  -4.162  -2.020  0.00  0.00    -0.211 N 
ATOM      3  C   UNK A   0       2.239  -3.577  -3.116  0.00  0.00    +0.236 C 
ATOM      4  O   UNK A   0       1.611  -2.731  -3.716  0.00  0.00    -0.274 OA
ATOM      5  C   UNK A   0       3.603  -3.979  -3.587  0.00  0.00    +0.144 C 
ATOM      6  C   UNK A   0       3.723  -3.939  -5.079  0.00  0.00    -0.008 C 
ATOM      7  C   UNK A   0       4.476  -4.825  -5.732  0.00  0.00    -0.003 C 
ATOM      8  C   UNK A   0       5.167  -5.854  -5.052  0.00  0.00    +0.001 C 
ATOM      9  C   UNK A   0       4.908  -6.119  -3.745  0.00  0.00    +0.022 C 
ATOM     10  C   UNK A   0       3.960  -5.343  -3.071  0.00  0.00    +0.051 C 
ATOM     11  N   UNK A   0       3.355  -5.833  -2.011  0.00  0.00    -0.166 NA
ATOM     12  C   UNK A   0       2.328  -5.201  -1.432  0.00  0.00    +0.333 C 
ATOM     13  O   UNK A   0       1.937  -5.580  -0.344  0.00  0.00    -0.250 OA
ENDBRANCH   1   2
BRANCH   1  14
ATOM     14  C   UNK A   0      -0.578  -4.750  -1.471  0.00  0.00    +0.235 C 
ATOM     15  O   UNK A   0      -0.294  -5.847  -1.902  0.00  0.00    -0.274 OA
ATOM     16  N   ASN A   1      -1.818  -4.510  -1.001  0.00  0.00    -0.300 N 
ATOM     17  H   ASN A   1      -2.045  -3.632  -0.656  0.00  0.00    +0.150 HD
BRANCH  16  18
ATOM     18  CA  ASN A   1      -2.823  -5.576  -1.010  0.00  0.00    +0.195 C 
BRANCH  18  19
ATOM     19  C   ASN A   1      -2.672  -6.420   0.229  0.00  0.00    +0.376 C 
ATOM     20  O   ASN A   1      -2.250  -5.921   1.259  0.00  0.00    -0.244 OA
ATOM     21  OXT ASN A   1      -2.972  -7.601   0.203  0.00  0.00    -0.244 OA
ENDBRANCH  18  19
BRANCH  18  22
ATOM     22  CB  ASN A   1      -4.222  -4.957  -1.039  0.00  0.00    +0.129 C 
BRANCH  22  23
ATOM     23  CG  ASN A   1      -4.416  -4.214  -2.335  0.00  0.00    +0.213 C 
ATOM     24  OD1 ASN A   1      -3.524  -4.183  -3.156  0.00  0.00    -0.276 OA
ATOM     25  ND2 ASN A   1      -5.582  -3.584  -2.583  0.00  0.00    -0.329 N 
ATOM     26 HD21 ASN A   1      -6.296  -3.609  -1.927  0.00  0.00    +0.145 HD
ATOM     27 HD22 ASN A   1      -5.707  -3.106  -3.418  0.00  0.00    +0.145 HD
ENDBRANCH  22  23
ENDBRANCH  18  22
ENDBRANCH  16  18
ENDBRANCH   1  14
BRANCH   1  28
ATOM     28  C   UNK A   0       0.691  -3.186  -0.024  0.00  0.00    +0.065 C 
BRANCH  28  35
ATOM     29  C   UNK A   0      -0.016   1.348   0.009  0.00  0.00    +0.001 A 
ATOM     30  C   UNK A   0       1.166   2.101   0.002  0.00  0.00    +0.002 A 
ATOM     31  C   UNK A   0       2.391   1.535  -0.013  0.00  0.00    +0.026 A 
ATOM     32  C   UNK A   0       2.529   0.120  -0.022  0.00  0.00    +0.043 A 
ATOM     33  N   UNK A   0       3.587  -0.654  -0.037  0.00  0.00    -0.380 N 
ATOM     34  C   UNK A   0       3.143  -2.053  -0.041  0.00  0.00    +0.144 C 
ATOM     35  C   UNK A   0       1.631  -2.008  -0.025  0.00  0.00    -0.039 C 
ATOM     36  C   UNK A   0       1.295  -0.698  -0.014  0.00  0.00    -0.001 A 
ATOM     37  C   UNK A   0       0.002  -0.004   0.002  0.00  0.00    +0.010 A 
ATOM     38  H   UNK A   0       4.509  -0.353  -0.045  0.00  0.00    +0.160 HD
ENDBRANCH  28  35
ENDBRANCH   1  28
TORSDOF 8
