REMARK  Name = ZINC39637268
REMARK  11 active torsions:
REMARK  status: ('A' for Active; 'I' for Inactive)
REMARK    1  A    between atoms: C_1  and  C_2
REMARK    2  A    between atoms: C_7  and  N_12
REMARK    3  A    between atoms: C_9  and  C_11
REMARK    4  A    between atoms: C_13  and  C_15
REMARK    5  A    between atoms: C_26  and  C_28
REMARK    6  A    between atoms: C_30  and  O_38
REMARK    7  A    between atoms: C_31  and  O_36
REMARK    8  A    between atoms: C_32  and  O_34
REMARK    9  A    between atoms: O_34  and  C_35
REMARK   10  A    between atoms: O_36  and  C_37
REMARK   11  A    between atoms: O_38  and  C_39
REMARK                            x       y       z     vdW  Elec       q    Type
REMARK                         _______ _______ _______ _____ _____    ______ ____
ROOT
ATOM      1  C   UNL     1       2.089  -4.479   3.552  0.00  0.00    +0.100 C 
ATOM      2  C   UNL     1       3.631  -4.571   3.544  0.00  0.00    +0.121 C 
ATOM      3  N   UNL     1       3.939  -5.775   4.351  0.00  0.00    -0.296 N 
ATOM      4  C   UNL     1       2.894  -6.754   3.966  0.00  0.00    +0.115 C 
ATOM      5  C   UNL     1       1.609  -5.913   3.829  0.00  0.00    -0.004 C 
ATOM      6  C   UNL     1       0.807  -5.961   5.126  0.00  0.00    -0.010 C 
ATOM      7  C   UNL     1       0.293  -7.386   5.351  0.00  0.00    -0.082 C 
ATOM      8  N   UNL     1      -0.548  -7.789   4.217  0.00  0.00    +0.379 N 
ATOM      9  C   UNL     1       0.255  -7.830   2.988  0.00  0.00    -0.082 C 
ATOM     10  C   UNL     1       0.767  -6.424   2.664  0.00  0.00    -0.010 C 
ATOM     11  C   UNL     1       4.942  -5.942   5.236  0.00  0.00    +0.247 C 
ATOM     12  O   UNL     1       5.658  -5.004   5.527  0.00  0.00    -0.270 OA
ATOM     13  H   UNL     1      -0.934  -8.704   4.395  0.00  0.00    -0.086 HD
ATOM     14  H   UNL     1      -1.299  -7.125   4.104  0.00  0.00    -0.086 HD
ENDROOT
BRANCH  11  15
ATOM     15  C   UNL     1       5.171  -7.265   5.850  0.00  0.00    +0.044 A 
ATOM     16  C   UNL     1       4.695  -8.419   5.224  0.00  0.00    +0.062 A 
ATOM     17  C   UNL     1       4.911  -9.656   5.802  0.00  0.00    +0.166 A 
ATOM     18  C   UNL     1       5.603  -9.752   7.006  0.00  0.00    +0.204 A 
ATOM     19  C   UNL     1       6.079  -8.603   7.632  0.00  0.00    +0.166 A 
ATOM     20  C   UNL     1       5.870  -7.364   7.056  0.00  0.00    +0.062 A 
BRANCH  19  21
ATOM     21  O   UNL     1       6.754  -8.700   8.809  0.00  0.00    -0.491 OA
ATOM     22  C   UNL     1       7.213  -7.481   9.396  0.00  0.00    +0.277 C 
ENDBRANCH  19  21
BRANCH  18  23
ATOM     23  O   UNL     1       5.814 -10.970   7.572  0.00  0.00    -0.488 OA
ATOM     24  C   UNL     1       7.011 -11.658   7.204  0.00  0.00    +0.277 C 
ENDBRANCH  18  23
BRANCH  17  25
ATOM     25  O   UNL     1       4.447 -10.781   5.193  0.00  0.00    -0.491 OA
ATOM     26  C   UNL     1       3.746 -10.608   3.960  0.00  0.00    +0.277 C 
ENDBRANCH  17  25
ENDBRANCH  11  15
BRANCH   1  28
ATOM     27  N   UNL     1       0.432  -3.311   2.135  0.00  0.00    -0.312 N 
ATOM     28  C   UNL     1       1.584  -4.006   2.213  0.00  0.00    +0.218 C 
ATOM     29  O   UNL     1       2.214  -4.251   1.207  0.00  0.00    -0.275 OA
ATOM     30  H   UNL     1      -0.072  -3.115   2.940  0.00  0.00    +0.149 HD
BRANCH  27  36
ATOM     31  C   UNL     1      -3.607  -2.009  -0.402  0.00  0.00    +0.008 C 
ATOM     32  C   UNL     1      -2.089  -2.190  -0.464  0.00  0.00    -0.009 C 
ATOM     33  C   UNL     1      -1.430  -0.855  -0.815  0.00  0.00    +0.003 C 
ATOM     34  C   UNL     1       0.088  -1.036  -0.877  0.00  0.00    +0.002 C 
ATOM     35  C   UNL     1       0.601  -1.516   0.482  0.00  0.00    +0.022 C 
ATOM     36  C   UNL     1      -0.059  -2.851   0.833  0.00  0.00    +0.076 C 
ATOM     37  C   UNL     1      -1.576  -2.670   0.895  0.00  0.00    +0.009 C 
ATOM     38  C   UNL     1      -2.236  -4.005   1.246  0.00  0.00    +0.009 C 
ENDBRANCH  27  36
ENDBRANCH   1  28
TORSDOF 6
