REMARK  Name = ZINC39687097
REMARK  9 active torsions:
REMARK  status: ('A' for Active; 'I' for Inactive)
REMARK    1  A    between atoms: C_1  and  C_2
REMARK    2  A    between atoms: C_5  and  O_8
REMARK    3  A    between atoms: O_8  and  C_9
REMARK    4  A    between atoms: C_10  and  C_15
REMARK    5  A    between atoms: C_19  and  C_28
REMARK    6  A    between atoms: N_30  and  C_31
REMARK    7  A    between atoms: C_31  and  C_33
REMARK    8  A    between atoms: C_31  and  C_34
REMARK    9  A    between atoms: C_34  and  C_35
REMARK                            x       y       z     vdW  Elec       q    Type
REMARK                         _______ _______ _______ _____ _____    ______ ____
ROOT
ATOM      1  C   UNL     1       0.282  -6.856  -0.119  0.00  0.00    +0.252 C 
ATOM      2  O   UNL     1       0.244  -6.285  -1.191  0.00  0.00    -0.270 OA
ATOM      3  N   UNL     1       0.310  -8.203  -0.074  0.00  0.00    -0.296 N 
ATOM      4  C   UNL     1       0.428  -9.070   1.122  0.00  0.00    +0.121 C 
ATOM      5  C   UNL     1      -0.526 -10.252   0.844  0.00  0.00    +0.100 C 
ATOM      6  C   UNL     1      -0.653 -10.302  -0.688  0.00  0.00    -0.004 C 
ATOM      7  C   UNL     1       0.221  -9.152  -1.210  0.00  0.00    +0.115 C 
ATOM      8  C   UNL     1      -0.140 -11.638  -1.218  0.00  0.00    -0.010 C 
ATOM      9  C   UNL     1      -0.330 -11.687  -2.736  0.00  0.00    -0.082 C 
ATOM     10  N   UNL     1      -1.752 -11.523  -3.059  0.00  0.00    +0.379 N 
ATOM     11  C   UNL     1      -2.214 -10.198  -2.630  0.00  0.00    -0.082 C 
ATOM     12  C   UNL     1      -2.104 -10.086  -1.106  0.00  0.00    -0.010 C 
ATOM     13  H   UNL     1      -1.882 -11.617  -4.056  0.00  0.00    -0.086 HD
ATOM     14  H   UNL     1      -2.288 -12.235  -2.585  0.00  0.00    -0.086 HD
ENDROOT
BRANCH   1  16
ATOM     15  C   UNL     1      -0.430  -4.882   1.240  0.00  0.00    +0.233 A 
ATOM     16  C   UNL     1       0.299  -6.076   1.133  0.00  0.00    +0.099 A 
ATOM     17  C   UNL     1       1.041  -6.514   2.235  0.00  0.00    +0.020 A 
ATOM     18  C   UNL     1       1.024  -5.746   3.386  0.00  0.00    +0.021 A 
ATOM     19  C   UNL     1       0.280  -4.580   3.415  0.00  0.00    +0.114 A 
ATOM     20  N   UNL     1      -0.408  -4.183   2.362  0.00  0.00    -0.220 NA
BRANCH  15  21
ATOM     21  O   UNL     1      -1.155  -4.439   0.185  0.00  0.00    -0.437 OA
BRANCH  21  26
ATOM     22  C   UNL     1      -3.655   0.590   0.618  0.00  0.00    +0.044 C 
ATOM     23  C   UNL     1      -2.986  -0.756   0.502  0.00  0.00    -0.050 A 
ATOM     24  C   UNL     1      -1.606  -0.842   0.495  0.00  0.00    +0.007 A 
ATOM     25  C   UNL     1      -0.991  -2.074   0.389  0.00  0.00    +0.046 A 
ATOM     26  C   UNL     1      -1.758  -3.226   0.290  0.00  0.00    +0.130 A 
ATOM     27  C   UNL     1      -3.143  -3.136   0.298  0.00  0.00    +0.046 A 
ATOM     28  C   UNL     1      -3.754  -1.902   0.410  0.00  0.00    +0.007 A 
ENDBRANCH  21  26
ENDBRANCH  15  21
ENDBRANCH   1  16
BRANCH   5  29
ATOM     29  C   UNL     1      -1.871 -10.001   1.475  0.00  0.00    +0.218 C 
ATOM     30  O   UNL     1      -2.317  -8.874   1.525  0.00  0.00    -0.275 OA
ATOM     31  N   UNL     1      -2.579 -11.028   1.985  0.00  0.00    -0.312 N 
ATOM     32  H   UNL     1      -2.223 -11.930   1.945  0.00  0.00    +0.149 HD
BRANCH  31  33
ATOM     33  C   UNL     1      -3.887 -10.784   2.599  0.00  0.00    +0.074 C 
ATOM     34  C   UNL     1      -3.696 -10.381   4.062  0.00  0.00    +0.028 C 
BRANCH  33  35
ATOM     35  C   UNL     1      -4.730 -12.058   2.527  0.00  0.00    +0.060 C 
BRANCH  35  36
ATOM     36  C   UNL     1      -5.022 -12.386   1.085  0.00  0.00    -0.010 A 
ATOM     37  C   UNL     1      -6.202 -11.961   0.504  0.00  0.00    +0.006 A 
ATOM     38  C   UNL     1      -6.470 -12.262  -0.818  0.00  0.00    +0.000 A 
ATOM     39  C   UNL     1      -5.558 -12.989  -1.561  0.00  0.00    +0.003 A 
ATOM     40  C   UNL     1      -4.378 -13.415  -0.983  0.00  0.00    +0.038 A 
ATOM     41  C   UNL     1      -4.106 -13.110   0.341  0.00  0.00    +0.127 A 
ATOM     42  F   UNL     1      -2.950 -13.522   0.906  0.00  0.00    -0.205 F 
ENDBRANCH  35  36
ENDBRANCH  33  35
ENDBRANCH  31  33
ENDBRANCH   5  29
TORSDOF 7
