REMARK  Name = ZINC22054973
REMARK  8 active torsions:
REMARK  status: ('A' for Active; 'I' for Inactive)
REMARK    1  A    between atoms: C_1  and  C_2
REMARK    2  A    between atoms: C_4  and  C_27
REMARK    3  A    between atoms: N_5  and  O_9
REMARK    4  A    between atoms: O_9  and  C_10
REMARK    5  A    between atoms: C_12  and  O_26
REMARK    6  A    between atoms: C_14  and  O_25
REMARK    7  A    between atoms: C_16  and  O_24
REMARK    8  A    between atoms: C_18  and  C_21
REMARK                            x       y       z     vdW  Elec       q    Type
REMARK                         _______ _______ _______ _____ _____    ______ ____
ROOT
ATOM      1  O   UNL     1      -1.480  -0.545   0.045  0.00  0.00    -0.374 OA
ENDROOT
BRANCH   1   6
ATOM      2  C   UNL     1      -3.451  -0.817  -5.264  0.00  0.00    +0.044 C 
ATOM      3  C   UNL     1      -2.931  -0.734  -3.852  0.00  0.00    -0.043 A 
ATOM      4  C   UNL     1      -2.317  -1.845  -3.256  0.00  0.00    +0.028 A 
ATOM      5  C   UNL     1      -1.853  -1.760  -1.988  0.00  0.00    +0.065 A 
ATOM      6  N   UNL     1      -1.974  -0.608  -1.280  0.00  0.00    -0.145 N 
ATOM      7  C   UNL     1      -2.563   0.475  -1.823  0.00  0.00    +0.284 A 
ATOM      8  O   UNL     1      -2.669   1.502  -1.173  0.00  0.00    -0.265 OA
ATOM      9  C   UNL     1      -3.052   0.423  -3.140  0.00  0.00    +0.076 A 
BRANCH   5  10
ATOM     10  C   UNL     1      -1.195  -2.959  -1.353  0.00  0.00    +0.039 C 
ATOM     11  C   UNL     1      -0.597  -3.849  -2.444  0.00  0.00    +0.010 C 
ATOM     12  C   UNL     1       0.071  -5.065  -1.801  0.00  0.00    +0.001 C 
ATOM     13  C   UNL     1      -0.969  -5.859  -1.008  0.00  0.00    +0.000 C 
ATOM     14  C   UNL     1      -1.568  -4.969   0.083  0.00  0.00    +0.001 C 
ATOM     15  C   UNL     1      -2.236  -3.752  -0.561  0.00  0.00    +0.010 C 
ENDBRANCH   5  10
ENDBRANCH   1   6
BRANCH   1  16
ATOM     16  C   UNL     1      -0.139  -0.062   0.143  0.00  0.00    +0.367 C 
ATOM     17  C   UNL     1       0.515  -0.624   1.409  0.00  0.00    +0.216 C 
ATOM     18  C   UNL     1       1.931  -0.055   1.538  0.00  0.00    +0.181 C 
ATOM     19  C   UNL     1       1.855   1.475   1.553  0.00  0.00    +0.186 C 
ATOM     20  C   UNL     1       1.150   1.955   0.282  0.00  0.00    +0.266 C 
ATOM     21  O   UNL     1      -0.149   1.365   0.208  0.00  0.00    -0.320 OA
BRANCH  20  22
ATOM     22  C   UNL     1       1.019   3.456   0.318  0.00  0.00    +0.387 C 
ATOM     23  O   UNL     1      -0.075   3.966   0.374  0.00  0.00    -0.243 OA
ATOM     24  O   UNL     1       2.118   4.227   0.287  0.00  0.00    -0.243 OA
ENDBRANCH  20  22
BRANCH  19  25
ATOM     25  O   UNL     1       3.176   2.018   1.601  0.00  0.00    -0.386 OA
ATOM     26  H   UNL     1       3.323   3.108   1.618  0.00  0.00    +0.210 HD
ENDBRANCH  19  25
BRANCH  18  27
ATOM     27  O   UNL     1       2.722  -0.484   0.428  0.00  0.00    -0.386 OA
ATOM     28  H   UNL     1       3.774  -0.172   0.349  0.00  0.00    +0.210 HD
ENDBRANCH  18  27
BRANCH  17  29
ATOM     29  O   UNL     1      -0.257  -0.249   2.551  0.00  0.00    -0.383 OA
ATOM     30  H   UNL     1       0.060  -0.565   3.557  0.00  0.00    +0.210 HD
ENDBRANCH  17  29
ENDBRANCH   1  16
TORSDOF 7
