REMARK  Name = ZINC66135953
REMARK  7 active torsions:
REMARK  status: ('A' for Active; 'I' for Inactive)
REMARK    1  A    between atoms: C_1  and  C_2
REMARK    2  A    between atoms: C_3  and  C_20
REMARK    3  A    between atoms: C_4  and  C_9
REMARK    4  A    between atoms: C_9  and  C_11
REMARK    5  A    between atoms: C_9  and  O_12
REMARK    6  A    between atoms: O_12  and  C_13
REMARK    7  A    between atoms: N_22  and  C_23
REMARK                            x       y       z     vdW  Elec       q    Type
REMARK                         _______ _______ _______ _____ _____    ______ ____
ROOT
ATOM      1  C   UNL     1       0.374   1.186   0.501  0.00  0.00    +0.066 C 
ATOM      2  C   UNL     1       0.369  -0.309   0.312  0.00  0.00    +0.056 A 
ATOM      3  C   UNL     1       0.199  -0.864  -0.963  0.00  0.00    +0.083 A 
ATOM      4  C   UNL     1       0.203  -2.260  -1.085  0.00  0.00    +0.099 A 
ATOM      5  N   UNL     1       0.364  -2.997  -0.002  0.00  0.00    -0.215 NA
ATOM      6  C   UNL     1       0.522  -2.433   1.188  0.00  0.00    +0.213 A 
ATOM      7  N   UNL     1       0.530  -1.115   1.345  0.00  0.00    -0.219 NA
ATOM      8  N   UNL     1       0.688  -3.240   2.295  0.00  0.00    -0.327 N 
ATOM      9  H   UNL     1       0.689  -4.205   2.196  0.00  0.00    +0.145 HD
ATOM     10  H   UNL     1       0.805  -2.842   3.172  0.00  0.00    +0.145 HD
ENDROOT
BRANCH   3  11
ATOM     11  C   UNL     1       0.021  -0.001  -2.147  0.00  0.00    +0.247 C 
ATOM     12  O   UNL     1       0.990   0.370  -2.780  0.00  0.00    -0.270 OA
ATOM     13  N   UNL     1      -1.216   0.375  -2.526  0.00  0.00    -0.314 N 
ATOM     14  C   UNL     1      -1.393   1.232  -3.701  0.00  0.00    +0.128 C 
ATOM     15  H   UNL     1      -1.990   0.079  -2.021  0.00  0.00    +0.149 HD
ENDBRANCH   3  11
BRANCH   4  16
ATOM     16  C   UNL     1       0.024  -2.910  -2.433  0.00  0.00    +0.220 C 
ATOM     17  C   UNL     1       1.370  -3.447  -2.923  0.00  0.00    +0.059 C 
BRANCH  16  18
ATOM     18  O   UNL     1      -0.907  -3.989  -2.321  0.00  0.00    -0.482 OA
BRANCH  18  19
ATOM     19  C   UNL     1      -1.577  -4.345  -3.449  0.00  0.00    +0.140 A 
ATOM     20  C   UNL     1      -1.263  -3.748  -4.661  0.00  0.00    +0.047 A 
ATOM     21  C   UNL     1      -1.945  -4.111  -5.806  0.00  0.00    +0.004 A 
ATOM     22  C   UNL     1      -2.939  -5.070  -5.746  0.00  0.00    +0.002 A 
ATOM     23  C   UNL     1      -3.255  -5.667  -4.540  0.00  0.00    +0.023 A 
ATOM     24  C   UNL     1      -2.571  -5.311  -3.392  0.00  0.00    +0.083 A 
ATOM     25 CL   UNL     1      -2.962  -6.066  -1.878  0.00  0.00    -0.080 Cl
ENDBRANCH  18  19
ENDBRANCH  16  18
ENDBRANCH   4  16
TORSDOF 4
