REMARK  Name = ZINC39954847
REMARK  4 active torsions:
REMARK  status: ('A' for Active; 'I' for Inactive)
REMARK    1  A    between atoms: C_6  and  N_7
REMARK    2  A    between atoms: C_8  and  N_18
REMARK    3  A    between atoms: C_9  and  C_16
REMARK    4  A    between atoms: C_10  and  C_12
REMARK                            x       y       z     vdW  Elec       q    Type
REMARK                         _______ _______ _______ _____ _____    ______ ____
ROOT
ATOM      1  N   UNL     1      -1.202  -0.722   0.010  0.00  0.00    -0.217 N 
ATOM      2  C   UNL     1      -1.425  -1.898  -0.619  0.00  0.00    +0.138 A 
ATOM      3  C   UNL     1      -2.743  -2.260  -0.353  0.00  0.00    +0.114 A 
ATOM      4  C   UNL     1      -3.295  -1.245   0.463  0.00  0.00    +0.086 A 
ATOM      5  N   UNL     1      -2.374  -0.347   0.675  0.00  0.00    -0.168 NA
ENDROOT
BRANCH   1  11
ATOM      6  C   UNL     1      -0.017   1.384   0.010  0.00  0.00    +0.031 A 
ATOM      7  C   UNL     1       1.170   2.091   0.002  0.00  0.00    +0.042 A 
ATOM      8  C   UNL     1       2.379   1.415  -0.013  0.00  0.00    +0.142 A 
ATOM      9  C   UNL     1       2.400   0.029  -0.022  0.00  0.00    +0.078 A 
ATOM     10  C   UNL     1       1.215  -0.680  -0.014  0.00  0.00    +0.050 A 
ATOM     11  C   UNL     1       0.002  -0.004   0.002  0.00  0.00    +0.069 A 
ATOM     12 CL   UNL     1       3.917  -0.815  -0.042  0.00  0.00    -0.081 Cl
ATOM     13  F   UNL     1       3.539   2.108  -0.021  0.00  0.00    -0.204 F 
ENDBRANCH   1  11
BRANCH   4  14
ATOM     14  C   UNL     1      -4.702  -1.211   1.000  0.00  0.00    +0.041 C 
ATOM     15  C   UNL     1      -5.318   0.198   1.027  0.00  0.00    +0.010 C 
ATOM     16  C   UNL     1      -5.928  -0.180   2.387  0.00  0.00    +0.001 C 
ATOM     17  C   UNL     1      -4.776  -1.187   2.536  0.00  0.00    +0.010 C 
ENDBRANCH   4  14
BRANCH   2  18
ATOM     18  N   UNL     1      -0.517  -2.607  -1.381  0.00  0.00    -0.342 N 
ATOM     19  H   UNL     1       0.383  -2.266  -1.506  0.00  0.00    +0.144 HD
ATOM     20  H   UNL     1      -0.779  -3.446  -1.792  0.00  0.00    +0.144 HD
ENDBRANCH   2  18
BRANCH   3  21
ATOM     21  C   UNL     1      -3.414  -3.437  -0.819  0.00  0.00    +0.104 C 
ATOM     22  N   UNL     1      -3.946  -4.370  -1.188  0.00  0.00    -0.191 NA
ENDBRANCH   3  21
TORSDOF 4
