REMARK  Name = ZINC02794800
REMARK  10 active torsions:
REMARK  status: ('A' for Active; 'I' for Inactive)
REMARK    1  A    between atoms: C_1  and  C_2
REMARK    2  A    between atoms: C_2  and  O_3
REMARK    3  A    between atoms: O_3  and  C_4
REMARK    4  A    between atoms: C_7  and  N_10
REMARK    5  A    between atoms: N_10  and  C_11
REMARK    6  A    between atoms: C_11  and  N_13
REMARK    7  A    between atoms: N_13  and  N_14
REMARK    8  A    between atoms: C_15  and  C_17
REMARK    9  A    between atoms: C_23  and  C_31
REMARK   10  A    between atoms: C_26  and  C_28
REMARK                            x       y       z     vdW  Elec       q    Type
REMARK                         _______ _______ _______ _____ _____    ______ ____
ROOT
ATOM      1  N   UNL     1      -1.694   7.308   0.687  0.00  0.00    -0.231 N 
ATOM      2  C   UNL     1      -1.319   6.068   1.060  0.00  0.00    +0.265 C 
ATOM      3  O   UNL     1      -0.720   5.902   2.106  0.00  0.00    -0.268 OA
ATOM      4  H   UNL     1      -2.235   7.457  -0.259  0.00  0.00    +0.173 HD
ENDROOT
BRANCH   2   5
ATOM      5  C   UNL     1      -1.633   4.918   0.203  0.00  0.00    +0.097 A 
ATOM      6  C   UNL     1      -2.319   4.950  -1.035  0.00  0.00    +0.149 A 
ATOM      7  N   UNL     1      -2.402   3.730  -1.488  0.00  0.00    -0.177 NA
ATOM      8  N   UNL     1      -1.787   2.864  -0.584  0.00  0.00    -0.241 N 
ATOM      9  C   UNL     1      -1.314   3.589   0.454  0.00  0.00    +0.130 A 
ATOM     10  N   UNL     1      -0.644   3.076   1.544  0.00  0.00    -0.322 N 
ATOM     11  C   UNL     1      -0.870   1.628   1.663  0.00  0.00    +0.104 C 
ATOM     12  C   UNL     1      -0.592   0.953   0.316  0.00  0.00    +0.059 C 
ATOM     13  C   UNL     1      -1.652   1.406  -0.698  0.00  0.00    +0.177 C 
ATOM     14  H   UNL     1      -0.007   3.595   2.275  0.00  0.00    +0.148 HD
BRANCH  11  15
ATOM     15  C   UNL     1       0.051   1.058   2.711  0.00  0.00    -0.027 A 
ATOM     16  C   UNL     1       1.359   1.497   2.794  0.00  0.00    +0.005 A 
ATOM     17  C   UNL     1       2.203   0.977   3.758  0.00  0.00    +0.000 A 
ATOM     18  C   UNL     1       1.740   0.012   4.633  0.00  0.00    +0.000 A 
ATOM     19  C   UNL     1       0.434  -0.431   4.546  0.00  0.00    +0.000 A 
ATOM     20  C   UNL     1      -0.411   0.092   3.585  0.00  0.00    +0.005 A 
ENDBRANCH  11  15
BRANCH  13  21
ATOM     21  C   UNL     1      -1.207   1.034  -2.114  0.00  0.00    +0.365 C 
ATOM     22  F   UNL     1       0.061   1.572  -2.360  0.00  0.00    -0.207 F 
ATOM     23  F   UNL     1      -1.154  -0.358  -2.236  0.00  0.00    -0.207 F 
ENDBRANCH  13  21
ENDBRANCH   2   5
BRANCH   1  24
ATOM     24  N   UNL     1      -1.394   8.405   1.504  0.00  0.00    -0.245 N 
ATOM     25  H   UNL     1      -0.853   8.256   2.450  0.00  0.00    +0.172 HD
BRANCH  24  26
ATOM     26  C   UNL     1      -1.769   9.645   1.131  0.00  0.00    +0.151 C 
ATOM     27  S   UNL     1      -1.403  10.987   2.130  0.00  0.00    -0.017 S 
BRANCH  26  28
ATOM     28  N   UNL     1      -2.433   9.829  -0.028  0.00  0.00    -0.296 N 
ATOM     29  H   UNL     1      -2.606   8.978  -0.703  0.00  0.00    +0.154 HD
BRANCH  28  33
ATOM     30  C   UNL     1      -3.827  13.622  -1.054  0.00  0.00    +0.121 A 
ATOM     31  C   UNL     1      -2.538  13.466  -0.567  0.00  0.00    +0.047 A 
ATOM     32  C   UNL     1      -2.075  12.210  -0.227  0.00  0.00    +0.027 A 
ATOM     33  C   UNL     1      -2.901  11.103  -0.373  0.00  0.00    +0.033 A 
ATOM     34  C   UNL     1      -4.190  11.260  -0.865  0.00  0.00    +0.027 A 
ATOM     35  C   UNL     1      -4.653  12.517  -1.200  0.00  0.00    +0.047 A 
BRANCH  30  36
ATOM     36  O   UNL     1      -4.282  14.859  -1.389  0.00  0.00    -0.492 OA
BRANCH  36  38
ATOM     37  C   UNL     1      -5.950  16.405  -2.204  0.00  0.00    +0.048 C 
ATOM     38  C   UNL     1      -5.620  14.947  -1.883  0.00  0.00    +0.225 C 
ENDBRANCH  36  38
ENDBRANCH  30  36
ENDBRANCH  28  33
ENDBRANCH  26  28
ENDBRANCH  24  26
ENDBRANCH   1  24
TORSDOF 9
