REMARK  Name = ZINC05067712
REMARK  9 active torsions:
REMARK  status: ('A' for Active; 'I' for Inactive)
REMARK    1  A    between atoms: C_1  and  C_2
REMARK    2  A    between atoms: C_5  and  N_9
REMARK    3  A    between atoms: C_6  and  C_8
REMARK    4  A    between atoms: C_10  and  C_12
REMARK    5  A    between atoms: C_12  and  O_13
REMARK    6  A    between atoms: O_13  and  C_14
REMARK    7  A    between atoms: C_14  and  C_16
REMARK    8  A    between atoms: C_16  and  N_17
REMARK    9  A    between atoms: C_25  and  C_27
REMARK                            x       y       z     vdW  Elec       q    Type
REMARK                         _______ _______ _______ _____ _____    ______ ____
ROOT
ATOM      1  C   UNL     1      -2.968   0.373   5.573  0.00  0.00    +0.326 C 
ATOM      2  O   UNL     1      -1.783   0.412   5.345  0.00  0.00    -0.249 OA
ENDROOT
BRANCH   1   3
ATOM      3  O   UNL     1      -3.406   0.332   6.842  0.00  0.00    -0.454 OA
BRANCH   3   4
ATOM      4  C   UNL     1      -2.399   0.336   7.887  0.00  0.00    +0.328 C 
BRANCH   4   6
ATOM      5  N   UNL     1      -2.331   0.281  10.359  0.00  0.00    -0.282 N 
ATOM      6  C   UNL     1      -3.073   0.286   9.234  0.00  0.00    +0.255 C 
ATOM      7  O   UNL     1      -4.283   0.250   9.306  0.00  0.00    -0.272 OA
ATOM      8  H   UNL     1      -1.364   0.229  10.303  0.00  0.00    +0.155 HD
BRANCH   5  13
ATOM      9  C   UNL     1      -4.863   0.565  15.428  0.00  0.00    +0.044 C 
ATOM     10  C   UNL     1      -4.190   0.490  14.082  0.00  0.00    -0.050 A 
ATOM     11  C   UNL     1      -4.828   0.994  12.963  0.00  0.00    +0.005 A 
ATOM     12  C   UNL     1      -4.214   0.926  11.727  0.00  0.00    +0.024 A 
ATOM     13  C   UNL     1      -2.956   0.351  11.610  0.00  0.00    +0.036 A 
ATOM     14  C   UNL     1      -2.321  -0.159  12.734  0.00  0.00    -0.029 A 
ATOM     15  C   UNL     1      -2.937  -0.083  13.968  0.00  0.00    +0.008 A 
ATOM     16  C   UNL     1      -0.958  -0.790  12.610  0.00  0.00    +0.045 C 
ENDBRANCH   5  13
ENDBRANCH   4   6
ENDBRANCH   3   4
ENDBRANCH   1   3
BRANCH   1  17
ATOM     17  C   UNL     1      -3.956   0.372   4.435  0.00  0.00    +0.238 C 
BRANCH  17  18
ATOM     18  N   UNL     1      -3.233   0.422   3.162  0.00  0.00    -0.213 N 
ATOM     19  C   UNL     1      -2.890   1.563   2.528  0.00  0.00    +0.247 C 
ATOM     20  O   UNL     1      -3.113   2.698   2.890  0.00  0.00    -0.273 OA
ATOM     21  C   UNL     1      -2.170   1.127   1.273  0.00  0.00    +0.115 C 
ATOM     22  C   UNL     1      -2.916   1.611   0.035  0.00  0.00    +0.035 C 
ATOM     23  C   UNL     1      -2.188   1.129  -1.222  0.00  0.00    +0.003 C 
ATOM     24  C   UNL     1      -0.758   1.673  -1.222  0.00  0.00    +0.000 C 
ATOM     25  C   UNL     1      -0.015   1.162   0.014  0.00  0.00    +0.006 C 
ATOM     26  C   UNL     1      -0.735   1.645   1.276  0.00  0.00    +0.018 C 
ATOM     27  C   UNL     1      -0.004   1.117   2.512  0.00  0.00    +0.010 C 
ATOM     28  N   UNL     1      -2.187  -0.340   1.343  0.00  0.00    -0.285 N 
ATOM     29  C   UNL     1      -2.830  -0.659   2.482  0.00  0.00    +0.310 C 
ATOM     30  O   UNL     1      -3.023  -1.801   2.852  0.00  0.00    -0.252 OA
ATOM     31  H   UNL     1      -1.809  -0.957   0.697  0.00  0.00    +0.151 HD
ENDBRANCH  17  18
ENDBRANCH   1  17
TORSDOF 6
