REMARK  Name = ZINC04550950
REMARK  10 active torsions:
REMARK  status: ('A' for Active; 'I' for Inactive)
REMARK    1  A    between atoms: C_1  and  C_2
REMARK    2  A    between atoms: C_5  and  O_9
REMARK    3  A    between atoms: C_7  and  C_8
REMARK    4  A    between atoms: O_9  and  C_10
REMARK    5  A    between atoms: C_10  and  C_11
REMARK    6  A    between atoms: N_13  and  C_14
REMARK    7  A    between atoms: C_16  and  C_21
REMARK    8  A    between atoms: C_19  and  C_20
REMARK    9  A    between atoms: C_25  and  C_31
REMARK   10  A    between atoms: C_27  and  C_30
REMARK                            x       y       z     vdW  Elec       q    Type
REMARK                         _______ _______ _______ _____ _____    ______ ____
ROOT
ATOM      1  C   UNL     1      -2.184  -3.059   0.015  0.00  0.00    +0.037 A 
ATOM      2  C   UNL     1      -1.051  -2.260   0.012  0.00  0.00    +0.036 A 
ATOM      3  C   UNL     1      -1.182  -0.872   0.029  0.00  0.00    +0.039 A 
ATOM      4  C   UNL     1      -2.454  -0.296   0.055  0.00  0.00    +0.013 A 
ATOM      5  C   UNL     1      -3.575  -1.099   0.053  0.00  0.00    +0.006 A 
ATOM      6  C   UNL     1      -3.445  -2.476   0.036  0.00  0.00    -0.029 A 
ATOM      7  C   UNL     1      -4.675  -3.346   0.039  0.00  0.00    +0.045 C 
ENDROOT
BRANCH   3   8
ATOM      8  C   UNL     1       0.021  -0.013   0.027  0.00  0.00    +0.228 A 
ATOM      9  N   UNL     1       1.255  -0.450   0.009  0.00  0.00    -0.209 NA
ATOM     10  C   UNL     1       2.096   0.616   0.012  0.00  0.00    +0.110 A 
ATOM     11  C   UNL     1       3.487   0.748  -0.001  0.00  0.00    +0.035 A 
ATOM     12  C   UNL     1       4.054   2.002   0.007  0.00  0.00    -0.048 A 
ATOM     13  C   UNL     1       3.253   3.135   0.029  0.00  0.00    +0.010 A 
ATOM     14  C   UNL     1       1.878   3.020   0.042  0.00  0.00    -0.006 A 
ATOM     15  C   UNL     1       1.289   1.766   0.034  0.00  0.00    +0.159 A 
ATOM     16  O   UNL     1       0.009   1.333   0.042  0.00  0.00    -0.435 OA
ATOM     17  C   UNL     1       1.018   4.258   0.065  0.00  0.00    +0.047 C 
ATOM     18  C   UNL     1       5.554   2.146  -0.006  0.00  0.00    +0.044 C 
ENDBRANCH   3   8
BRANCH   1  21
ATOM     19  C   UNL     1      -1.049  -5.029  -0.685  0.00  0.00    +0.255 C 
ATOM     20  O   UNL     1      -0.204  -4.340  -1.216  0.00  0.00    -0.272 OA
ATOM     21  N   UNL     1      -2.058  -4.452  -0.002  0.00  0.00    -0.282 N 
ATOM     22  H   UNL     1      -2.696  -5.003   0.477  0.00  0.00    +0.155 HD
BRANCH  19  23
ATOM     23  C   UNL     1      -0.971  -6.530  -0.789  0.00  0.00    +0.324 C 
BRANCH  23  24
ATOM     24  O   UNL     1       0.178  -6.896  -1.557  0.00  0.00    -0.483 OA
BRANCH  24  29
ATOM     25  C   UNL     1       1.083 -12.399  -2.344  0.00  0.00    +0.044 C 
ATOM     26  C   UNL     1       0.841 -10.926  -2.134  0.00  0.00    -0.047 A 
ATOM     27  C   UNL     1      -0.253 -10.505  -1.400  0.00  0.00    +0.007 A 
ATOM     28  C   UNL     1      -0.474  -9.156  -1.201  0.00  0.00    +0.046 A 
ATOM     29  C   UNL     1       0.396  -8.223  -1.747  0.00  0.00    +0.121 A 
ATOM     30  C   UNL     1       1.493  -8.649  -2.482  0.00  0.00    +0.049 A 
ATOM     31  C   UNL     1       1.713  -9.999  -2.674  0.00  0.00    -0.044 A 
ATOM     32  C   UNL     1       2.903 -10.462  -3.473  0.00  0.00    +0.044 C 
ENDBRANCH  24  29
ENDBRANCH  23  24
ENDBRANCH  19  23
ENDBRANCH   1  21
TORSDOF 5
