REMARK  Name = ZINC01107265
REMARK  11 active torsions:
REMARK  status: ('A' for Active; 'I' for Inactive)
REMARK    1  A    between atoms: C_1  and  C_2
REMARK    2  A    between atoms: C_2  and  C_36
REMARK    3  A    between atoms: C_6  and  C_14
REMARK    4  A    between atoms: C_8  and  C_12
REMARK    5  A    between atoms: C_9  and  N_11
REMARK    6  A    between atoms: C_17  and  O_31
REMARK    7  A    between atoms: C_18  and  C_20
REMARK    8  A    between atoms: C_20  and  O_21
REMARK    9  A    between atoms: O_21  and  C_22
REMARK   10  A    between atoms: C_27  and  N_28
REMARK   11  A    between atoms: O_31  and  C_32
REMARK                            x       y       z     vdW  Elec       q    Type
REMARK                         _______ _______ _______ _____ _____    ______ ____
ROOT
ATOM      1  C   UNL     1       5.595   6.268  -0.016  0.00  0.00    -0.034 A 
ATOM      2  C   UNL     1       6.882   5.762  -0.029  0.00  0.00    +0.008 A 
ATOM      3  C   UNL     1       7.088   4.396  -0.038  0.00  0.00    +0.046 A 
ATOM      4  C   UNL     1       6.002   3.532  -0.028  0.00  0.00    +0.126 A 
ATOM      5  C   UNL     1       4.713   4.042  -0.020  0.00  0.00    +0.032 A 
ATOM      6  C   UNL     1       4.512   5.409  -0.011  0.00  0.00    +0.015 A 
ENDROOT
BRANCH   1  12
ATOM      7  C   UNL     1       5.837  11.132  -2.700  0.00  0.00    +0.012 C 
ATOM      8  C   UNL     1       6.678  10.054  -3.386  0.00  0.00    -0.021 C 
ATOM      9  C   UNL     1       7.785   9.586  -2.438  0.00  0.00    +0.081 C 
ATOM     10  C   UNL     1       7.169   8.991  -1.193  0.00  0.00    +0.115 C 
ATOM     11  C   UNL     1       5.980   8.364  -1.248  0.00  0.00    +0.046 C 
ATOM     12  C   UNL     1       5.373   7.759  -0.005  0.00  0.00    +0.101 C 
ATOM     13  C   UNL     1       6.011   8.350   1.221  0.00  0.00    +0.098 C 
ATOM     14  C   UNL     1       7.205   8.986   1.133  0.00  0.00    +0.198 C 
ATOM     15  O   UNL     1       7.850   9.103  -0.037  0.00  0.00    -0.445 OA
ATOM     16  C   UNL     1       5.264   8.255  -2.456  0.00  0.00    +0.164 C 
ATOM     17  O   UNL     1       4.201   7.668  -2.468  0.00  0.00    -0.292 OA
ATOM     18  C   UNL     1       5.794   8.852  -3.731  0.00  0.00    +0.086 C 
ATOM     19  C   UNL     1       7.301  10.624  -4.662  0.00  0.00    +0.012 C 
BRANCH  14  20
ATOM     20  N   UNL     1       7.765   9.522   2.266  0.00  0.00    -0.328 N 
ATOM     21  H   UNL     1       7.307   9.443   3.117  0.00  0.00    +0.145 HD
ATOM     22  H   UNL     1       8.618   9.980   2.215  0.00  0.00    +0.145 HD
ENDBRANCH  14  20
BRANCH  13  23
ATOM     23  C   UNL     1       5.355   8.239   2.489  0.00  0.00    +0.101 C 
ATOM     24  N   UNL     1       4.834   8.152   3.495  0.00  0.00    -0.191 NA
ENDBRANCH  13  23
ENDBRANCH   1  12
BRANCH   4  25
ATOM     25  O   UNL     1       6.203   2.188  -0.031  0.00  0.00    -0.495 OA
ATOM     26  C   UNL     1       7.558   1.734  -0.040  0.00  0.00    +0.277 C 
ENDBRANCH   4  25
BRANCH   5  27
ATOM     27  C   UNL     1       3.531   3.107  -0.014  0.00  0.00    +0.268 C 
BRANCH  27  28
ATOM     28  O   UNL     1       2.321   3.867   0.001  0.00  0.00    -0.485 OA
BRANCH  28  29
ATOM     29  C   UNL     1       1.155   3.169   0.008  0.00  0.00    +0.151 A 
ATOM     30  C   UNL     1       1.174   1.782   0.000  0.00  0.00    +0.048 A 
ATOM     31  C   UNL     1      -0.013   1.076   0.008  0.00  0.00    +0.004 A 
ATOM     32  C   UNL     1      -1.220   1.750   0.017  0.00  0.00    +0.002 A 
ATOM     33  C   UNL     1      -1.242   3.132   0.030  0.00  0.00    +0.036 A 
ATOM     34  C   UNL     1      -0.057   3.844   0.022  0.00  0.00    +0.168 A 
BRANCH  34  35
ATOM     35  N   UNL     1      -0.082   5.323   0.030  0.00  0.00    +0.060 N 
ATOM     36  O   UNL     1      -1.146   5.915   0.043  0.00  0.00    -0.126 OA
ATOM     37  O   UNL     1       0.963   5.950   0.024  0.00  0.00    -0.126 OA
ENDBRANCH  34  35
ENDBRANCH  28  29
ENDBRANCH  27  28
ENDBRANCH   5  27
TORSDOF 8
