REMARK  Name = ZINC66925742
REMARK  8 active torsions:
REMARK  status: ('A' for Active; 'I' for Inactive)
REMARK    1  A    between atoms: C_4  and  O_7
REMARK    2  A    between atoms: O_7  and  C_8
REMARK    3  A    between atoms: C_8  and  C_9
REMARK    4  A    between atoms: C_9  and  C_10
REMARK    5  A    between atoms: N_12  and  N_13
REMARK    6  A    between atoms: N_16  and  C_17
REMARK    7  A    between atoms: C_17  and  C_18
REMARK    8  A    between atoms: C_18  and  O_28
REMARK                            x       y       z     vdW  Elec       q    Type
REMARK                         _______ _______ _______ _____ _____    ______ ____
ROOT
ATOM      1  N   UNL     1       6.035  -6.234   0.447  0.00  0.00    -0.218 N 
ATOM      2  C   UNL     1       7.162  -6.955   0.288  0.00  0.00    +0.316 C 
ATOM      3  O   UNL     1       7.125  -8.168   0.368  0.00  0.00    -0.251 OA
ATOM      4  N   UNL     1       8.331  -6.332   0.040  0.00  0.00    -0.295 N 
ATOM      5  H   UNL     1       5.194  -6.683   0.625  0.00  0.00    +0.174 HD
ATOM      6  H   UNL     1       8.361  -5.364  -0.024  0.00  0.00    +0.150 HD
ENDROOT
BRANCH   1   9
ATOM      7  C   UNL     1       4.950  -4.116   0.514  0.00  0.00    +0.232 C 
ATOM      8  O   UNL     1       3.898  -4.677   0.737  0.00  0.00    -0.274 OA
ATOM      9  N   UNL     1       6.078  -4.837   0.355  0.00  0.00    -0.233 N 
ATOM     10  H   UNL     1       6.919  -4.388   0.177  0.00  0.00    +0.173 HD
BRANCH   7  11
ATOM     11  C   UNL     1       4.997  -2.613   0.415  0.00  0.00    +0.138 C 
BRANCH  11  12
ATOM     12  C   UNL     1       3.593  -2.044   0.633  0.00  0.00    +0.238 C 
BRANCH  12  13
ATOM     13  O   UNL     1       3.637  -0.619   0.539  0.00  0.00    -0.491 OA
BRANCH  13  17
ATOM     14  C   UNL     1       0.078   1.403   1.056  0.00  0.00    +0.000 A 
ATOM     15  C   UNL     1       1.242   2.107   0.805  0.00  0.00    +0.004 A 
ATOM     16  C   UNL     1       2.435   1.432   0.632  0.00  0.00    +0.045 A 
ATOM     17  C   UNL     1       2.465   0.047   0.710  0.00  0.00    +0.121 A 
ATOM     18  C   UNL     1       1.296  -0.656   0.962  0.00  0.00    +0.045 A 
ATOM     19  C   UNL     1       0.106   0.023   1.134  0.00  0.00    +0.004 A 
ENDBRANCH  13  17
ENDBRANCH  12  13
ENDBRANCH  11  12
ENDBRANCH   7  11
ENDBRANCH   1   9
BRANCH   4  20
ATOM     20  C   UNL     1       9.557  -7.115  -0.133  0.00  0.00    +0.145 C 
BRANCH  20  21
ATOM     21  C   UNL     1      10.752  -6.170  -0.266  0.00  0.00    +0.107 C 
ATOM     22  C   UNL     1      10.825  -5.273   0.968  0.00  0.00    +0.041 C 
ATOM     23  C   UNL     1      12.143  -4.490   0.921  0.00  0.00    +0.008 C 
ATOM     24  C   UNL     1      13.291  -5.466   1.166  0.00  0.00    +0.035 C 
ATOM     25  C   UNL     1      13.181  -6.655   0.248  0.00  0.00    -0.041 A 
ATOM     26  C   UNL     1      12.014  -6.981  -0.406  0.00  0.00    -0.011 A 
ATOM     27  C   UNL     1      11.978  -8.095  -1.234  0.00  0.00    +0.007 A 
ATOM     28  C   UNL     1      13.102  -8.876  -1.408  0.00  0.00    +0.000 A 
ATOM     29  C   UNL     1      14.274  -8.547  -0.754  0.00  0.00    +0.000 A 
ATOM     30  C   UNL     1      14.312  -7.441   0.070  0.00  0.00    +0.004 A 
BRANCH  21  31
ATOM     31  O   UNL     1      10.583  -5.357  -1.429  0.00  0.00    -0.382 OA
ATOM     32  H   UNL     1      10.520  -5.858  -2.253  0.00  0.00    +0.211 HD
ENDBRANCH  21  31
ENDBRANCH  20  21
ENDBRANCH   4  20
TORSDOF 8
