REMARK  Name = ZINC05782093
REMARK  7 active torsions:
REMARK  status: ('A' for Active; 'I' for Inactive)
REMARK    1  A    between atoms: C_1  and  C_2
REMARK    2  A    between atoms: C_2  and  C_3
REMARK    3  A    between atoms: C_6  and  N_8
REMARK    4  A    between atoms: C_9  and  C_11
REMARK    5  A    between atoms: C_12  and  N_26
REMARK    6  A    between atoms: C_18  and  O_24
REMARK    7  A    between atoms: O_24  and  C_25
REMARK                            x       y       z     vdW  Elec       q    Type
REMARK                         _______ _______ _______ _____ _____    ______ ____
ROOT
ATOM      1  C   UNL     1      -0.650   9.390   1.412  0.00  0.00    +0.102 A 
ATOM      2  C   UNL     1      -1.362  10.499   1.018  0.00  0.00    +0.054 A 
ATOM      3  C   UNL     1      -0.828  11.817   1.341  0.00  0.00    +0.028 A 
ATOM      4  C   UNL     1      -1.392  13.072   1.038  0.00  0.00    +0.022 A 
ATOM      5  C   UNL     1      -0.716  14.227   1.433  0.00  0.00    -0.001 A 
ATOM      6  C   UNL     1      -1.226  15.512   1.161  0.00  0.00    +0.013 A 
ATOM      7  C   UNL     1      -0.531  16.608   1.565  0.00  0.00    +0.046 A 
ATOM      8  C   UNL     1       0.683  16.493   2.249  0.00  0.00    +0.122 A 
ATOM      9  C   UNL     1       1.227  15.274   2.541  0.00  0.00    +0.071 A 
ATOM     10  C   UNL     1       0.556  14.106   2.149  0.00  0.00    +0.051 A 
ATOM     11  N   UNL     1       1.045  12.892   2.410  0.00  0.00    -0.349 N 
ATOM     12  C   UNL     1       0.409  11.807   2.038  0.00  0.00    +0.088 A 
ATOM     13  S   UNL     1       0.778  10.078   2.225  0.00  0.00    -0.064 S 
ATOM     14  H   UNL     1       2.000  12.787   2.947  0.00  0.00    +0.166 HD
ENDROOT
BRANCH   1  16
ATOM     15  N   UNL     1      -0.144   7.064   1.668  0.00  0.00    -0.180 NA
ATOM     16  C   UNL     1      -0.972   8.026   1.213  0.00  0.00    +0.288 C 
ATOM     17  O   UNL     1      -1.998   7.721   0.631  0.00  0.00    -0.265 OA
BRANCH  15  21
ATOM     18  C   UNL     1      -0.749   3.086   1.275  0.00  0.00    +0.104 A 
ATOM     19  N   UNL     1      -1.640   3.924   0.783  0.00  0.00    -0.144 NA
ATOM     20  N   UNL     1      -1.508   5.175   0.875  0.00  0.00    -0.121 NA
ATOM     21  C   UNL     1      -0.461   5.726   1.473  0.00  0.00    +0.218 A 
ATOM     22  S   UNL     1       0.426   4.249   1.962  0.00  0.00    -0.031 S 
BRANCH  18  24
ATOM     23  C   UNL     1      -0.013   1.086   0.008  0.00  0.00    +0.011 C 
ATOM     24  C   UNL     1      -0.729   1.579   1.267  0.00  0.00    +0.061 C 
ENDBRANCH  18  24
ENDBRANCH  15  21
ENDBRANCH   1  16
BRANCH   2  25
ATOM     25  N   UNL     1      -2.561  10.366   0.334  0.00  0.00    -0.356 N 
ATOM     26  H   UNL     1      -3.120  11.262   0.025  0.00  0.00    +0.142 HD
ATOM     27  H   UNL     1      -2.953   9.366   0.100  0.00  0.00    +0.142 HD
ENDBRANCH   2  25
BRANCH   8  28
ATOM     28  O   UNL     1       1.337  17.620   2.632  0.00  0.00    -0.495 OA
ATOM     29  C   UNL     1       0.726  18.869   2.302  0.00  0.00    +0.277 C 
ENDBRANCH   8  28
TORSDOF 5
