REMARK  Name = ZINC24583859
REMARK  8 active torsions:
REMARK  status: ('A' for Active; 'I' for Inactive)
REMARK    1  A    between atoms: C_1  and  C_2
REMARK    2  A    between atoms: C_2  and  C_3
REMARK    3  A    between atoms: C_2  and  C_4
REMARK    4  A    between atoms: C_2  and  C_5
REMARK    5  A    between atoms: C_8  and  O_31
REMARK    6  A    between atoms: C_9  and  N_11
REMARK    7  A    between atoms: C_12  and  C_14
REMARK    8  A    between atoms: C_14  and  N_15
REMARK                            x       y       z     vdW  Elec       q    Type
REMARK                         _______ _______ _______ _____ _____    ______ ____
ROOT
ATOM      1  C   UNL     1       6.432   0.476  -2.324  0.00  0.00    +0.214 C 
ENDROOT
BRANCH   1   2
ATOM      2  N   UNL     1       5.508   0.137  -1.238  0.00  0.00    -0.215 N 
ATOM      3  C   UNL     1       4.365  -0.559  -1.405  0.00  0.00    +0.251 C 
ATOM      4  O   UNL     1       3.922  -1.004  -2.442  0.00  0.00    -0.272 OA
ATOM      5  C   UNL     1       3.751  -0.665  -0.027  0.00  0.00    +0.138 C 
ATOM      6  C   UNL     1       3.641  -2.127   0.391  0.00  0.00    +0.040 C 
ATOM      7  C   UNL     1       2.518  -2.780  -0.424  0.00  0.00    +0.008 C 
ATOM      8  C   UNL     1       1.184  -2.196   0.035  0.00  0.00    +0.035 C 
ATOM      9  C   UNL     1       1.227  -0.690   0.018  0.00  0.00    -0.042 A 
ATOM     10  C   UNL     1       2.411   0.015  -0.002  0.00  0.00    -0.012 A 
ATOM     11  C   UNL     1       2.383   1.403  -0.002  0.00  0.00    +0.006 A 
ATOM     12  C   UNL     1       1.182   2.081   0.013  0.00  0.00    +0.000 A 
ATOM     13  C   UNL     1      -0.006   1.373   0.028  0.00  0.00    +0.000 A 
ATOM     14  C   UNL     1       0.019  -0.006   0.030  0.00  0.00    +0.004 A 
ATOM     15  N   UNL     1       4.700   0.046   0.840  0.00  0.00    -0.281 N 
ATOM     16  C   UNL     1       5.694   0.479   0.042  0.00  0.00    +0.310 C 
ATOM     17  O   UNL     1       6.654   1.111   0.440  0.00  0.00    -0.252 OA
ATOM     18  H   UNL     1       4.504   0.129   1.919  0.00  0.00    +0.152 HD
ENDBRANCH   1   2
BRANCH   1  20
ATOM     19  N   UNL     1       6.756   2.322  -3.938  0.00  0.00    -0.281 N 
ATOM     20  C   UNL     1       6.043   1.805  -2.918  0.00  0.00    +0.235 C 
ATOM     21  O   UNL     1       5.088   2.410  -2.478  0.00  0.00    -0.274 OA
ATOM     22  H   UNL     1       7.664   1.810  -4.289  0.00  0.00    +0.155 HD
BRANCH  19  27
ATOM     23  C   UNL     1       5.331   5.681  -4.407  0.00  0.00    -0.040 A 
ATOM     24  C   UNL     1       5.518   5.862  -5.765  0.00  0.00    +0.008 A 
ATOM     25  C   UNL     1       6.115   4.871  -6.522  0.00  0.00    +0.047 A 
ATOM     26  C   UNL     1       6.528   3.693  -5.920  0.00  0.00    +0.138 A 
ATOM     27  C   UNL     1       6.340   3.511  -4.552  0.00  0.00    +0.076 A 
ATOM     28  C   UNL     1       5.735   4.507  -3.800  0.00  0.00    +0.031 A 
BRANCH  23  30
ATOM     29  C   UNL     1       4.324   7.946  -4.493  0.00  0.00    +0.015 C 
ATOM     30  C   UNL     1       4.679   6.765  -3.587  0.00  0.00    -0.013 C 
ATOM     31  C   UNL     1       3.405   6.218  -2.940  0.00  0.00    +0.015 C 
ATOM     32  C   UNL     1       5.645   7.231  -2.497  0.00  0.00    +0.015 C 
ENDBRANCH  23  30
BRANCH  26  33
ATOM     33  O   UNL     1       7.115   2.718  -6.663  0.00  0.00    -0.505 OA
ATOM     34  H   UNL     1       7.442   1.783  -6.184  0.00  0.00    +0.292 HD
ENDBRANCH  26  33
ENDBRANCH  19  27
ENDBRANCH   1  20
TORSDOF 5
