REMARK  Name = ZINC66582784
REMARK  11 active torsions:
REMARK  status: ('A' for Active; 'I' for Inactive)
REMARK    1  A    between atoms: C_1  and  C_2
REMARK    2  A    between atoms: C_5  and  N_27
REMARK    3  A    between atoms: C_6  and  N_9
REMARK    4  A    between atoms: C_7  and  C_8
REMARK    5  A    between atoms: C_10  and  C_12
REMARK    6  A    between atoms: C_12  and  C_14
REMARK    7  A    between atoms: C_12  and  N_15
REMARK    8  A    between atoms: N_15  and  C_16
REMARK    9  A    between atoms: C_20  and  N_22
REMARK   10  A    between atoms: C_23  and  C_25
REMARK   11  A    between atoms: C_25  and  O_26
REMARK                            x       y       z     vdW  Elec       q    Type
REMARK                         _______ _______ _______ _____ _____    ______ ____
ROOT
ATOM      1  C   UNL     1       0.912  -4.798   4.364  0.00  0.00    +0.154 C 
ATOM      2  C   UNL     1       1.783  -4.008   5.344  0.00  0.00    +0.038 C 
ENDROOT
BRANCH   1   4
ATOM      3  N   UNL     1       0.358  -2.820   2.986  0.00  0.00    -0.282 N 
ATOM      4  C   UNL     1       0.855  -4.071   3.045  0.00  0.00    +0.237 C 
ATOM      5  O   UNL     1       1.256  -4.612   2.036  0.00  0.00    -0.273 OA
ATOM      6  H   UNL     1      -0.035  -2.417   3.776  0.00  0.00    +0.155 HD
BRANCH   3  12
ATOM      7  C   UNL     1      -0.642  -2.529  -1.819  0.00  0.00    +0.044 C 
ATOM      8  C   UNL     1      -0.066  -1.937  -0.558  0.00  0.00    -0.046 A 
ATOM      9  C   UNL     1       0.515  -0.682  -0.587  0.00  0.00    +0.006 A 
ATOM     10  C   UNL     1       1.044  -0.136   0.568  0.00  0.00    +0.035 A 
ATOM     11  C   UNL     1       0.994  -0.842   1.754  0.00  0.00    +0.148 A 
ATOM     12  C   UNL     1       0.411  -2.102   1.786  0.00  0.00    +0.067 A 
ATOM     13  C   UNL     1      -0.125  -2.646   0.626  0.00  0.00    -0.024 A 
ATOM     14  C   UNL     1      -0.764  -4.010   0.657  0.00  0.00    +0.046 C 
BRANCH  11  15
ATOM     15  N   UNL     1       1.562  -0.257   2.989  0.00  0.00    +0.058 N 
ATOM     16  O   UNL     1       2.152   0.798   2.943  0.00  0.00    -0.126 OA
ATOM     17  O   UNL     1       1.436  -0.833   4.045  0.00  0.00    -0.126 OA
ENDBRANCH  11  15
ENDBRANCH   3  12
ENDBRANCH   1   4
BRANCH   1  18
ATOM     18  N   UNL     1       1.489  -6.130   4.163  0.00  0.00    -0.333 N 
ATOM     19  H   UNL     1       2.079  -6.295   3.411  0.00  0.00    +0.147 HD
BRANCH  18  20
ATOM     20  C   UNL     1       1.188  -7.163   5.053  0.00  0.00    +0.029 A 
ATOM     21  C   UNL     1       0.337  -6.929   6.128  0.00  0.00    +0.023 A 
ATOM     22  C   UNL     1       0.040  -7.950   7.009  0.00  0.00    +0.004 A 
ATOM     23  C   UNL     1       0.586  -9.206   6.827  0.00  0.00    +0.023 A 
ATOM     24  C   UNL     1       1.436  -9.446   5.755  0.00  0.00    +0.035 A 
ATOM     25  C   UNL     1       1.733  -8.424   4.864  0.00  0.00    +0.046 A 
BRANCH  24  26
ATOM     26  N   UNL     1       1.989 -10.718   5.571  0.00  0.00    -0.284 N 
ATOM     27  C   UNL     1       1.282 -11.815   5.907  0.00  0.00    +0.243 C 
ATOM     28  O   UNL     1       0.137 -11.704   6.291  0.00  0.00    -0.273 OA
ATOM     29  H   UNL     1       2.881 -10.811   5.200  0.00  0.00    +0.155 HD
BRANCH  27  30
ATOM     30  C   UNL     1       1.915 -13.179   5.807  0.00  0.00    +0.251 C 
BRANCH  30  31
ATOM     31  O   UNL     1       0.972 -14.173   6.216  0.00  0.00    -0.386 OA
ATOM     32  H   UNL     1       1.312 -15.077   6.177  0.00  0.00    +0.210 HD
ENDBRANCH  30  31
ENDBRANCH  27  30
ENDBRANCH  24  26
ENDBRANCH  18  20
ENDBRANCH   1  18
TORSDOF 8
