REMARK  Name = ZINC59263924
REMARK  10 active torsions:
REMARK  status: ('A' for Active; 'I' for Inactive)
REMARK    1  A    between atoms: C_1  and  C_2
REMARK    2  A    between atoms: C_2  and  C_3
REMARK    3  A    between atoms: C_2  and  C_4
REMARK    4  A    between atoms: C_2  and  C_5
REMARK    5  A    between atoms: C_5  and  C_7
REMARK    6  A    between atoms: C_5  and  N_13
REMARK    7  A    between atoms: N_16  and  C_17
REMARK    8  A    between atoms: C_17  and  C_18
REMARK    9  A    between atoms: C_18  and  C_20
REMARK   10  A    between atoms: C_18  and  N_25
REMARK                            x       y       z     vdW  Elec       q    Type
REMARK                         _______ _______ _______ _____ _____    ______ ____
ROOT
ATOM      1  N   UNL     1       0.778  -1.957  -1.367  0.00  0.00    -0.292 N 
ATOM      2  C   UNL     1      -0.216  -2.646  -1.961  0.00  0.00    +0.300 C 
ATOM      3  O   UNL     1      -1.060  -2.058  -2.609  0.00  0.00    -0.253 OA
ATOM      4  N   UNL     1      -0.275  -3.987  -1.835  0.00  0.00    -0.301 N 
ATOM      5  H   UNL     1       1.452  -2.425  -0.850  0.00  0.00    +0.151 HD
ATOM      6  H   UNL     1       0.398  -4.455  -1.318  0.00  0.00    +0.150 HD
ENDROOT
BRANCH   1   7
ATOM      7  C   UNL     1       0.842  -0.499  -1.504  0.00  0.00    +0.110 C 
BRANCH   7   8
ATOM      8  C   UNL     1       2.266  -0.040  -1.320  0.00  0.00    -0.027 A 
ATOM      9  C   UNL     1       3.062  -0.625  -0.353  0.00  0.00    +0.005 A 
ATOM     10  C   UNL     1       4.368  -0.204  -0.185  0.00  0.00    +0.000 A 
ATOM     11  C   UNL     1       4.877   0.803  -0.983  0.00  0.00    +0.000 A 
ATOM     12  C   UNL     1       4.081   1.388  -1.950  0.00  0.00    +0.000 A 
ATOM     13  C   UNL     1       2.777   0.964  -2.122  0.00  0.00    +0.005 A 
ENDBRANCH   7   8
BRANCH   7  15
ATOM     14  C   UNL     1       0.022   1.673  -0.583  0.00  0.00    +0.013 C 
ATOM     15  C   UNL     1      -0.045   0.152  -0.441  0.00  0.00    -0.015 C 
ATOM     16  C   UNL     1       0.446  -0.253   0.951  0.00  0.00    +0.013 C 
ATOM     17  C   UNL     1      -1.490  -0.315  -0.627  0.00  0.00    +0.013 C 
ENDBRANCH   7  15
ENDBRANCH   1   7
BRANCH   4  18
ATOM     18  C   UNL     1      -1.356  -4.736  -2.481  0.00  0.00    +0.098 C 
BRANCH  18  19
ATOM     19  C   UNL     1      -1.117  -6.236  -2.297  0.00  0.00    +0.016 C 
BRANCH  19  20
ATOM     20  N   UNL     1      -2.265  -6.983  -2.827  0.00  0.00    +0.387 N 
ATOM     21  C   UNL     1      -2.053  -8.443  -2.651  0.00  0.00    -0.078 C 
ATOM     22  C   UNL     1      -3.489  -9.020  -2.709  0.00  0.00    -0.020 C 
ATOM     23  C   UNL     1      -4.323  -7.947  -1.972  0.00  0.00    -0.020 C 
ATOM     24  C   UNL     1      -3.486  -6.658  -2.058  0.00  0.00    -0.078 C 
ATOM     25  H   UNL     1      -2.401  -6.766  -3.803  0.00  0.00    -0.081 HD
ENDBRANCH  19  20
BRANCH  19  26
ATOM     26  C   UNL     1       0.131  -6.640  -3.037  0.00  0.00    +0.093 A 
ATOM     27  C   UNL     1       1.343  -6.835  -2.488  0.00  0.00    +0.043 A 
ATOM     28  C   UNL     1       2.215  -7.201  -3.539  0.00  0.00    +0.041 A 
ATOM     29  C   UNL     1       1.484  -7.208  -4.668  0.00  0.00    +0.195 A 
ATOM     30  O   UNL     1       0.221  -6.874  -4.357  0.00  0.00    -0.469 OA
ENDBRANCH  19  26
ENDBRANCH  18  19
ENDBRANCH   4  18
TORSDOF 7
