REMARK  Name = ZINC22324971
REMARK  11 active torsions:
REMARK  status: ('A' for Active; 'I' for Inactive)
REMARK    1  A    between atoms: C_1  and  C_2
REMARK    2  A    between atoms: C_3  and  C_28
REMARK    3  A    between atoms: C_4  and  C_27
REMARK    4  A    between atoms: C_7  and  C_8
REMARK    5  A    between atoms: C_8  and  N_10
REMARK    6  A    between atoms: C_13  and  C_16
REMARK    7  A    between atoms: C_16  and  N_17
REMARK    8  A    between atoms: C_19  and  C_26
REMARK    9  A    between atoms: C_22  and  C_25
REMARK   10  A    between atoms: C_28  and  O_30
REMARK   11  A    between atoms: O_30  and  C_31
REMARK                            x       y       z     vdW  Elec       q    Type
REMARK                         _______ _______ _______ _____ _____    ______ ____
ROOT
ATOM      1  N   UNL     1       0.054  -1.285   3.482  0.00  0.00    -0.151 NA
ATOM      2  C   UNL     1       0.062  -0.887   4.752  0.00  0.00    +0.163 A 
ATOM      3  N   UNL     1       0.089  -1.652   5.878  0.00  0.00    -0.341 N 
ATOM      4  C   UNL     1       0.092  -1.034   7.090  0.00  0.00    +0.008 A 
ATOM      5  C   UNL     1       0.068   0.303   7.097  0.00  0.00    +0.067 A 
ATOM      6  S   UNL     1       0.048   0.682   5.355  0.00  0.00    -0.061 S 
ATOM      7  H   UNL     1       0.105  -2.620   5.817  0.00  0.00    +0.167 HD
ENDROOT
BRANCH   1   8
ATOM      8  C   UNL     1       0.032  -0.379   2.497  0.00  0.00    +0.286 C 
ATOM      9  O   UNL     1       0.019   0.811   2.764  0.00  0.00    -0.266 OA
BRANCH   8  16
ATOM     10  C   UNL     1      -0.018   1.503   0.010  0.00  0.00    +0.047 C 
ATOM     11  C   UNL     1       0.002  -0.004   0.002  0.00  0.00    -0.006 A 
ATOM     12  C   UNL     1       0.008  -0.839  -1.140  0.00  0.00    +0.083 A 
ATOM     13  C   UNL     1       0.028  -2.145  -0.687  0.00  0.00    +0.028 A 
ATOM     14  N   UNL     1       0.034  -2.125   0.657  0.00  0.00    -0.354 N 
ATOM     15  H   UNL     1       0.047  -2.908   1.230  0.00  0.00    +0.166 HD
ATOM     16  C   UNL     1       0.024  -0.819   1.092  0.00  0.00    +0.108 A 
ATOM     17  C   UNL     1       0.041  -3.379  -1.551  0.00  0.00    +0.064 C 
BRANCH  12  18
ATOM     18  C   UNL     1      -0.004  -0.401  -2.546  0.00  0.00    +0.341 C 
ATOM     19  O   UNL     1       1.043  -0.205  -3.131  0.00  0.00    -0.245 OA
BRANCH  18  20
ATOM     20  O   UNL     1      -1.177  -0.216  -3.183  0.00  0.00    -0.464 OA
ATOM     21  C   UNL     1      -1.115   0.209  -4.546  0.00  0.00    +0.280 C 
ENDBRANCH  18  20
ENDBRANCH  12  18
ENDBRANCH   8  16
ENDBRANCH   1   8
BRANCH   4  22
ATOM     22  C   UNL     1       0.121  -1.825   8.373  0.00  0.00    -0.024 C 
BRANCH  22  23
ATOM     23  N   UNL     1      -1.119  -2.602   8.497  0.00  0.00    +0.384 N 
ATOM     24  C   UNL     1      -2.259  -1.685   8.621  0.00  0.00    -0.075 C 
ATOM     25  C   UNL     1      -3.561  -2.488   8.670  0.00  0.00    -0.031 C 
ATOM     26  C   UNL     1      -3.528  -3.431   9.876  0.00  0.00    +0.003 C 
ATOM     27  C   UNL     1      -2.294  -4.332   9.774  0.00  0.00    -0.031 C 
ATOM     28  C   UNL     1      -1.039  -3.462   9.684  0.00  0.00    -0.075 C 
ATOM     29  C   UNL     1      -2.210  -5.226  11.012  0.00  0.00    +0.005 C 
ATOM     30  C   UNL     1      -3.705  -3.305   7.385  0.00  0.00    +0.005 C 
ATOM     31  H   UNL     1      -1.239  -3.175   7.675  0.00  0.00    -0.081 HD
ENDBRANCH  22  23
ENDBRANCH   4  22
TORSDOF 6
