REMARK  Name = ZINC14440717
REMARK  17 active torsions:
REMARK  status: ('A' for Active; 'I' for Inactive)
REMARK    1  A    between atoms: C_1  and  O_2
REMARK    2  A    between atoms: O_2  and  C_3
REMARK    3  A    between atoms: C_6  and  C_11
REMARK    4  A    between atoms: C_8  and  O_9
REMARK    5  A    between atoms: O_9  and  C_10
REMARK    6  A    between atoms: C_15  and  C_22
REMARK    7  A    between atoms: C_17  and  O_20
REMARK    8  A    between atoms: O_20  and  C_21
REMARK    9  A    between atoms: C_22  and  C_23
REMARK   10  A    between atoms: C_23  and  C_24
REMARK   11  A    between atoms: C_24  and  O_25
REMARK   12  A    between atoms: O_25  and  C_26
REMARK   13  A    between atoms: C_28  and  O_41
REMARK   14  A    between atoms: C_30  and  O_40
REMARK   15  A    between atoms: C_32  and  O_39
REMARK   16  A    between atoms: C_34  and  C_37
REMARK   17  A    between atoms: C_37  and  O_38
REMARK                            x       y       z     vdW  Elec       q    Type
REMARK                         _______ _______ _______ _____ _____    ______ ____
ROOT
ATOM      1  C   UNL     1       3.660   2.163  -0.020  0.00  0.00    +0.137 A 
ATOM      2  C   UNL     1       4.894   1.605  -0.029  0.00  0.00    +0.058 A 
ATOM      3  C   UNL     1       5.845   2.719  -0.035  0.00  0.00    +0.025 A 
ATOM      4  C   UNL     1       7.239   2.810  -0.047  0.00  0.00    +0.015 A 
ATOM      5  C   UNL     1       7.840   4.038  -0.044  0.00  0.00    -0.043 A 
ATOM      6  C   UNL     1       7.075   5.195  -0.031  0.00  0.00    +0.053 A 
ATOM      7  C   UNL     1       5.693   5.127  -0.019  0.00  0.00    +0.163 A 
ATOM      8  C   UNL     1       5.062   3.885  -0.021  0.00  0.00    +0.177 A 
ATOM      9  O   UNL     1       3.767   3.506  -0.013  0.00  0.00    -0.451 OA
ENDROOT
BRANCH   1  13
ATOM     10  C   UNL     1       0.002  -0.004   0.002  0.00  0.00    +0.162 A 
ATOM     11  C   UNL     1       1.211  -0.684  -0.014  0.00  0.00    +0.050 A 
ATOM     12  C   UNL     1       2.399   0.016  -0.021  0.00  0.00    +0.015 A 
ATOM     13  C   UNL     1       2.388   1.411  -0.013  0.00  0.00    +0.021 A 
ATOM     14  C   UNL     1       1.171   2.096   0.002  0.00  0.00    +0.061 A 
ATOM     15  C   UNL     1      -0.017   1.389   0.010  0.00  0.00    +0.162 A 
BRANCH  10  17
ATOM     16  C   UNL     1      -1.075  -2.124   0.001  0.00  0.00    +0.277 C 
ATOM     17  O   UNL     1      -1.167  -0.698   0.009  0.00  0.00    -0.491 OA
ENDBRANCH  10  17
BRANCH  15  18
ATOM     18  O   UNL     1      -1.204   2.053   0.019  0.00  0.00    -0.491 OA
ATOM     19  C   UNL     1      -1.148   3.481   0.026  0.00  0.00    +0.277 C 
ENDBRANCH  15  18
ENDBRANCH   1  13
BRANCH   7  20
ATOM     20  O   UNL     1       4.954   6.269  -0.007  0.00  0.00    -0.491 OA
ATOM     21  C   UNL     1       5.670   7.505  -0.005  0.00  0.00    +0.277 C 
ENDBRANCH   7  20
BRANCH   5  22
ATOM     22  C   UNL     1       9.343   4.135  -0.056  0.00  0.00    +0.037 C 
BRANCH  22  23
ATOM     23  C   UNL     1       9.841   4.176  -1.503  0.00  0.00    +0.033 C 
BRANCH  23  24
ATOM     24  C   UNL     1      11.367   4.274  -1.515  0.00  0.00    +0.163 C 
BRANCH  24  25
ATOM     25  O   UNL     1      11.832   4.313  -2.865  0.00  0.00    -0.349 OA
BRANCH  25  26
ATOM     26  C   UNL     1      13.252   4.405  -2.990  0.00  0.00    +0.282 C 
ATOM     27  C   UNL     1      13.643   4.314  -4.467  0.00  0.00    +0.201 C 
ATOM     28  C   UNL     1      13.032   5.499  -5.222  0.00  0.00    +0.179 C 
ATOM     29  C   UNL     1      13.508   6.803  -4.574  0.00  0.00    +0.177 C 
ATOM     30  C   UNL     1      13.123   6.797  -3.092  0.00  0.00    +0.178 C 
ATOM     31  O   UNL     1      13.697   5.654  -2.456  0.00  0.00    -0.341 OA
BRANCH  29  32
ATOM     32  O   UNL     1      14.928   6.907  -4.698  0.00  0.00    -0.386 OA
ATOM     33  H   UNL     1      15.243   6.917  -5.612  0.00  0.00    +0.210 HD
ENDBRANCH  29  32
BRANCH  28  34
ATOM     34  O   UNL     1      13.450   5.464  -6.588  0.00  0.00    -0.386 OA
ATOM     35  H   UNL     1      13.182   4.664  -7.061  0.00  0.00    +0.210 HD
ENDBRANCH  28  34
BRANCH  27  36
ATOM     36  O   UNL     1      13.149   3.091  -5.017  0.00  0.00    -0.384 OA
ATOM     37  H   UNL     1      13.491   2.298  -4.583  0.00  0.00    +0.210 HD
ENDBRANCH  27  36
BRANCH  30  38
ATOM     38  C   UNL     1      13.647   8.070  -2.424  0.00  0.00    +0.190 C 
BRANCH  38  39
ATOM     39  O   UNL     1      13.190   8.120  -1.071  0.00  0.00    -0.392 OA
ATOM     40  H   UNL     1      13.485   8.903  -0.585  0.00  0.00    +0.210 HD
ENDBRANCH  38  39
ENDBRANCH  30  38
ENDBRANCH  25  26
ENDBRANCH  24  25
ENDBRANCH  23  24
ENDBRANCH  22  23
ENDBRANCH   5  22
TORSDOF 14
