REMARK  Name = ZINC24056513
REMARK  3 active torsions:
REMARK  status: ('A' for Active; 'I' for Inactive)
REMARK    1  A    between atoms: C_1  and  C_2
REMARK    2  A    between atoms: C_2  and  C_4
REMARK    3  A    between atoms: C_2  and  N_9
REMARK                            x       y       z     vdW  Elec       q    Type
REMARK                         _______ _______ _______ _____ _____    ______ ____
ROOT
ATOM      1  N   UNL     1      -1.372  -0.511   0.012  0.00  0.00    -0.322 N 
ATOM      2  C   UNL     1      -2.070  -0.646  -1.177  0.00  0.00    +0.126 A 
ATOM      3  C   UNL     1      -1.471  -0.308  -2.392  0.00  0.00    +0.083 A 
ATOM      4  C   UNL     1      -2.205  -0.460  -3.554  0.00  0.00    +0.136 A 
ATOM      5  N   UNL     1      -3.447  -0.919  -3.481  0.00  0.00    -0.203 NA
ATOM      6  C   UNL     1      -3.989  -1.232  -2.313  0.00  0.00    +0.216 A 
ATOM      7  N   UNL     1      -3.317  -1.106  -1.179  0.00  0.00    -0.200 NA
ATOM      8  N   UNL     1      -5.288  -1.707  -2.279  0.00  0.00    -0.327 N 
ATOM      9 CL   UNL     1      -1.508  -0.053  -5.091  0.00  0.00    -0.062 Cl
ATOM     10  H   UNL     1      -1.794  -0.752   0.852  0.00  0.00    +0.148 HD
ATOM     11  H   UNL     1      -5.790  -1.808  -3.103  0.00  0.00    +0.145 HD
ATOM     12  H   UNL     1      -5.697  -1.940  -1.431  0.00  0.00    +0.145 HD
ENDROOT
BRANCH   1  14
ATOM     13  C   UNL     1      -0.019   1.526   0.010  0.00  0.00    +0.033 C 
ATOM     14  C   UNL     1       0.002  -0.004   0.002  0.00  0.00    +0.106 C 
BRANCH  14  15
ATOM     15  C   UNL     1       0.731  -0.503   1.223  0.00  0.00    +0.010 A 
ATOM     16  C   UNL     1       2.010  -0.938   1.335  0.00  0.00    +0.013 A 
ATOM     17  C   UNL     1       2.470  -1.354   2.570  0.00  0.00    +0.008 A 
ATOM     18  C   UNL     1       1.630  -1.314   3.633  0.00  0.00    +0.045 A 
ATOM     19  S   UNL     1       0.137  -0.668   2.898  0.00  0.00    -0.100 S 
ENDBRANCH  14  15
ENDBRANCH   1  14
TORSDOF 2
