REMARK  Name = ZINC45694126
REMARK  7 active torsions:
REMARK  status: ('A' for Active; 'I' for Inactive)
REMARK    1  A    between atoms: C_1  and  C_2
REMARK    2  A    between atoms: N_5  and  C_11
REMARK    3  A    between atoms: C_7  and  C_9
REMARK    4  A    between atoms: C_7  and  C_10
REMARK    5  A    between atoms: C_11  and  C_12
REMARK    6  A    between atoms: C_12  and  C_13
REMARK    7  A    between atoms: N_14  and  O_15
REMARK                            x       y       z     vdW  Elec       q    Type
REMARK                         _______ _______ _______ _____ _____    ______ ____
ROOT
ATOM      1  C   UNL     1      -0.019   1.526   0.010  0.00  0.00    +0.039 C 
ATOM      2  C   UNL     1       0.002  -0.004   0.002  0.00  0.00    +0.130 C 
ATOM      3  C   UNL     1       0.720  -0.499  -1.256  0.00  0.00    +0.115 C 
ATOM      4  N   UNL     1       0.805  -1.966  -1.221  0.00  0.00    -0.297 NA
ATOM      5  C   UNL     1       1.523  -2.417  -0.020  0.00  0.00    +0.119 C 
ATOM      6  C   UNL     1       0.797  -1.904   1.226  0.00  0.00    +0.077 C 
ATOM      7  O   UNL     1       0.695  -0.479   1.159  0.00  0.00    -0.368 OA
ATOM      8  C   UNL     1      -0.605  -2.513   1.287  0.00  0.00    +0.042 C 
ATOM      9  C   UNL     1       1.583  -2.302   2.476  0.00  0.00    +0.042 C 
ENDROOT
BRANCH   4  10
ATOM     10  C   UNL     1       1.439  -2.486  -2.440  0.00  0.00    +0.092 C 
BRANCH  10  11
ATOM     11  C   UNL     1       0.538  -2.202  -3.644  0.00  0.00    +0.090 C 
BRANCH  11  12
ATOM     12  C   UNL     1       1.188  -2.736  -4.894  0.00  0.00    +0.133 C 
ATOM     13  N   UNL     1       2.336  -3.325  -4.825  0.00  0.00    -0.077 NA
ATOM     14  N   UNL     1       0.558  -2.596  -6.111  0.00  0.00    -0.344 N 
ATOM     15  H   UNL     1      -0.303  -2.154  -6.163  0.00  0.00    +0.144 HD
ATOM     16  H   UNL     1       0.977  -2.939  -6.916  0.00  0.00    +0.144 HD
BRANCH  13  17
ATOM     17  O   UNL     1       2.947  -3.826  -6.000  0.00  0.00    -0.408 OA
ATOM     18  H   UNL     1       3.803  -4.250  -5.848  0.00  0.00    +0.328 HD
ENDBRANCH  13  17
ENDBRANCH  11  12
ENDBRANCH  10  11
ENDBRANCH   4  10
TORSDOF 4
