REMARK  Name = ZINC54416023
REMARK  6 active torsions:
REMARK  status: ('A' for Active; 'I' for Inactive)
REMARK    1  A    between atoms: C_3  and  N_21
REMARK    2  A    between atoms: C_4  and  N_19
REMARK    3  A    between atoms: C_6  and  C_7
REMARK    4  A    between atoms: N_9  and  C_10
REMARK    5  A    between atoms: C_16  and  O_18
REMARK    6  A    between atoms: N_19  and  N_20
REMARK                            x       y       z     vdW  Elec       q    Type
REMARK                         _______ _______ _______ _____ _____    ______ ____
ROOT
ATOM      1  C   UNL     1       0.034   1.437  -0.237  0.00  0.00    +0.015 A 
ATOM      2  C   UNL     1       1.259   2.071  -0.265  0.00  0.00    +0.035 A 
ATOM      3  C   UNL     1       2.418   1.355  -0.035  0.00  0.00    +0.148 A 
ATOM      4  C   UNL     1       2.358  -0.009   0.226  0.00  0.00    +0.072 A 
ATOM      5  C   UNL     1       1.132  -0.655   0.256  0.00  0.00    +0.039 A 
ATOM      6  C   UNL     1      -0.038   0.068   0.024  0.00  0.00    +0.039 A 
ENDROOT
BRANCH   6   7
ATOM      7  C   UNL     1      -1.350  -0.614   0.054  0.00  0.00    +0.244 C 
ATOM      8  O   UNL     1      -1.410  -1.806   0.282  0.00  0.00    -0.270 OA
ATOM      9  N   UNL     1      -2.479   0.087  -0.171  0.00  0.00    -0.306 N 
ATOM     10  H   UNL     1      -2.431   1.039  -0.353  0.00  0.00    +0.149 HD
BRANCH   9  11
ATOM     11  C   UNL     1      -3.779  -0.588  -0.141  0.00  0.00    +0.102 C 
ATOM     12  C   UNL     1      -4.284  -0.658   1.302  0.00  0.00    +0.025 C 
ATOM     13  C   UNL     1      -5.641  -1.363   1.333  0.00  0.00    +0.002 C 
ATOM     14  C   UNL     1      -6.642  -0.582   0.479  0.00  0.00    +0.003 C 
ATOM     15  C   UNL     1      -6.137  -0.512  -0.963  0.00  0.00    +0.033 C 
ATOM     16  C   UNL     1      -4.779   0.194  -0.994  0.00  0.00    +0.135 C 
BRANCH  16  17
ATOM     17  O   UNL     1      -4.918   1.517  -0.473  0.00  0.00    -0.390 OA
ATOM     18  H   UNL     1      -5.539   2.071  -0.967  0.00  0.00    +0.210 HD
ENDBRANCH  16  17
ENDBRANCH   9  11
ENDBRANCH   6   7
BRANCH   3  19
ATOM     19  N   UNL     1       3.729   2.043  -0.067  0.00  0.00    +0.058 N 
ATOM     20  O   UNL     1       3.833   3.166   0.367  0.00  0.00    -0.126 OA
ATOM     21  O   UNL     1       4.695   1.481  -0.527  0.00  0.00    -0.126 OA
ENDBRANCH   3  19
BRANCH   4  22
ATOM     22  N   UNL     1       3.533  -0.729   0.458  0.00  0.00    -0.281 N 
ATOM     23  H   UNL     1       4.383  -0.264   0.516  0.00  0.00    +0.166 HD
BRANCH  22  24
ATOM     24  N   UNL     1       3.485  -2.086   0.603  0.00  0.00    -0.256 NA
ATOM     25  H   UNL     1       3.050  -2.520  -0.198  0.00  0.00    +0.140 HD
ATOM     26  H   UNL     1       4.406  -2.465   0.763  0.00  0.00    +0.140 HD
ENDBRANCH  22  24
ENDBRANCH   4  22
TORSDOF 6
