REMARK  Name = ZINC36754196
REMARK  6 active torsions:
REMARK  status: ('A' for Active; 'I' for Inactive)
REMARK    1  A    between atoms: C_1  and  C_2
REMARK    2  A    between atoms: C_2  and  C_3
REMARK    3  A    between atoms: C_3  and  C_26
REMARK    4  A    between atoms: N_6  and  N_10
REMARK    5  A    between atoms: C_11  and  C_13
REMARK    6  A    between atoms: C_13  and  N_14
REMARK                            x       y       z     vdW  Elec       q    Type
REMARK                         _______ _______ _______ _____ _____    ______ ____
ROOT
ATOM      1  N   UNL     1      -2.365  -3.480   1.957  0.00  0.00    -0.222 N 
ATOM      2  C   UNL     1      -1.666  -3.875   3.039  0.00  0.00    +0.247 C 
ATOM      3  O   UNL     1      -0.826  -3.144   3.518  0.00  0.00    -0.273 OA
ATOM      4  H   UNL     1      -3.037  -4.065   1.574  0.00  0.00    +0.174 HD
ENDROOT
BRANCH   1   8
ATOM      5  C   UNL     1      -1.433  -0.534   0.013  0.00  0.00    +0.111 C 
ATOM      6  C   UNL     1      -1.447  -2.033   0.236  0.00  0.00    +0.263 C 
ATOM      7  O   UNL     1      -0.952  -2.883  -0.472  0.00  0.00    -0.271 OA
ATOM      8  N   UNL     1      -2.123  -2.224   1.386  0.00  0.00    -0.137 N 
ATOM      9  C   UNL     1      -2.534  -1.066   1.915  0.00  0.00    +0.326 C 
ATOM     10  O   UNL     1      -3.163  -0.982   2.952  0.00  0.00    -0.251 OA
ATOM     11  N   UNL     1      -2.172  -0.004   1.172  0.00  0.00    -0.284 N 
ATOM     12  C   UNL     1      -2.148  -0.174  -1.291  0.00  0.00    +0.041 C 
ATOM     13  H   UNL     1      -2.361   0.928   1.363  0.00  0.00    +0.151 HD
BRANCH   5  15
ATOM     14  C   UNL     1      -0.019   1.526   0.010  0.00  0.00    +0.006 C 
ATOM     15  C   UNL     1       0.002  -0.004   0.002  0.00  0.00    +0.032 C 
ENDBRANCH   5  15
ENDBRANCH   1   8
BRANCH   2  16
ATOM     16  C   UNL     1      -1.927  -5.227   3.653  0.00  0.00    +0.202 C 
BRANCH  16  17
ATOM     17  N   UNL     1      -1.045  -5.417   4.807  0.00  0.00    -0.319 N 
ATOM     18  C   UNL     1       0.284  -6.021   4.640  0.00  0.00    +0.106 C 
ATOM     19  C   UNL     1       0.476  -7.048   5.764  0.00  0.00    +0.024 C 
ATOM     20  C   UNL     1       0.457  -6.320   7.107  0.00  0.00    +0.039 C 
ATOM     21  C   UNL     1      -0.761  -5.441   7.215  0.00  0.00    -0.021 A 
ATOM     22  C   UNL     1      -1.453  -5.021   6.089  0.00  0.00    +0.069 A 
ATOM     23  C   UNL     1      -2.570  -4.201   6.221  0.00  0.00    +0.147 A 
ATOM     24  C   UNL     1      -2.990  -3.801   7.476  0.00  0.00    +0.078 A 
ATOM     25  C   UNL     1      -2.298  -4.219   8.600  0.00  0.00    +0.126 A 
ATOM     26  C   UNL     1      -1.191  -5.043   8.470  0.00  0.00    +0.044 A 
ATOM     27  F   UNL     1      -2.708  -3.830   9.828  0.00  0.00    -0.205 F 
ATOM     28  F   UNL     1      -3.243  -3.795   5.123  0.00  0.00    -0.203 F 
ENDBRANCH  16  17
ENDBRANCH   2  16
TORSDOF 4
