REMARK  Name = ZINC04984854
REMARK  1 active torsions:
REMARK  status: ('A' for Active; 'I' for Inactive)
REMARK    1  A    between atoms: N_15  and  N_18
REMARK                            x       y       z     vdW  Elec       q    Type
REMARK                         _______ _______ _______ _____ _____    ______ ____
ROOT
ATOM      1  C   UNL     1       4.750   1.562  -0.267  0.00  0.00    -0.003 C 
ATOM      2  C   UNL     1       4.764   0.241  -0.496  0.00  0.00    -0.013 C 
ATOM      3  C   UNL     1       3.464  -0.493  -0.661  0.00  0.00    +0.111 C 
ATOM      4  C   UNL     1       2.440   0.096   0.308  0.00  0.00    +0.070 C 
ATOM      5  C   UNL     1       2.371   1.585   0.053  0.00  0.00    -0.039 C 
ATOM      6  C   UNL     1       3.517   2.263  -0.180  0.00  0.00    +0.004 C 
ATOM      7  C   UNL     1       1.101   2.173   0.003  0.00  0.00    +0.004 C 
ATOM      8  C   UNL     1      -0.017   1.397   0.010  0.00  0.00    +0.001 C 
ATOM      9  C   UNL     1       0.002  -0.004   0.002  0.00  0.00    +0.009 C 
ATOM     10  C   UNL     1       1.164  -0.696   0.107  0.00  0.00    +0.025 C 
ATOM     11  C   UNL     1       1.259  -2.097   0.025  0.00  0.00    +0.263 C 
ATOM     12  O   UNL     1       0.252  -2.780   0.080  0.00  0.00    -0.269 OA
ATOM     13  N   UNL     1       2.466  -2.684  -0.114  0.00  0.00    -0.171 N 
ATOM     14  C   UNL     1       3.572  -1.969  -0.411  0.00  0.00    +0.244 C 
ATOM     15  O   UNL     1       4.651  -2.519  -0.476  0.00  0.00    -0.273 OA
ENDROOT
BRANCH  13  16
ATOM     16  N   UNL     1       2.572  -4.036   0.050  0.00  0.00    -0.244 NA
ATOM     17  H   UNL     1       1.676  -4.445   0.268  0.00  0.00    +0.141 HD
ATOM     18  H   UNL     1       2.978  -4.468  -0.766  0.00  0.00    +0.141 HD
ENDBRANCH  13  16
TORSDOF 1
