REMARK  Name = ZINC16649740
REMARK  4 active torsions:
REMARK  status: ('A' for Active; 'I' for Inactive)
REMARK    1  A    between atoms: C_4  and  C_7
REMARK    2  A    between atoms: C_10  and  C_12
REMARK    3  A    between atoms: C_13  and  N_24
REMARK    4  A    between atoms: N_14  and  C_17
REMARK                            x       y       z     vdW  Elec       q    Type
REMARK                         _______ _______ _______ _____ _____    ______ ____
ROOT
ATOM      1  C   UNL     1       4.490   0.513  -0.388  0.00  0.00    +0.159 A 
ATOM      2  C   UNL     1       3.547   1.492  -0.651  0.00  0.00    +0.150 A 
ATOM      3  N   UNL     1       2.405   1.103  -0.015  0.00  0.00    -0.198 N 
ATOM      4  N   UNL     1       2.695  -0.109   0.626  0.00  0.00    -0.058 NA
ATOM      5  N   UNL     1       3.918  -0.426   0.382  0.00  0.00    -0.125 NA
ENDROOT
BRANCH   3   6
ATOM      6  C   UNL     1       1.180   1.787   0.000  0.00  0.00    +0.069 A 
ATOM      7  C   UNL     1      -0.013   1.076   0.008  0.00  0.00    +0.031 A 
ATOM      8  C   UNL     1      -1.218   1.750   0.017  0.00  0.00    +0.040 A 
ATOM      9  C   UNL     1      -1.237   3.135   0.031  0.00  0.00    +0.124 A 
ATOM     10  C   UNL     1      -0.048   3.846   0.023  0.00  0.00    +0.040 A 
ATOM     11  C   UNL     1       1.159   3.175   0.008  0.00  0.00    +0.031 A 
ATOM     12  F   UNL     1      -2.417   3.793   0.046  0.00  0.00    -0.205 F 
ENDBRANCH   3   6
BRANCH   1  16
ATOM     13  C   UNL     1       8.046  -0.239  -1.179  0.00  0.00    +0.079 A 
ATOM     14  C   UNL     1       8.316   0.863  -1.944  0.00  0.00    +0.075 A 
ATOM     15  S   UNL     1       6.733   1.694  -1.900  0.00  0.00    -0.073 S 
ATOM     16  C   UNL     1       5.885   0.504  -0.871  0.00  0.00    +0.132 A 
ATOM     17  N   UNL     1       6.838  -0.392  -0.663  0.00  0.00    -0.237 NA
BRANCH  13  21
ATOM     18  C   UNL     1      11.063  -3.150  -0.471  0.00  0.00    +0.000 A 
ATOM     19  C   UNL     1       9.803  -3.318   0.074  0.00  0.00    +0.001 A 
ATOM     20  C   UNL     1       8.820  -2.376  -0.153  0.00  0.00    +0.010 A 
ATOM     21  C   UNL     1       9.099  -1.255  -0.932  0.00  0.00    +0.001 A 
ATOM     22  C   UNL     1      10.369  -1.093  -1.482  0.00  0.00    +0.010 A 
ATOM     23  C   UNL     1      11.346  -2.038  -1.245  0.00  0.00    +0.001 A 
ENDBRANCH  13  21
ENDBRANCH   1  16
BRANCH   2  24
ATOM     24  N   UNL     1       3.727   2.639  -1.409  0.00  0.00    -0.341 N 
ATOM     25  H   UNL     1       2.993   3.261  -1.528  0.00  0.00    +0.144 HD
ATOM     26  H   UNL     1       4.588   2.818  -1.819  0.00  0.00    +0.144 HD
ENDBRANCH   2  24
TORSDOF 4
