REMARK  Name = ZINC05352382
REMARK  8 active torsions:
REMARK  status: ('A' for Active; 'I' for Inactive)
REMARK    1  A    between atoms: C_1  and  C_2
REMARK    2  A    between atoms: C_6  and  O_24
REMARK    3  A    between atoms: C_7  and  O_22
REMARK    4  A    between atoms: C_12  and  C_13
REMARK    5  A    between atoms: C_13  and  C_14
REMARK    6  A    between atoms: N_16  and  C_17
REMARK    7  A    between atoms: O_22  and  C_23
REMARK    8  A    between atoms: O_24  and  C_25
REMARK                            x       y       z     vdW  Elec       q    Type
REMARK                         _______ _______ _______ _____ _____    ______ ____
ROOT
ATOM      1  C   UNL     1      -0.013   1.086   0.008  0.00  0.00    +0.045 C 
ATOM      2  C   UNL     1      -0.718   1.572   1.248  0.00  0.00    -0.029 A 
ATOM      3  C   UNL     1       0.024   1.826   2.485  0.00  0.00    +0.025 A 
ATOM      4  C   UNL     1       1.408   1.624   2.549  0.00  0.00    +0.015 A 
ATOM      5  C   UNL     1       2.077   1.869   3.714  0.00  0.00    +0.050 A 
ATOM      6  C   UNL     1       1.393   2.317   4.841  0.00  0.00    +0.165 A 
ATOM      7  C   UNL     1       0.021   2.523   4.797  0.00  0.00    +0.205 A 
ATOM      8  C   UNL     1      -0.675   2.279   3.618  0.00  0.00    +0.184 A 
ATOM      9  O   UNL     1      -2.010   2.473   3.551  0.00  0.00    -0.418 OA
ATOM     10  C   UNL     1      -2.696   2.242   2.421  0.00  0.00    +0.341 A 
ATOM     11  O   UNL     1      -3.900   2.431   2.408  0.00  0.00    -0.245 OA
ATOM     12  C   UNL     1      -2.058   1.792   1.247  0.00  0.00    +0.049 A 
ENDROOT
BRANCH   7  13
ATOM     13  O   UNL     1      -0.640   2.961   5.903  0.00  0.00    -0.488 OA
ATOM     14  C   UNL     1      -0.763   4.375   6.067  0.00  0.00    +0.277 C 
ENDBRANCH   7  13
BRANCH   6  15
ATOM     15  O   UNL     1       2.074   2.555   5.992  0.00  0.00    -0.491 OA
ATOM     16  C   UNL     1       3.484   2.324   5.971  0.00  0.00    +0.277 C 
ENDBRANCH   6  15
BRANCH  12  17
ATOM     17  C   UNL     1      -2.863   1.550  -0.004  0.00  0.00    +0.138 C 
BRANCH  17  18
ATOM     18  C   UNL     1      -3.352   0.124  -0.019  0.00  0.00    +0.218 C 
ATOM     19  O   UNL     1      -3.074  -0.622   0.896  0.00  0.00    -0.275 OA
ATOM     20  N   UNL     1      -4.097  -0.322  -1.050  0.00  0.00    -0.312 N 
ATOM     21  H   UNL     1      -4.319   0.275  -1.782  0.00  0.00    +0.149 HD
BRANCH  20  22
ATOM     22  C   UNL     1      -4.572  -1.708  -1.064  0.00  0.00    +0.073 C 
ATOM     23  C   UNL     1      -3.515  -2.622  -1.717  0.00  0.00    +0.022 C 
ATOM     24  C   UNL     1      -4.348  -3.655  -2.516  0.00  0.00    +0.002 C 
ATOM     25  C   UNL     1      -5.513  -2.799  -3.071  0.00  0.00    +0.002 C 
ATOM     26  C   UNL     1      -5.843  -1.820  -1.925  0.00  0.00    +0.022 C 
ENDBRANCH  20  22
ENDBRANCH  17  18
ENDBRANCH  12  17
TORSDOF 5
