REMARK  Name = ZINC36213877
REMARK  8 active torsions:
REMARK  status: ('A' for Active; 'I' for Inactive)
REMARK    1  A    between atoms: C_1  and  C_2
REMARK    2  A    between atoms: C_5  and  N_8
REMARK    3  A    between atoms: C_14  and  C_17
REMARK    4  A    between atoms: C_17  and  C_19
REMARK    5  A    between atoms: C_17  and  N_25
REMARK    6  A    between atoms: N_21  and  C_22
REMARK    7  A    between atoms: C_22  and  C_23
REMARK    8  A    between atoms: C_26  and  C_28
REMARK                            x       y       z     vdW  Elec       q    Type
REMARK                         _______ _______ _______ _____ _____    ______ ____
ROOT
ATOM      1  N   UNL     1       0.010  -4.174  -0.018  0.00  0.00    -0.269 N 
ATOM      2  C   UNL     1       0.174  -4.849   1.138  0.00  0.00    +0.306 C 
ATOM      3  O   UNL     1       0.215  -4.246   2.193  0.00  0.00    -0.252 OA
ATOM      4  N   UNL     1       0.294  -6.191   1.123  0.00  0.00    -0.285 N 
ATOM      5  C   UNL     1       0.414  -6.918  -0.148  0.00  0.00    +0.109 C 
ATOM      6  C   UNL     1      -0.660  -8.009  -0.196  0.00  0.00    +0.025 C 
ATOM      7  C   UNL     1      -0.539  -8.893   1.048  0.00  0.00    +0.021 C 
ATOM      8  C   UNL     1      -0.767  -8.046   2.302  0.00  0.00    +0.025 C 
ATOM      9  C   UNL     1       0.312  -6.955   2.378  0.00  0.00    +0.109 C 
ATOM     10  H   UNL     1      -0.158  -4.657  -0.842  0.00  0.00    +0.156 HD
ENDROOT
BRANCH   1  15
ATOM     11  C   UNL     1       0.297   1.492  -0.061  0.00  0.00    +0.044 C 
ATOM     12  C   UNL     1       0.221  -0.013  -0.049  0.00  0.00    -0.050 A 
ATOM     13  C   UNL     1       0.479  -0.726  -1.206  0.00  0.00    +0.005 A 
ATOM     14  C   UNL     1       0.410  -2.106  -1.199  0.00  0.00    +0.023 A 
ATOM     15  C   UNL     1       0.081  -2.777  -0.028  0.00  0.00    +0.035 A 
ATOM     16  C   UNL     1      -0.177  -2.058   1.132  0.00  0.00    +0.023 A 
ATOM     17  C   UNL     1      -0.101  -0.679   1.119  0.00  0.00    +0.005 A 
ENDBRANCH   1  15
BRANCH   7  18
ATOM     18  C   UNL     1      -1.589 -10.005   0.986  0.00  0.00    +0.162 C 
BRANCH  18  19
ATOM     19  C   UNL     1      -1.471 -10.875   2.211  0.00  0.00    +0.234 C 
ATOM     20  O   UNL     1      -0.888 -11.937   2.146  0.00  0.00    -0.274 OA
ATOM     21  N   UNL     1      -2.013 -10.474   3.378  0.00  0.00    -0.310 N 
ATOM     22  H   UNL     1      -2.479  -9.625   3.429  0.00  0.00    +0.149 HD
BRANCH  21  23
ATOM     23  C   UNL     1      -1.898 -11.320   4.568  0.00  0.00    +0.131 C 
BRANCH  23  24
ATOM     24  C   UNL     1      -2.583 -10.648   5.730  0.00  0.00    -0.016 C 
ATOM     25  C   UNL     1      -3.518 -11.281   6.394  0.00  0.00    +0.005 C 
ENDBRANCH  23  24
ENDBRANCH  21  23
ENDBRANCH  18  19
BRANCH  18  26
ATOM     26  N   UNL     1      -1.370 -10.817  -0.213  0.00  0.00    -0.299 N 
ATOM     27  C   UNL     1      -0.200 -11.464  -0.385  0.00  0.00    +0.251 C 
ATOM     28  O   UNL     1       0.674 -11.373   0.456  0.00  0.00    -0.270 OA
ATOM     29  H   UNL     1      -2.067 -10.889  -0.884  0.00  0.00    +0.150 HD
BRANCH  27  30
ATOM     30  C   UNL     1       0.018 -12.276  -1.585  0.00  0.00    +0.074 A 
ATOM     31  C   UNL     1       1.133 -13.017  -1.948  0.00  0.00    +0.021 A 
ATOM     32  C   UNL     1       1.043 -13.683  -3.147  0.00  0.00    +0.008 A 
ATOM     33  C   UNL     1      -0.095 -13.576  -3.876  0.00  0.00    +0.046 A 
ATOM     34  S   UNL     1      -1.082 -12.576  -2.955  0.00  0.00    -0.092 S 
ENDBRANCH  27  30
ENDBRANCH  18  26
ENDBRANCH   7  18
TORSDOF 7
