REMARK  Name = ZINC35757388
REMARK  8 active torsions:
REMARK  status: ('A' for Active; 'I' for Inactive)
REMARK    1  A    between atoms: C_3  and  C_8
REMARK    2  A    between atoms: C_8  and  N_9
REMARK    3  A    between atoms: C_10  and  C_31
REMARK    4  A    between atoms: C_12  and  C_17
REMARK    5  A    between atoms: C_20  and  N_23
REMARK    6  A    between atoms: C_24  and  C_26
REMARK    7  A    between atoms: N_33  and  C_34
REMARK    8  A    between atoms: C_34  and  C_35
REMARK                            x       y       z     vdW  Elec       q    Type
REMARK                         _______ _______ _______ _____ _____    ______ ____
ROOT
ATOM      1  N   UNL     1       4.299   2.319   1.356  0.00  0.00    -0.248 N 
ATOM      2  C   UNL     1       4.011   3.427   2.290  0.00  0.00    +0.210 C 
ATOM      3  C   UNL     1       4.323   2.786   3.663  0.00  0.00    +0.238 C 
ATOM      4  O   UNL     1       5.243   1.737   3.303  0.00  0.00    -0.440 OA
ATOM      5  C   UNL     1       4.989   1.382   2.032  0.00  0.00    +0.405 C 
ATOM      6  O   UNL     1       5.347   0.328   1.544  0.00  0.00    -0.226 OA
ENDROOT
BRANCH   3   7
ATOM      7  C   UNL     1       4.976   3.783   4.586  0.00  0.00    -0.005 A 
ATOM      8  C   UNL     1       6.326   4.058   4.460  0.00  0.00    +0.009 A 
ATOM      9  C   UNL     1       6.927   4.971   5.304  0.00  0.00    +0.024 A 
ATOM     10  C   UNL     1       6.175   5.613   6.279  0.00  0.00    +0.034 A 
ATOM     11  C   UNL     1       4.820   5.334   6.403  0.00  0.00    +0.024 A 
ATOM     12  C   UNL     1       4.224   4.424   5.553  0.00  0.00    +0.009 A 
BRANCH  10  13
ATOM     13  N   UNL     1       6.781   6.538   7.136  0.00  0.00    -0.281 N 
ATOM     14  C   UNL     1       6.352   6.661   8.407  0.00  0.00    +0.255 C 
ATOM     15  O   UNL     1       5.501   5.904   8.838  0.00  0.00    -0.269 OA
ATOM     16  H   UNL     1       7.510   7.091   6.814  0.00  0.00    +0.155 HD
BRANCH  14  17
ATOM     17  C   UNL     1       6.909   7.705   9.271  0.00  0.00    +0.074 A 
ATOM     18  C   UNL     1       6.613   7.995  10.595  0.00  0.00    +0.021 A 
ATOM     19  C   UNL     1       7.307   9.046  11.145  0.00  0.00    +0.008 A 
ATOM     20  C   UNL     1       8.208   9.712  10.382  0.00  0.00    +0.046 A 
ATOM     21  S   UNL     1       8.149   8.930   8.897  0.00  0.00    -0.092 S 
ENDBRANCH  14  17
ENDBRANCH  10  13
ENDBRANCH   3   7
BRANCH   2  22
ATOM     22  C   UNL     1       2.565   3.841   2.202  0.00  0.00    +0.238 C 
ATOM     23  O   UNL     1       1.724   3.038   1.857  0.00  0.00    -0.274 OA
ATOM     24  N   UNL     1       2.206   5.103   2.507  0.00  0.00    -0.307 N 
ATOM     25  H   UNL     1       2.878   5.745   2.784  0.00  0.00    +0.149 HD
BRANCH  24  26
ATOM     26  C   UNL     1       0.800   5.506   2.422  0.00  0.00    +0.178 C 
BRANCH  26  27
ATOM     27  C   UNL     1       0.668   6.955   2.812  0.00  0.00    +0.122 A 
ATOM     28  C   UNL     1       0.741   8.005   1.974  0.00  0.00    +0.046 A 
ATOM     29  C   UNL     1       0.564   9.168   2.759  0.00  0.00    +0.041 A 
ATOM     30  C   UNL     1       0.394   8.759   4.029  0.00  0.00    +0.195 A 
ATOM     31  O   UNL     1       0.452   7.418   4.054  0.00  0.00    -0.466 OA
ENDBRANCH  26  27
ENDBRANCH  24  26
ENDBRANCH   2  22
BRANCH   1  32
ATOM     32  C   UNL     1       3.899   2.250  -0.051  0.00  0.00    +0.147 C 
BRANCH  32  35
ATOM     33  C   UNL     1       7.056   2.380  -2.119  0.00  0.00    +0.003 A 
ATOM     34  C   UNL     1       6.027   1.910  -1.323  0.00  0.00    +0.005 A 
ATOM     35  C   UNL     1       5.019   2.765  -0.918  0.00  0.00    -0.027 A 
ATOM     36  C   UNL     1       5.039   4.091  -1.306  0.00  0.00    +0.043 A 
ATOM     37  C   UNL     1       6.069   4.563  -2.102  0.00  0.00    +0.124 A 
ATOM     38  C   UNL     1       7.078   3.706  -2.508  0.00  0.00    +0.038 A 
ATOM     39  F   UNL     1       6.089   5.859  -2.483  0.00  0.00    -0.205 F 
ENDBRANCH  32  35
ENDBRANCH   1  32
TORSDOF 8
