REMARK  Name = ZINC61589653
REMARK  6 active torsions:
REMARK  status: ('A' for Active; 'I' for Inactive)
REMARK    1  A    between atoms: C_1  and  C_2
REMARK    2  A    between atoms: C_2  and  C_3
REMARK    3  A    between atoms: C_3  and  C_4
REMARK    4  A    between atoms: C_9  and  S_12
REMARK    5  A    between atoms: S_12  and  C_13
REMARK    6  A    between atoms: C_13  and  C_19
REMARK                            x       y       z     vdW  Elec       q    Type
REMARK                         _______ _______ _______ _____ _____    ______ ____
ROOT
ATOM      1  C   UNL     1      -0.571  -2.848   1.164  0.00  0.00    +0.023 A 
ATOM      2  C   UNL     1      -0.714  -3.809   2.102  0.00  0.00    +0.093 A 
ATOM      3  C   UNL     1      -0.919  -5.150   1.685  0.00  0.00    +0.274 A 
ATOM      4  O   UNL     1      -1.051  -6.038   2.513  0.00  0.00    -0.266 OA
ATOM      5  N   UNL     1      -0.966  -5.435   0.377  0.00  0.00    -0.185 NA
ATOM      6  C   UNL     1      -0.825  -4.484  -0.525  0.00  0.00    +0.171 A 
ATOM      7  N   UNL     1      -0.633  -3.188  -0.156  0.00  0.00    -0.338 N 
ATOM      8  H   UNL     1      -0.535  -2.503  -0.836  0.00  0.00    +0.168 HD
ENDROOT
BRANCH   1   9
ATOM      9  C   UNL     1      -0.352  -1.414   1.572  0.00  0.00    +0.053 C 
BRANCH   9  11
ATOM     10  C   UNL     1       1.370   0.348   1.991  0.00  0.00    +0.004 C 
ATOM     11  C   UNL     1       1.147  -1.108   1.577  0.00  0.00    +0.003 C 
ENDBRANCH   9  11
ENDBRANCH   1   9
BRANCH   6  12
ATOM     12  S   UNL     1      -0.893  -4.896  -2.237  0.00  0.00    -0.069 S 
BRANCH  12  13
ATOM     13  C   UNL     1      -1.164  -6.689  -2.246  0.00  0.00    +0.133 C 
ATOM     14  C   UNL     1      -1.255  -7.181  -3.688  0.00  0.00    +0.031 C 
ATOM     15  C   UNL     1      -1.760  -8.620  -3.739  0.00  0.00    +0.013 C 
ATOM     16  C   UNL     1      -0.677  -9.571  -3.222  0.00  0.00    +0.069 C 
ATOM     17  S   UNL     1      -0.331  -9.171  -1.483  0.00  0.00    -0.159 S 
ATOM     18  C   UNL     1      -0.002  -7.383  -1.530  0.00  0.00    +0.098 C 
BRANCH  13  19
ATOM     19  C   UNL     1      -2.453  -7.004  -1.530  0.00  0.00    +0.373 C 
ATOM     20  O   UNL     1      -3.501  -6.519  -1.921  0.00  0.00    -0.245 OA
ATOM     21  O   UNL     1      -2.446  -7.743  -0.561  0.00  0.00    -0.245 OA
ENDBRANCH  13  19
ENDBRANCH  12  13
ENDBRANCH   6  12
TORSDOF 5
