REMARK  Name = ZINC09332547
REMARK  3 active torsions:
REMARK  status: ('A' for Active; 'I' for Inactive)
REMARK    1  A    between atoms: C_1  and  C_2
REMARK    2  A    between atoms: C_6  and  C_32
REMARK    3  A    between atoms: C_7  and  N_8
REMARK                            x       y       z     vdW  Elec       q    Type
REMARK                         _______ _______ _______ _____ _____    ______ ____
ROOT
ATOM      1  N   UNL     1       0.657   5.528   2.696  0.00  0.00    -0.210 N 
ATOM      2  C   UNL     1       1.174   6.253   1.648  0.00  0.00    +0.228 C 
ATOM      3  O   UNL     1       1.677   7.355   1.681  0.00  0.00    -0.275 OA
ATOM      4  C   UNL     1       0.979   5.401   0.500  0.00  0.00    +0.074 C 
ATOM      5  C   UNL     1       1.306   5.303  -0.931  0.00  0.00    -0.054 C 
ATOM      6  C   UNL     1       0.265   6.038  -1.800  0.00  0.00    -0.016 C 
ATOM      7  C   UNL     1      -0.611   4.936  -2.425  0.00  0.00    -0.020 C 
ATOM      8  C   UNL     1       0.297   3.698  -2.413  0.00  0.00    -0.076 C 
ATOM      9  C   UNL     1       0.623   3.168  -0.030  0.00  0.00    +0.053 C 
ATOM     10  C   UNL     1       1.224   3.973   1.107  0.00  0.00    +0.089 C 
ATOM     11  C   UNL     1       0.485   4.207   2.387  0.00  0.00    +0.229 C 
ATOM     12  O   UNL     1      -0.141   3.387   3.025  0.00  0.00    -0.275 OA
ATOM     13  C   UNL     1      -0.868   3.090   0.016  0.00  0.00    -0.027 A 
ATOM     14  C   UNL     1      -1.883   4.021   0.080  0.00  0.00    +0.004 A 
ATOM     15  C   UNL     1      -3.206   3.624   0.087  0.00  0.00    +0.000 A 
ATOM     16  C   UNL     1      -3.522   2.277   0.058  0.00  0.00    +0.002 A 
ATOM     17  C   UNL     1      -2.515   1.336   0.025  0.00  0.00    +0.023 A 
ATOM     18  C   UNL     1      -1.180   1.730   0.017  0.00  0.00    +0.036 A 
ATOM     19  N   UNL     1      -0.011   0.966   0.007  0.00  0.00    -0.286 N 
ATOM     20  C   UNL     1       1.094   1.732   0.001  0.00  0.00    +0.212 C 
ATOM     21  O   UNL     1       2.244   1.347   0.017  0.00  0.00    -0.277 OA
ATOM     22  H   UNL     1       0.002  -0.004   0.002  0.00  0.00    +0.155 HD
ATOM     23  N   UNL     1       1.188   3.866  -1.236  0.00  0.00    +0.395 N 
ATOM     24  H   UNL     1       2.114   3.478  -1.451  0.00  0.00    -0.079 HD
ENDROOT
BRANCH   1  31
ATOM     25  C   UNL     1      -1.966   6.554   3.107  0.00  0.00    +0.046 C 
ATOM     26  C   UNL     1      -0.919   6.590   4.190  0.00  0.00    -0.028 A 
ATOM     27  C   UNL     1      -1.220   7.128   5.426  0.00  0.00    +0.005 A 
ATOM     28  C   UNL     1      -0.258   7.167   6.418  0.00  0.00    +0.001 A 
ATOM     29  C   UNL     1       1.007   6.663   6.178  0.00  0.00    +0.005 A 
ATOM     30  C   UNL     1       1.313   6.119   4.946  0.00  0.00    -0.028 A 
ATOM     31  C   UNL     1       0.349   6.079   3.948  0.00  0.00    +0.050 A 
ATOM     32  C   UNL     1       2.692   5.569   4.685  0.00  0.00    +0.046 C 
ENDBRANCH   1  31
TORSDOF 1
