REMARK  Name = ZINC39579890
REMARK  6 active torsions:
REMARK  status: ('A' for Active; 'I' for Inactive)
REMARK    1  A    between atoms: C_1  and  N_2
REMARK    2  A    between atoms: N_2  and  C_3
REMARK    3  A    between atoms: N_2  and  C_4
REMARK    4  A    between atoms: C_7  and  C_10
REMARK    5  A    between atoms: N_11  and  N_12
REMARK    6  A    between atoms: C_13  and  C_15
REMARK                            x       y       z     vdW  Elec       q    Type
REMARK                         _______ _______ _______ _____ _____    ______ ____
ROOT
ATOM      1  C   UNL     1      -0.006  -2.798  -4.898  0.00  0.00    +0.138 C 
ATOM      2  N   UNL     1      -0.020  -2.143  -6.018  0.00  0.00    -0.188 NA
ENDROOT
BRANCH   1   6
ATOM      3  C   UNL     1       0.000  -0.695  -1.210  0.00  0.00    +0.029 A 
ATOM      4  C   UNL     1       0.013  -2.086  -1.215  0.00  0.00    +0.024 A 
ATOM      5  C   UNL     1       0.011  -2.771  -2.410  0.00  0.00    +0.011 A 
ATOM      6  C   UNL     1      -0.004  -2.068  -3.617  0.00  0.00    -0.005 A 
ATOM      7  C   UNL     1      -0.017  -0.670  -3.608  0.00  0.00    +0.011 A 
ATOM      8  C   UNL     1      -0.021   0.009  -2.409  0.00  0.00    +0.024 A 
BRANCH   3  10
ATOM      9  C   UNL     1      -0.018   1.461   0.010  0.00  0.00    +0.129 C 
ATOM     10  N   UNL     1       0.002  -0.004   0.002  0.00  0.00    -0.336 N 
ATOM     11  C   UNL     1       0.024  -0.743   1.267  0.00  0.00    +0.129 C 
ENDBRANCH   3  10
ENDBRANCH   1   6
BRANCH   2  12
ATOM     12  N   UNL     1      -0.022  -2.837  -7.235  0.00  0.00    -0.205 N 
ATOM     13  C   UNL     1      -0.036  -2.156  -8.399  0.00  0.00    +0.262 C 
ATOM     14  O   UNL     1      -0.048  -0.943  -8.392  0.00  0.00    -0.271 OA
ATOM     15  H   UNL     1      -0.012  -3.807  -7.241  0.00  0.00    +0.177 HD
BRANCH  13  16
ATOM     16  C   UNL     1      -0.038  -2.903  -9.708  0.00  0.00    +0.239 C 
ATOM     17  C   UNL     1      -1.444  -3.345 -10.072  0.00  0.00    +0.032 C 
ATOM     18  C   UNL     1      -1.691  -2.717 -11.224  0.00  0.00    +0.133 C 
ATOM     19  N   UNL     1      -0.632  -1.964 -11.596  0.00  0.00    -0.162 NA
ATOM     20  N   UNL     1       0.329  -2.008 -10.819  0.00  0.00    -0.171 NA
ENDBRANCH  13  16
ENDBRANCH   2  12
TORSDOF 4
