REMARK  Name = ZINC21813386
REMARK  5 active torsions:
REMARK  status: ('A' for Active; 'I' for Inactive)
REMARK    1  A    between atoms: C_3  and  C_10
REMARK    2  A    between atoms: C_5  and  C_7
REMARK    3  A    between atoms: C_7  and  N_9
REMARK    4  A    between atoms: C_10  and  O_11
REMARK    5  A    between atoms: O_11  and  C_12
REMARK                            x       y       z     vdW  Elec       q    Type
REMARK                         _______ _______ _______ _____ _____    ______ ____
ROOT
ATOM      1  C   UNL     1      -1.709  -4.484  -0.005  0.00  0.00    +0.264 C 
ENDROOT
BRANCH   1   4
ATOM      2  C   UNL     1      -4.820  -6.271  -1.192  0.00  0.00    +0.001 A 
ATOM      3  C   UNL     1      -3.622  -5.578  -1.191  0.00  0.00    +0.007 A 
ATOM      4  C   UNL     1      -3.013  -5.239   0.004  0.00  0.00    -0.010 A 
ATOM      5  C   UNL     1      -3.595  -5.594   1.204  0.00  0.00    +0.017 A 
ATOM      6  C   UNL     1      -4.806  -6.289   1.210  0.00  0.00    +0.003 A 
ATOM      7  C   UNL     1      -5.415  -6.628   0.000  0.00  0.00    +0.010 A 
BRANCH   6   8
ATOM      8  C   UNL     1      -5.436  -6.668   2.490  0.00  0.00    +0.077 C 
ATOM      9  S   UNL     1      -4.462  -7.101   3.829  0.00  0.00    -0.035 S 
BRANCH   8  10
ATOM     10  N   UNL     1      -6.779  -6.674   2.604  0.00  0.00    -0.352 N 
ATOM     11  H   UNL     1      -7.249  -6.957   3.558  0.00  0.00    +0.143 HD
ATOM     12  H   UNL     1      -7.405  -6.396   1.744  0.00  0.00    +0.143 HD
ENDBRANCH   8  10
ENDBRANCH   6   8
ENDBRANCH   1   4
BRANCH   1  13
ATOM     13  O   UNL     1      -1.971  -3.079   0.005  0.00  0.00    -0.487 OA
BRANCH  13  14
ATOM     14  C   UNL     1      -0.893  -2.250  -0.002  0.00  0.00    +0.125 A 
ATOM     15  C   UNL     1       0.385  -2.792  -0.017  0.00  0.00    +0.047 A 
ATOM     16  C   UNL     1       1.477  -1.942  -0.022  0.00  0.00    +0.022 A 
ATOM     17  C   UNL     1       1.278  -0.584  -0.013  0.00  0.00    +0.061 A 
ATOM     18  C   UNL     1       0.002  -0.004   0.002  0.00  0.00    +0.150 A 
ATOM     19  C   UNL     1      -1.089  -0.884   0.007  0.00  0.00    +0.093 A 
ATOM     20  O   UNL     1      -0.016   1.343   0.009  0.00  0.00    -0.416 OA
ATOM     21  C   UNL     1       1.122   2.058   0.002  0.00  0.00    +0.379 A 
ATOM     22  O   UNL     1       1.258   3.267   0.007  0.00  0.00    -0.237 OA
ATOM     23  S   UNL     1       2.351   0.832  -0.016  0.00  0.00    -0.004 S 
ENDBRANCH  13  14
ENDBRANCH   1  13
TORSDOF 5
