REMARK  Name = ZINC33727080
REMARK  8 active torsions:
REMARK  status: ('A' for Active; 'I' for Inactive)
REMARK    1  A    between atoms: C_1  and  C_2
REMARK    2  A    between atoms: C_2  and  C_3
REMARK    3  A    between atoms: C_3  and  O_4
REMARK    4  A    between atoms: O_4  and  C_5
REMARK    5  A    between atoms: C_9  and  C_11
REMARK    6  A    between atoms: C_11  and  C_12
REMARK    7  A    between atoms: C_13  and  C_30
REMARK    8  A    between atoms: C_34  and  O_36
REMARK                            x       y       z     vdW  Elec       q    Type
REMARK                         _______ _______ _______ _____ _____    ______ ____
ROOT
ATOM      1  C   UNL     1      -1.278   5.993  -0.060  0.00  0.00    +0.077 C 
ATOM      2  C   UNL     1      -1.479   7.487  -0.166  0.00  0.00    +0.152 C 
ATOM      3  N   UNL     1      -2.926   7.711  -0.239  0.00  0.00    -0.232 N 
ATOM      4  C   UNL     1      -3.556   6.527  -0.178  0.00  0.00    +0.293 C 
ATOM      5  O   UNL     1      -4.761   6.377  -0.209  0.00  0.00    -0.266 OA
ATOM      6  C   UNL     1      -2.563   5.425  -0.065  0.00  0.00    +0.250 C 
ATOM      7  O   UNL     1      -2.819   4.237   0.010  0.00  0.00    -0.282 OA
ATOM      8  C   UNL     1      -3.543   8.945  -0.348  0.00  0.00    +0.169 A 
ATOM      9  N   UNL     1      -2.996  10.137  -0.406  0.00  0.00    -0.224 NA
ATOM     10  C   UNL     1      -3.728  11.267  -0.517  0.00  0.00    +0.080 A 
ATOM     11  C   UNL     1      -3.266  12.602  -0.595  0.00  0.00    +0.030 A 
ATOM     12  C   UNL     1      -4.150  13.643  -0.699  0.00  0.00    +0.022 A 
ATOM     13  C   UNL     1      -5.522  13.430  -0.732  0.00  0.00    +0.042 A 
ATOM     14  C   UNL     1      -6.008  12.137  -0.659  0.00  0.00    +0.037 A 
ATOM     15  C   UNL     1      -5.129  11.088  -0.554  0.00  0.00    +0.042 A 
ATOM     16  S   UNL     1      -5.288   9.322  -0.435  0.00  0.00    -0.052 S 
ATOM     17 CL   UNL     1      -6.615  14.772  -0.865  0.00  0.00    -0.084 Cl
ENDROOT
BRANCH   2  18
ATOM     18  C   UNL     1      -0.815   8.010  -1.414  0.00  0.00    -0.019 A 
ATOM     19  C   UNL     1      -1.443   7.875  -2.639  0.00  0.00    +0.006 A 
ATOM     20  C   UNL     1      -0.839   8.358  -3.784  0.00  0.00    +0.004 A 
ATOM     21  C   UNL     1       0.399   8.968  -3.710  0.00  0.00    +0.045 A 
ATOM     22  C   UNL     1       1.033   9.100  -2.483  0.00  0.00    +0.117 A 
ATOM     23  C   UNL     1       0.422   8.618  -1.334  0.00  0.00    +0.051 A 
BRANCH  22  24
ATOM     24  O   UNL     1       2.250   9.698  -2.407  0.00  0.00    -0.507 OA
ATOM     25  H   UNL     1       2.752   9.802  -1.434  0.00  0.00    +0.292 HD
ENDBRANCH  22  24
ENDBRANCH   2  18
BRANCH   1  26
ATOM     26  C   UNL     1      -0.076   5.322   0.029  0.00  0.00    +0.195 C 
ATOM     27  O   UNL     1       1.074   6.015   0.171  0.00  0.00    -0.287 OA
BRANCH  26  32
ATOM     28  C   UNL     1       0.661   1.740   0.885  0.00  0.00    +0.121 A 
ATOM     29  C   UNL     1       0.004   1.080  -0.145  0.00  0.00    +0.046 A 
ATOM     30  C   UNL     1      -0.670   1.798  -1.116  0.00  0.00    +0.004 A 
ATOM     31  C   UNL     1      -0.705   3.175  -1.062  0.00  0.00    +0.012 A 
ATOM     32  C   UNL     1      -0.047   3.850  -0.029  0.00  0.00    +0.026 A 
ATOM     33  C   UNL     1       0.638   3.122   0.948  0.00  0.00    +0.057 A 
BRANCH  28  34
ATOM     34  O   UNL     1       1.327   1.028   1.833  0.00  0.00    -0.492 OA
BRANCH  34  35
ATOM     35  C   UNL     1       1.309  -0.395   1.706  0.00  0.00    +0.229 C 
BRANCH  35  37
ATOM     36  C   UNL     1       2.086  -2.543   2.719  0.00  0.00    +0.007 C 
ATOM     37  C   UNL     1       2.105  -1.019   2.855  0.00  0.00    +0.038 C 
ENDBRANCH  35  37
ENDBRANCH  34  35
ENDBRANCH  28  34
ENDBRANCH  26  32
ENDBRANCH   1  26
TORSDOF 7
