REMARK  Name = ZINC51150221
REMARK  5 active torsions:
REMARK  status: ('A' for Active; 'I' for Inactive)
REMARK    1  A    between atoms: C_10  and  O_12
REMARK    2  A    between atoms: O_12  and  C_13
REMARK    3  A    between atoms: C_13  and  C_14
REMARK    4  A    between atoms: C_15  and  N_19
REMARK    5  A    between atoms: N_19  and  N_20
REMARK                            x       y       z     vdW  Elec       q    Type
REMARK                         _______ _______ _______ _____ _____    ______ ____
ROOT
ATOM      1  O   UNL     1       4.609   0.011  -0.924  0.00  0.00    -0.366 OA
ENDROOT
BRANCH   1  11
ATOM      2  C   UNL     1      -0.168   0.963  -0.292  0.00  0.00    +0.000 A 
ATOM      3  C   UNL     1       0.953   1.772  -0.246  0.00  0.00    +0.000 A 
ATOM      4  C   UNL     1       2.206   1.201  -0.173  0.00  0.00    +0.006 A 
ATOM      5  C   UNL     1       2.352  -0.180  -0.148  0.00  0.00    -0.016 A 
ATOM      6  C   UNL     1       1.237  -0.985  -0.199  0.00  0.00    -0.042 A 
ATOM      7  C   UNL     1      -0.025  -0.408  -0.268  0.00  0.00    +0.004 A 
ATOM      8  C   UNL     1       1.321  -2.489  -0.191  0.00  0.00    +0.035 C 
ATOM      9  C   UNL     1       2.688  -2.948   0.313  0.00  0.00    +0.007 C 
ATOM     10  C   UNL     1       3.770  -2.205  -0.478  0.00  0.00    +0.037 C 
ATOM     11  C   UNL     1       3.750  -0.736  -0.060  0.00  0.00    +0.149 C 
ENDBRANCH   1  11
BRANCH   1  12
ATOM     12  C   UNL     1       5.973   0.042  -0.500  0.00  0.00    +0.220 C 
BRANCH  12  13
ATOM     13  C   UNL     1       6.776   0.890  -1.454  0.00  0.00    +0.120 A 
ATOM     14  C   UNL     1       7.377   0.358  -2.559  0.00  0.00    +0.125 A 
ATOM     15  S   UNL     1       8.112   1.709  -3.239  0.00  0.00    +0.053 S 
ATOM     16  N   UNL     1       7.633   2.857  -2.117  0.00  0.00    -0.108 NA
ATOM     17  N   UNL     1       6.931   2.182  -1.271  0.00  0.00    -0.142 NA
BRANCH  14  18
ATOM     18  N   UNL     1       7.381  -0.960  -3.006  0.00  0.00    -0.274 N 
ATOM     19  H   UNL     1       6.909  -1.644  -2.506  0.00  0.00    +0.167 HD
BRANCH  18  20
ATOM     20  N   UNL     1       8.051  -1.292  -4.150  0.00  0.00    -0.256 NA
ATOM     21  H   UNL     1       9.020  -1.018  -4.094  0.00  0.00    +0.140 HD
ATOM     22  H   UNL     1       7.965  -2.278  -4.347  0.00  0.00    +0.140 HD
ENDBRANCH  18  20
ENDBRANCH  14  18
ENDBRANCH  12  13
ENDBRANCH   1  12
TORSDOF 5
