REMARK  Name = ZINC66597487
REMARK  6 active torsions:
REMARK  status: ('A' for Active; 'I' for Inactive)
REMARK    1  A    between atoms: C_1  and  C_2
REMARK    2  A    between atoms: C_2  and  C_7
REMARK    3  A    between atoms: C_7  and  N_8
REMARK    4  A    between atoms: N_11  and  C_12
REMARK    5  A    between atoms: C_12  and  C_13
REMARK    6  A    between atoms: C_16  and  N_19
REMARK                            x       y       z     vdW  Elec       q    Type
REMARK                         _______ _______ _______ _____ _____    ______ ____
ROOT
ATOM      1  C   UNL     1      -5.423  -0.335  -2.802  0.00  0.00    +0.141 C 
ENDROOT
BRANCH   1   5
ATOM      2  N   UNL     1      -2.105  -0.086  -1.237  0.00  0.00    -0.299 N 
ATOM      3  C   UNL     1      -3.391  -0.424  -1.461  0.00  0.00    +0.300 C 
ATOM      4  O   UNL     1      -3.977  -1.140  -0.673  0.00  0.00    -0.253 OA
ATOM      5  N   UNL     1      -4.026   0.032  -2.559  0.00  0.00    -0.295 N 
ATOM      6  H   UNL     1      -1.637   0.485  -1.866  0.00  0.00    +0.150 HD
ATOM      7  H   UNL     1      -3.558   0.604  -3.188  0.00  0.00    +0.151 HD
BRANCH   2   8
ATOM      8  C   UNL     1      -1.415  -0.582  -0.044  0.00  0.00    +0.112 C 
BRANCH   8  10
ATOM      9  C   UNL     1       0.018   1.475  -0.028  0.00  0.00    +0.013 C 
ATOM     10  C   UNL     1       0.021  -0.055  -0.030  0.00  0.00    -0.016 C 
ATOM     11  C   UNL     1       0.790  -0.580  -1.260  0.00  0.00    +0.008 C 
ATOM     12  C   UNL     1       2.220  -0.848  -0.730  0.00  0.00    +0.001 C 
ATOM     13  C   UNL     1       1.958  -1.409   0.690  0.00  0.00    +0.001 C 
ATOM     14  C   UNL     1       0.764  -0.582   1.210  0.00  0.00    +0.008 C 
ENDBRANCH   8  10
ENDBRANCH   2   8
ENDBRANCH   1   5
BRANCH   1  15
ATOM     15  C   UNL     1      -5.893   0.300  -4.086  0.00  0.00    -0.030 A 
ATOM     16  C   UNL     1      -6.463   1.560  -4.064  0.00  0.00    +0.007 A 
ATOM     17  C   UNL     1      -6.895   2.144  -5.239  0.00  0.00    +0.023 A 
ATOM     18  C   UNL     1      -6.756   1.465  -6.442  0.00  0.00    +0.030 A 
ATOM     19  C   UNL     1      -6.183   0.200  -6.461  0.00  0.00    +0.023 A 
ATOM     20  C   UNL     1      -5.748  -0.376  -5.283  0.00  0.00    +0.007 A 
BRANCH  18  21
ATOM     21  N   UNL     1      -7.192   2.053  -7.632  0.00  0.00    -0.320 N 
ATOM     22  C   UNL     1      -6.951   1.413  -8.936  0.00  0.00    +0.124 C 
ATOM     23  C   UNL     1      -8.307   1.110  -9.577  0.00  0.00    +0.123 C 
ATOM     24  N   UNL     1      -9.191   2.264  -9.487  0.00  0.00    -0.313 N 
ATOM     25  C   UNL     1      -9.059   3.251  -8.600  0.00  0.00    +0.230 C 
ATOM     26  O   UNL     1      -9.905   4.120  -8.571  0.00  0.00    -0.274 OA
ATOM     27  C   UNL     1      -7.915   3.334  -7.632  0.00  0.00    +0.200 C 
ATOM     28  H   UNL     1      -9.927   2.319 -10.116  0.00  0.00    +0.149 HD
ENDBRANCH  18  21
ENDBRANCH   1  15
TORSDOF 5
