REMARK  Name = ZINC01697252
REMARK  6 active torsions:
REMARK  status: ('A' for Active; 'I' for Inactive)
REMARK    1  A    between atoms: C_4  and  S_7
REMARK    2  A    between atoms: S_7  and  N_10
REMARK    3  A    between atoms: N_10  and  N_11
REMARK    4  A    between atoms: C_12  and  C_14
REMARK    5  A    between atoms: C_14  and  C_15
REMARK    6  A    between atoms: C_15  and  C_16
REMARK                            x       y       z     vdW  Elec       q    Type
REMARK                         _______ _______ _______ _____ _____    ______ ____
ROOT
ATOM      1  N   UNL     1      -0.513  -0.423   2.032  0.00  0.00    -0.246 N 
ATOM      2  C   UNL     1      -1.407  -1.054   2.857  0.00  0.00    +0.157 C 
ATOM      3  H   UNL     1      -1.979  -2.881   3.524  0.00  0.00    +0.157 HD
ATOM      4  H   UNL     1      -0.528   0.543   1.951  0.00  0.00    +0.169 HD
ATOM      5  N   UNL     1      -1.335  -2.365   2.924  0.00  0.00    -0.385 N 
ATOM      6  H   UNL     1      -0.632  -2.870   2.372  0.00  0.00    +0.157 HD
ENDROOT
BRANCH   2   7
ATOM      7  C   UNL     1      -2.412  -0.247   3.637  0.00  0.00    +0.372 C 
ATOM      8  F   UNL     1      -3.132  -1.094   4.486  0.00  0.00    -0.190 F 
ATOM      9  F   UNL     1      -1.745   0.719   4.398  0.00  0.00    -0.190 F 
BRANCH   7  10
ATOM     10  C   UNL     1      -3.375   0.443   2.668  0.00  0.00    +0.410 C 
ATOM     11  F   UNL     1      -2.655   1.290   1.819  0.00  0.00    -0.189 F 
ATOM     12  F   UNL     1      -4.042  -0.523   1.907  0.00  0.00    -0.189 F 
BRANCH  10  13
ATOM     13  C   UNL     1      -4.396   1.262   3.461  0.00  0.00    +0.461 C 
ATOM     14  F   UNL     1      -3.728   2.228   4.222  0.00  0.00    -0.165 F 
ATOM     15  F   UNL     1      -5.276   1.893   2.575  0.00  0.00    -0.165 F 
ATOM     16  F   UNL     1      -5.116   0.415   4.310  0.00  0.00    -0.165 F 
ENDBRANCH  10  13
ENDBRANCH   7  10
ENDBRANCH   2   7
BRANCH   1  17
ATOM     17  N   UNL     1       0.421  -1.173   1.307  0.00  0.00    -0.109 NA
ATOM     18  H   UNL     1       1.013  -1.788   1.768  0.00  0.00    +0.172 HD
BRANCH  17  19
ATOM     19  S   UNL     1       0.515  -1.012  -0.339  0.00  0.00    +0.074 S 
ATOM     20  O   UNL     1      -0.794  -1.234  -0.844  0.00  0.00    -0.152 OA
ATOM     21  O   UNL     1       1.635  -1.779  -0.759  0.00  0.00    -0.152 OA
BRANCH  19  25
ATOM     22  C   UNL     1       1.517   3.317  -1.203  0.00  0.00    +0.000 A 
ATOM     23  C   UNL     1       2.531   2.395  -1.030  0.00  0.00    +0.002 A 
ATOM     24  C   UNL     1       2.226   1.073  -0.766  0.00  0.00    +0.028 A 
ATOM     25  C   UNL     1       0.905   0.674  -0.675  0.00  0.00    +0.107 A 
ATOM     26  C   UNL     1      -0.109   1.595  -0.853  0.00  0.00    +0.028 A 
ATOM     27  C   UNL     1       0.197   2.918  -1.112  0.00  0.00    +0.002 A 
ENDBRANCH  19  25
ENDBRANCH  17  19
ENDBRANCH   1  17
TORSDOF 6
