REMARK  Name = ZINC42014992
REMARK  6 active torsions:
REMARK  status: ('A' for Active; 'I' for Inactive)
REMARK    1  A    between atoms: C_1  and  C_2
REMARK    2  A    between atoms: C_2  and  C_3
REMARK    3  A    between atoms: C_3  and  C_4
REMARK    4  A    between atoms: C_4  and  N_5
REMARK    5  A    between atoms: C_6  and  C_10
REMARK    6  A    between atoms: C_14  and  N_16
REMARK                            x       y       z     vdW  Elec       q    Type
REMARK                         _______ _______ _______ _____ _____    ______ ____
ROOT
ATOM      1  C   UNL     1      -3.079  -2.920   2.507  0.00  0.00    +0.022 A 
ATOM      2  C   UNL     1      -3.736  -3.702   3.457  0.00  0.00    +0.013 A 
ATOM      3  C   UNL     1      -3.325  -3.678   4.774  0.00  0.00    +0.022 A 
ATOM      4  C   UNL     1      -2.261  -2.881   5.157  0.00  0.00    +0.062 A 
ATOM      5  C   UNL     1      -1.600  -2.099   4.216  0.00  0.00    +0.044 A 
ATOM      6  C   UNL     1      -2.003  -2.121   2.890  0.00  0.00    +0.035 A 
ATOM      7 CL   UNL     1      -1.751  -2.856   6.816  0.00  0.00    -0.082 Cl
ENDROOT
BRANCH   1   9
ATOM      8  N   UNL     1      -2.791  -2.559   0.016  0.00  0.00    -0.225 N 
ATOM      9  C   UNL     1      -3.519  -2.944   1.094  0.00  0.00    +0.182 A 
ATOM     10  N   UNL     1      -4.690  -3.344   0.645  0.00  0.00    -0.108 NA
ATOM     11  N   UNL     1      -4.743  -3.236  -0.633  0.00  0.00    -0.023 NA
ATOM     12  N   UNL     1      -3.635  -2.763  -1.090  0.00  0.00    -0.044 NA
BRANCH   8  13
ATOM     13  C   UNL     1      -1.422  -2.038   0.007  0.00  0.00    +0.147 C 
BRANCH  13  14
ATOM     14  C   UNL     1      -1.458  -0.509   0.038  0.00  0.00    +0.023 C 
BRANCH  14  16
ATOM     15  C   UNL     1      -0.065   1.565   0.059  0.00  0.00    +0.004 C 
ATOM     16  C   UNL     1      -0.029   0.036   0.028  0.00  0.00    -0.002 C 
ENDBRANCH  14  16
ENDBRANCH  13  14
ENDBRANCH   8  13
ENDBRANCH   1   9
BRANCH   5  17
ATOM     17  N   UNL     1      -0.525  -1.294   4.607  0.00  0.00    -0.357 N 
ATOM     18  H   UNL     1      -0.241  -1.281   5.534  0.00  0.00    +0.142 HD
ATOM     19  H   UNL     1      -0.064  -0.749   3.950  0.00  0.00    +0.142 HD
ENDBRANCH   5  17
TORSDOF 5
