REMARK  Name = ZINC11338494
REMARK  10 active torsions:
REMARK  status: ('A' for Active; 'I' for Inactive)
REMARK    1  A    between atoms: C_4  and  C_7
REMARK    2  A    between atoms: C_7  and  N_8
REMARK    3  A    between atoms: C_9  and  N_35
REMARK    4  A    between atoms: C_10  and  N_17
REMARK    5  A    between atoms: N_17  and  C_18
REMARK    6  A    between atoms: N_17  and  C_26
REMARK    7  A    between atoms: C_18  and  C_19
REMARK    8  A    between atoms: C_19  and  C_20
REMARK    9  A    between atoms: C_26  and  C_27
REMARK   10  A    between atoms: N_29  and  C_30
REMARK                            x       y       z     vdW  Elec       q    Type
REMARK                         _______ _______ _______ _____ _____    ______ ____
ROOT
ATOM      1  N   UNL     1      10.227   1.444   2.209  0.00  0.00    -0.276 N 
ATOM      2  C   UNL     1       8.856   1.478   2.326  0.00  0.00    +0.127 A 
ATOM      3  C   UNL     1       8.118   2.143   1.386  0.00  0.00    +0.134 A 
ATOM      4  C   UNL     1       8.784   2.786   0.327  0.00  0.00    +0.277 A 
ATOM      5  O   UNL     1       8.148   3.390  -0.521  0.00  0.00    -0.266 OA
ATOM      6  N   UNL     1      10.128   2.731   0.254  0.00  0.00    -0.273 N 
ATOM      7  H   UNL     1      10.603   3.187  -0.498  0.00  0.00    +0.173 HD
ATOM      8  C   UNL     1      10.838   2.068   1.185  0.00  0.00    +0.331 A 
ATOM      9  O   UNL     1      12.051   2.031   1.099  0.00  0.00    -0.246 OA
ENDROOT
BRANCH   2  10
ATOM     10  N   UNL     1       8.233   0.844   3.377  0.00  0.00    -0.343 N 
ATOM     11  H   UNL     1       7.267   0.868   3.454  0.00  0.00    +0.144 HD
ATOM     12  H   UNL     1       8.761   0.373   4.042  0.00  0.00    +0.144 HD
ENDBRANCH   2  10
BRANCH   1  13
ATOM     13  C   UNL     1      11.027   0.730   3.208  0.00  0.00    +0.163 C 
BRANCH  13  17
ATOM     14  C   UNL     1      12.060   3.399   6.379  0.00  0.00    +0.000 A 
ATOM     15  C   UNL     1      10.892   2.662   6.448  0.00  0.00    +0.000 A 
ATOM     16  C   UNL     1      10.558   1.798   5.422  0.00  0.00    +0.005 A 
ATOM     17  C   UNL     1      11.391   1.672   4.326  0.00  0.00    -0.028 A 
ATOM     18  C   UNL     1      12.561   2.404   4.260  0.00  0.00    +0.005 A 
ATOM     19  C   UNL     1      12.893   3.272   5.284  0.00  0.00    +0.000 A 
ENDBRANCH  13  17
ENDBRANCH   1  13
BRANCH   3  20
ATOM     20  N   UNL     1       6.708   2.189   1.480  0.00  0.00    -0.314 N 
BRANCH  20  21
ATOM     21  C   UNL     1       6.233   3.575   1.593  0.00  0.00    +0.110 C 
BRANCH  21  22
ATOM     22  C   UNL     1       4.823   3.583   2.188  0.00  0.00    +0.049 C 
BRANCH  22  23
ATOM     23  C   UNL     1       4.377   5.007   2.402  0.00  0.00    -0.072 C 
ATOM     24  C   UNL     1       3.668   5.567   1.475  0.00  0.00    -0.028 C 
ATOM     25  C   UNL     1       3.160   6.977   1.541  0.00  0.00    +0.027 C 
ATOM     26  C   UNL     1       3.223   7.493   2.981  0.00  0.00    +0.004 C 
ATOM     27  C   UNL     1       4.621   7.202   3.540  0.00  0.00    +0.005 C 
ATOM     28  C   UNL     1       4.778   5.685   3.679  0.00  0.00    +0.030 C 
ENDBRANCH  22  23
ENDBRANCH  21  22
ENDBRANCH  20  21
BRANCH  20  29
ATOM     29  C   UNL     1       6.082   1.508   0.339  0.00  0.00    +0.201 C 
BRANCH  29  30
ATOM     30  C   UNL     1       6.172   0.017   0.533  0.00  0.00    +0.231 C 
ATOM     31  O   UNL     1       6.746  -0.436   1.501  0.00  0.00    -0.274 OA
ATOM     32  N   UNL     1       5.617  -0.815  -0.371  0.00  0.00    -0.311 N 
ATOM     33  H   UNL     1       5.158  -0.453  -1.145  0.00  0.00    +0.149 HD
BRANCH  32  34
ATOM     34  C   UNL     1       5.705  -2.265  -0.183  0.00  0.00    +0.073 C 
ATOM     35  C   UNL     1       4.475  -2.794   0.597  0.00  0.00    +0.022 C 
ATOM     36  C   UNL     1       4.382  -4.280   0.194  0.00  0.00    +0.002 C 
ATOM     37  C   UNL     1       5.092  -4.413  -1.164  0.00  0.00    +0.002 C 
ATOM     38  C   UNL     1       5.592  -3.002  -1.540  0.00  0.00    +0.022 C 
ENDBRANCH  32  34
ENDBRANCH  29  30
ENDBRANCH  20  29
ENDBRANCH   3  20
TORSDOF 10
