REMARK  Name = ZINC51188215
REMARK  9 active torsions:
REMARK  status: ('A' for Active; 'I' for Inactive)
REMARK    1  A    between atoms: C_1  and  C_2
REMARK    2  A    between atoms: C_2  and  O_3
REMARK    3  A    between atoms: O_3  and  C_4
REMARK    4  A    between atoms: C_6  and  C_13
REMARK    5  A    between atoms: C_9  and  O_10
REMARK    6  A    between atoms: O_10  and  C_11
REMARK    7  A    between atoms: C_13  and  N_14
REMARK    8  A    between atoms: N_14  and  C_15
REMARK    9  A    between atoms: C_24  and  O_26
REMARK                            x       y       z     vdW  Elec       q    Type
REMARK                         _______ _______ _______ _____ _____    ______ ____
ROOT
ATOM      1  N   UNL     1      -1.619  -5.283   0.128  0.00  0.00    +0.388 N 
ATOM      2  H   UNL     1      -2.160  -4.432   0.101  0.00  0.00    -0.084 HD
ATOM      3  H   UNL     1      -1.646  -5.727  -0.777  0.00  0.00    -0.084 HD
ENDROOT
BRANCH   1   4
ATOM      4  C   UNL     1      -2.185  -6.191   1.135  0.00  0.00    -0.011 C 
ATOM      5  C   UNL     1      -1.511  -7.544   1.061  0.00  0.00    -0.056 A 
ATOM      6  C   UNL     1      -0.279  -7.960   1.538  0.00  0.00    +0.002 A 
ATOM      7  C   UNL     1       0.135  -9.264   1.350  0.00  0.00    +0.000 A 
ATOM      8  C   UNL     1      -0.683 -10.158   0.684  0.00  0.00    +0.000 A 
ATOM      9  C   UNL     1      -1.911  -9.745   0.207  0.00  0.00    +0.004 A 
ATOM     10  C   UNL     1      -2.328  -8.437   0.395  0.00  0.00    -0.043 A 
ATOM     11  C   UNL     1      -3.608  -7.746  -0.024  0.00  0.00    +0.065 C 
ATOM     12  C   UNL     1      -3.675  -6.462   0.835  0.00  0.00    +0.109 C 
BRANCH  12  13
ATOM     13  O   UNL     1      -4.249  -5.383   0.095  0.00  0.00    -0.393 OA
ATOM     14  H   UNL     1      -5.184  -5.506  -0.118  0.00  0.00    +0.210 HD
ENDBRANCH  12  13
ENDBRANCH   1   4
BRANCH   1  15
ATOM     15  C   UNL     1      -0.228  -4.968   0.479  0.00  0.00    -0.046 C 
BRANCH  15  18
ATOM     16  C   UNL     1       0.777  -1.811  -1.336  0.00  0.00    +0.163 A 
ATOM     17  C   UNL     1       0.243  -2.669  -0.388  0.00  0.00    +0.051 A 
ATOM     18  C   UNL     1       0.352  -4.037  -0.554  0.00  0.00    -0.060 A 
ATOM     19  C   UNL     1       0.992  -4.553  -1.665  0.00  0.00    +0.021 A 
ATOM     20  C   UNL     1       1.527  -3.702  -2.616  0.00  0.00    +0.063 A 
ATOM     21  C   UNL     1       1.416  -2.329  -2.458  0.00  0.00    +0.175 A 
ATOM     22 BR   UNL     1       2.403  -4.412  -4.134  0.00  0.00    -0.046 Br
BRANCH  21  23
ATOM     23  O   UNL     1       1.936  -1.491  -3.394  0.00  0.00    -0.490 OA
ATOM     24  C   UNL     1       3.293  -1.080  -3.215  0.00  0.00    +0.277 C 
ENDBRANCH  21  23
BRANCH  16  25
ATOM     25  O   UNL     1       0.671  -0.465  -1.174  0.00  0.00    -0.489 OA
BRANCH  25  27
ATOM     26  C   UNL     1      -0.019   1.526   0.010  0.00  0.00    +0.048 C 
ATOM     27  C   UNL     1       0.002  -0.004   0.002  0.00  0.00    +0.226 C 
ENDBRANCH  25  27
ENDBRANCH  16  25
ENDBRANCH  15  18
ENDBRANCH   1  15
TORSDOF 7
