REMARK  Name = ZINC67294918
REMARK  3 active torsions:
REMARK  status: ('A' for Active; 'I' for Inactive)
REMARK    1  A    between atoms: C_3  and  N_10
REMARK    2  A    between atoms: C_6  and  C_7
REMARK    3  A    between atoms: C_12  and  C_22
REMARK                            x       y       z     vdW  Elec       q    Type
REMARK                         _______ _______ _______ _____ _____    ______ ____
ROOT
ATOM      1  N   UNL     1       3.545   2.115  -0.018  0.00  0.00    -0.325 N 
ATOM      2  C   UNL     1       4.531   1.754   0.778  0.00  0.00    +0.212 A 
ATOM      3  C   UNL     1       5.846   2.421   0.716  0.00  0.00    +0.098 A 
ATOM      4  C   UNL     1       6.626   2.400   1.863  0.00  0.00    +0.030 A 
ATOM      5  C   UNL     1       6.124   1.716   3.001  0.00  0.00    +0.020 A 
ATOM      6  C   UNL     1       6.770   1.831   4.240  0.00  0.00    +0.031 A 
ATOM      7  C   UNL     1       6.247   1.194   5.343  0.00  0.00    +0.042 A 
ATOM      8  C   UNL     1       5.090   0.434   5.233  0.00  0.00    +0.023 A 
ATOM      9  C   UNL     1       4.454   0.296   4.016  0.00  0.00    +0.048 A 
ATOM     10  C   UNL     1       4.967   0.923   2.890  0.00  0.00    +0.138 A 
ATOM     11  O   UNL     1       4.370   0.759   1.687  0.00  0.00    -0.439 OA
ATOM     12 CL   UNL     1       7.039   1.342   6.881  0.00  0.00    -0.084 Cl
ATOM     13  H   UNL     1       3.649   2.884  -0.601  0.00  0.00    +0.169 HD
ENDROOT
BRANCH   3  14
ATOM     14  C   UNL     1       6.311   3.082  -0.515  0.00  0.00    +0.255 C 
ATOM     15  O   UNL     1       5.574   3.162  -1.479  0.00  0.00    -0.270 OA
ATOM     16  N   UNL     1       7.555   3.598  -0.574  0.00  0.00    -0.261 N 
ATOM     17  C   UNL     1       7.957   4.315  -1.693  0.00  0.00    +0.165 A 
ATOM     18  N   UNL     1       7.266   4.593  -2.777  0.00  0.00    -0.233 NA
ATOM     19  C   UNL     1       7.796   5.293  -3.763  0.00  0.00    +0.120 A 
ATOM     20  C   UNL     1       9.078   5.707  -3.606  0.00  0.00    +0.068 A 
ATOM     21  S   UNL     1       9.445   5.045  -1.988  0.00  0.00    -0.061 S 
ATOM     22  H   UNL     1       8.169   3.469   0.166  0.00  0.00    +0.157 HD
ENDBRANCH   3  14
BRANCH   1  25
ATOM     23  C   UNL     1      -0.014   1.375  -0.012  0.00  0.00    +0.015 A 
ATOM     24  C   UNL     1       1.153   2.083  -0.006  0.00  0.00    +0.026 A 
ATOM     25  C   UNL     1       2.380   1.409  -0.024  0.00  0.00    +0.042 A 
ATOM     26  C   UNL     1       2.410   0.009  -0.047  0.00  0.00    +0.026 A 
ATOM     27  C   UNL     1       1.243  -0.698  -0.053  0.00  0.00    +0.015 A 
ATOM     28  C   UNL     1       0.017  -0.024  -0.035  0.00  0.00    +0.037 A 
BRANCH  28  29
ATOM     29  C   UNL     1      -1.244  -0.788  -0.042  0.00  0.00    +0.242 C 
ATOM     30  O   UNL     1      -2.310  -0.203  -0.027  0.00  0.00    -0.270 OA
ATOM     31  N   UNL     1      -1.215  -2.135  -0.064  0.00  0.00    -0.325 N 
ATOM     32  H   UNL     1      -0.365  -2.602  -0.076  0.00  0.00    +0.145 HD
ATOM     33  H   UNL     1      -2.044  -2.638  -0.068  0.00  0.00    +0.145 HD
ENDBRANCH  28  29
ENDBRANCH   1  25
TORSDOF 3
