REMARK  Name = ZINC44977808
REMARK  5 active torsions:
REMARK  status: ('A' for Active; 'I' for Inactive)
REMARK    1  A    between atoms: C_1  and  C_2
REMARK    2  A    between atoms: C_6  and  C_9
REMARK    3  A    between atoms: C_7  and  N_8
REMARK    4  A    between atoms: C_11  and  C_14
REMARK    5  A    between atoms: C_19  and  C_22
REMARK                            x       y       z     vdW  Elec       q    Type
REMARK                         _______ _______ _______ _____ _____    ______ ____
ROOT
ATOM      1  C   UNL     1       0.038  -2.821   2.477  0.00  0.00    +0.260 A 
ATOM      2  N   UNL     1      -0.045  -4.126   2.621  0.00  0.00    -0.191 NA
ATOM      3  C   UNL     1      -0.006  -4.445   3.916  0.00  0.00    +0.175 A 
ATOM      4  N   UNL     1       0.102  -3.355   4.622  0.00  0.00    -0.061 NA
ATOM      5  O   UNL     1       0.139  -2.274   3.702  0.00  0.00    -0.333 OA
ENDROOT
BRANCH   1  11
ATOM      6  C   UNL     1       1.970   0.688  -0.520  0.00  0.00    +0.045 C 
ATOM      7  C   UNL     1       0.957  -0.395  -0.252  0.00  0.00    -0.029 A 
ATOM      8  C   UNL     1       0.012  -0.707  -1.209  0.00  0.00    +0.005 A 
ATOM      9  C   UNL     1      -0.923  -1.701  -0.973  0.00  0.00    +0.001 A 
ATOM     10  C   UNL     1      -0.920  -2.390   0.221  0.00  0.00    +0.015 A 
ATOM     11  C   UNL     1       0.029  -2.087   1.198  0.00  0.00    +0.060 A 
ATOM     12  C   UNL     1       0.979  -1.083   0.953  0.00  0.00    +0.040 A 
BRANCH  12  13
ATOM     13  N   UNL     1       1.934  -0.775   1.917  0.00  0.00    -0.357 N 
ATOM     14  H   UNL     1       2.530  -0.021   1.785  0.00  0.00    +0.142 HD
ATOM     15  H   UNL     1       2.005  -1.315   2.720  0.00  0.00    +0.142 HD
ENDBRANCH  12  13
ENDBRANCH   1  11
BRANCH   3  16
ATOM     16  C   UNL     1      -0.077  -5.843   4.474  0.00  0.00    +0.061 C 
ATOM     17  C   UNL     1       1.194  -6.139   5.273  0.00  0.00    +0.011 C 
ATOM     18  C   UNL     1       1.122  -7.559   5.839  0.00  0.00    +0.001 C 
ATOM     19  C   UNL     1      -0.097  -7.681   6.756  0.00  0.00    +0.003 C 
ATOM     20  C   UNL     1      -1.368  -7.385   5.957  0.00  0.00    -0.013 C 
ATOM     21  C   UNL     1      -1.296  -5.966   5.390  0.00  0.00    +0.014 C 
ATOM     22  C   UNL     1      -2.587  -7.508   6.873  0.00  0.00    +0.007 C 
ENDBRANCH   3  16
TORSDOF 3
