REMARK  Name = ZINC05077195
REMARK  8 active torsions:
REMARK  status: ('A' for Active; 'I' for Inactive)
REMARK    1  A    between atoms: C_1  and  C_2
REMARK    2  A    between atoms: C_2  and  C_20
REMARK    3  A    between atoms: N_5  and  C_9
REMARK    4  A    between atoms: C_9  and  C_10
REMARK    5  A    between atoms: N_12  and  C_13
REMARK    6  A    between atoms: C_13  and  C_14
REMARK    7  A    between atoms: C_13  and  C_15
REMARK    8  A    between atoms: C_13  and  C_17
REMARK                            x       y       z     vdW  Elec       q    Type
REMARK                         _______ _______ _______ _____ _____    ______ ____
ROOT
ATOM      1  C   UNL     1      -1.811   2.336   1.456  0.00  0.00    +0.047 C 
ATOM      2  C   UNL     1      -1.333   2.113   0.020  0.00  0.00    +0.135 C 
ATOM      3  C   UNL     1      -2.373   1.354  -0.780  0.00  0.00    +0.251 C 
ATOM      4  O   UNL     1      -2.794   0.238  -0.563  0.00  0.00    -0.272 OA
ATOM      5  N   UNL     1      -2.732   2.178  -1.785  0.00  0.00    -0.215 N 
ATOM      6  C   UNL     1      -2.070   3.340  -1.731  0.00  0.00    +0.310 C 
ATOM      7  O   UNL     1      -2.224   4.243  -2.530  0.00  0.00    -0.252 OA
ATOM      8  N   UNL     1      -1.215   3.396  -0.693  0.00  0.00    -0.281 N 
ATOM      9  H   UNL     1      -0.635   4.138  -0.461  0.00  0.00    +0.152 HD
ENDROOT
BRANCH   2  10
ATOM     10  C   UNL     1      -0.017   1.378   0.010  0.00  0.00    -0.012 A 
ATOM     11  C   UNL     1       0.002  -0.004   0.002  0.00  0.00    +0.010 A 
ATOM     12  C   UNL     1       1.207  -0.681  -0.012  0.00  0.00    +0.050 A 
ATOM     13  C   UNL     1       2.401   0.025  -0.018  0.00  0.00    +0.162 A 
ATOM     14  C   UNL     1       2.382   1.415  -0.012  0.00  0.00    +0.162 A 
ATOM     15  C   UNL     1       1.169   2.088   0.002  0.00  0.00    +0.055 A 
ATOM     16  O   UNL     1       3.541   2.127  -0.022  0.00  0.00    -0.485 OA
ATOM     17  C   UNL     1       4.732   1.422   0.344  0.00  0.00    +0.270 C 
ATOM     18  C   UNL     1       4.747   0.082  -0.403  0.00  0.00    +0.270 C 
ATOM     19  O   UNL     1       3.579  -0.656  -0.024  0.00  0.00    -0.485 OA
ENDBRANCH   2  10
BRANCH   5  20
ATOM     20  C   UNL     1      -3.724   1.843  -2.809  0.00  0.00    +0.213 C 
BRANCH  20  21
ATOM     21  C   UNL     1      -3.037   1.181  -3.976  0.00  0.00    +0.232 C 
ATOM     22  O   UNL     1      -1.837   1.007  -3.954  0.00  0.00    -0.274 OA
ATOM     23  N   UNL     1      -3.756   0.784  -5.044  0.00  0.00    -0.296 N 
ATOM     24  H   UNL     1      -4.716   0.923  -5.062  0.00  0.00    +0.150 HD
BRANCH  23  25
ATOM     25  C   UNL     1      -3.088   0.140  -6.179  0.00  0.00    +0.121 C 
ATOM     26  C   UNL     1      -2.049   1.097  -6.768  0.00  0.00    +0.048 C 
BRANCH  25  27
ATOM     27  C   UNL     1      -4.124  -0.209  -7.249  0.00  0.00    +0.026 C 
ATOM     28  C   UNL     1      -4.334  -1.690  -7.571  0.00  0.00    +0.007 C 
ATOM     29  C   UNL     1      -3.609  -0.786  -8.569  0.00  0.00    +0.007 C 
ENDBRANCH  25  27
BRANCH  25  30
ATOM     30  C   UNL     1      -2.420  -1.089  -5.722  0.00  0.00    +0.088 C 
ATOM     31  N   UNL     1      -1.905  -2.038  -5.369  0.00  0.00    -0.194 NA
ENDBRANCH  25  30
ENDBRANCH  23  25
ENDBRANCH  20  21
ENDBRANCH   5  20
TORSDOF 6
