REMARK  Name = ZINC36674259
REMARK  8 active torsions:
REMARK  status: ('A' for Active; 'I' for Inactive)
REMARK    1  A    between atoms: C_1  and  N_2
REMARK    2  A    between atoms: N_2  and  C_3
REMARK    3  A    between atoms: N_2  and  C_4
REMARK    4  A    between atoms: C_4  and  C_6
REMARK    5  A    between atoms: C_4  and  C_27
REMARK    6  A    between atoms: C_6  and  N_7
REMARK    7  A    between atoms: C_8  and  C_10
REMARK    8  A    between atoms: N_15  and  C_17
REMARK                            x       y       z     vdW  Elec       q    Type
REMARK                         _______ _______ _______ _____ _____    ______ ____
ROOT
ATOM      1  N   UNL     1      -0.586  -2.743   1.174  0.00  0.00    -0.316 N 
ATOM      2  C   UNL     1      -0.525  -4.065   1.429  0.00  0.00    +0.218 C 
ATOM      3  O   UNL     1      -1.160  -4.843   0.749  0.00  0.00    -0.275 OA
ATOM      4  H   UNL     1      -0.079  -2.120   1.717  0.00  0.00    +0.149 HD
ENDROOT
BRANCH   2   5
ATOM      5  C   UNL     1       0.331  -4.575   2.559  0.00  0.00    +0.101 C 
ATOM      6  C   UNL     1       1.827  -4.291   2.292  0.00  0.00    +0.110 C 
ATOM      7  C   UNL     1       2.539  -5.510   2.836  0.00  0.00    +0.221 C 
ATOM      8  O   UNL     1       3.726  -5.571   3.077  0.00  0.00    -0.275 OA
ATOM      9  N   UNL     1       1.665  -6.516   3.012  0.00  0.00    -0.271 N 
ATOM     10  C   UNL     1       0.308  -6.119   2.617  0.00  0.00    +0.127 C 
BRANCH   9  11
ATOM     11  C   UNL     1       2.005  -7.780   3.511  0.00  0.00    +0.040 A 
ATOM     12  C   UNL     1       1.058  -8.795   3.534  0.00  0.00    +0.027 A 
ATOM     13  C   UNL     1       1.392 -10.041   4.026  0.00  0.00    +0.051 A 
ATOM     14  C   UNL     1       2.673 -10.284   4.499  0.00  0.00    +0.162 A 
ATOM     15  C   UNL     1       3.624  -9.270   4.475  0.00  0.00    +0.164 A 
ATOM     16  C   UNL     1       3.289  -8.020   3.978  0.00  0.00    +0.073 A 
ATOM     17  O   UNL     1       4.889  -9.491   4.927  0.00  0.00    -0.485 OA
ATOM     18  C   UNL     1       5.085 -10.642   5.756  0.00  0.00    +0.270 C 
ATOM     19  C   UNL     1       4.375 -11.833   5.099  0.00  0.00    +0.270 C 
ATOM     20  O   UNL     1       2.983 -11.518   4.984  0.00  0.00    -0.485 OA
ENDBRANCH   9  11
ENDBRANCH   2   5
BRANCH   1  21
ATOM     21  C   UNL     1      -1.419  -2.247   0.075  0.00  0.00    +0.093 C 
BRANCH  21  22
ATOM     22  C   UNL     1      -1.410  -0.717   0.080  0.00  0.00    -0.020 C 
BRANCH  22  23
ATOM     23  C   UNL     1      -0.023  -0.221  -0.237  0.00  0.00    -0.041 A 
ATOM     24  C   UNL     1       0.849   0.095   0.788  0.00  0.00    +0.003 A 
ATOM     25  C   UNL     1       2.122   0.550   0.497  0.00  0.00    +0.000 A 
ATOM     26  C   UNL     1       2.523   0.690  -0.818  0.00  0.00    +0.001 A 
ATOM     27  C   UNL     1       1.652   0.374  -1.844  0.00  0.00    +0.020 A 
ATOM     28  C   UNL     1       0.380  -0.086  -1.554  0.00  0.00    +0.043 A 
ATOM     29 CL   UNL     1      -0.713  -0.489  -2.841  0.00  0.00    -0.083 Cl
ENDBRANCH  22  23
BRANCH  22  31
ATOM     30  C   UNL     1      -1.910   1.237   1.380  0.00  0.00    -0.096 C 
ATOM     31  N   UNL     1      -1.814  -0.229   1.405  0.00  0.00    +0.382 N 
ATOM     32  C   UNL     1      -3.120  -0.799   1.760  0.00  0.00    -0.096 C 
ATOM     33  H   UNL     1      -1.127  -0.509   2.090  0.00  0.00    -0.082 HD
ENDBRANCH  22  31
ENDBRANCH  21  22
ENDBRANCH   1  21
TORSDOF 6
