REMARK  Name = ZINC45334178
REMARK  5 active torsions:
REMARK  status: ('A' for Active; 'I' for Inactive)
REMARK    1  A    between atoms: C_3  and  N_21
REMARK    2  A    between atoms: C_6  and  C_7
REMARK    3  A    between atoms: N_9  and  N_10
REMARK    4  A    between atoms: C_11  and  C_12
REMARK    5  A    between atoms: C_17  and  O_18
REMARK                            x       y       z     vdW  Elec       q    Type
REMARK                         _______ _______ _______ _____ _____    ______ ____
ROOT
ATOM      1  C   UNL     1      -1.265  -0.761   0.011  0.00  0.00    +0.263 C 
ATOM      2  O   UNL     1      -2.328  -0.169   0.024  0.00  0.00    -0.268 OA
ATOM      3  N   UNL     1      -1.245  -2.109   0.003  0.00  0.00    -0.203 N 
ATOM      4  H   UNL     1      -0.398  -2.581  -0.008  0.00  0.00    +0.178 HD
ENDROOT
BRANCH   1  10
ATOM      5  C   UNL     1      -0.017   1.393   0.010  0.00  0.00    +0.015 A 
ATOM      6  C   UNL     1       1.167   2.096   0.002  0.00  0.00    +0.028 A 
ATOM      7  C   UNL     1       2.381   1.417  -0.013  0.00  0.00    +0.069 A 
ATOM      8  C   UNL     1       2.404   0.027  -0.022  0.00  0.00    +0.028 A 
ATOM      9  C   UNL     1       1.223  -0.683  -0.014  0.00  0.00    +0.015 A 
ATOM     10  C   UNL     1       0.002  -0.004   0.002  0.00  0.00    +0.038 A 
BRANCH   7  11
ATOM     11  N   UNL     1       3.582   2.135  -0.022  0.00  0.00    -0.200 N 
ATOM     12  C   UNL     1       4.837   1.635  -0.042  0.00  0.00    +0.250 A 
ATOM     13  N   UNL     1       5.660   2.651  -0.043  0.00  0.00    -0.116 NA
ATOM     14  N   UNL     1       5.012   3.759  -0.025  0.00  0.00    -0.023 NA
ATOM     15  N   UNL     1       3.742   3.532  -0.016  0.00  0.00    -0.039 NA
ENDBRANCH   7  11
ENDBRANCH   1  10
BRANCH   3  16
ATOM     16  N   UNL     1      -2.448  -2.828   0.011  0.00  0.00    -0.187 NA
ATOM     17  C   UNL     1      -2.428  -4.126   0.004  0.00  0.00    +0.142 C 
BRANCH  17  18
ATOM     18  C   UNL     1      -3.693  -4.882   0.013  0.00  0.00    +0.038 A 
ATOM     19  C   UNL     1      -3.677  -6.279   0.011  0.00  0.00    +0.028 A 
ATOM     20  C   UNL     1      -4.864  -6.981   0.019  0.00  0.00    +0.020 A 
ATOM     21  C   UNL     1      -6.074  -6.306   0.029  0.00  0.00    +0.034 A 
ATOM     22  C   UNL     1      -6.103  -4.923   0.031  0.00  0.00    +0.061 A 
ATOM     23  C   UNL     1      -4.919  -4.203   0.028  0.00  0.00    +0.139 A 
ATOM     24 BR   UNL     1      -7.761  -4.014   0.045  0.00  0.00    -0.046 Br
ATOM     25 BR   UNL     1      -4.841  -8.871   0.016  0.00  0.00    -0.050 Br
BRANCH  23  26
ATOM     26  O   UNL     1      -4.947  -2.845   0.035  0.00  0.00    -0.505 OA
ATOM     27  H   UNL     1      -4.964  -2.447  -0.846  0.00  0.00    +0.292 HD
ENDBRANCH  23  26
ENDBRANCH  17  18
ENDBRANCH   3  16
TORSDOF 5
