REMARK  Name = ZINC39688056
REMARK  9 active torsions:
REMARK  status: ('A' for Active; 'I' for Inactive)
REMARK    1  A    between atoms: C_1  and  C_2
REMARK    2  A    between atoms: C_2  and  C_3
REMARK    3  A    between atoms: C_3  and  C_4
REMARK    4  A    between atoms: C_4  and  C_5
REMARK    5  A    between atoms: C_5  and  C_7
REMARK    6  A    between atoms: C_5  and  C_8
REMARK    7  A    between atoms: C_12  and  C_21
REMARK    8  A    between atoms: N_23  and  C_24
REMARK    9  A    between atoms: C_30  and  C_32
REMARK                            x       y       z     vdW  Elec       q    Type
REMARK                         _______ _______ _______ _____ _____    ______ ____
ROOT
ATOM      1  C   UNL     1       1.074  -3.919  -2.715  0.00  0.00    +0.218 C 
ATOM      2  O   UNL     1       0.368  -4.580  -1.984  0.00  0.00    -0.275 OA
ATOM      3  N   UNL     1       1.825  -4.525  -3.655  0.00  0.00    -0.300 N 
ATOM      4  C   UNL     1       2.826  -3.906  -4.556  0.00  0.00    +0.121 C 
ATOM      5  C   UNL     1       3.977  -4.935  -4.626  0.00  0.00    +0.100 C 
ATOM      6  C   UNL     1       3.322  -6.282  -4.277  0.00  0.00    -0.004 C 
ATOM      7  C   UNL     1       1.842  -5.963  -4.018  0.00  0.00    +0.115 C 
ATOM      8  C   UNL     1       3.458  -7.254  -5.444  0.00  0.00    -0.010 C 
ATOM      9  C   UNL     1       2.850  -8.604  -5.051  0.00  0.00    -0.082 C 
ATOM     10  N   UNL     1       3.543  -9.129  -3.868  0.00  0.00    +0.379 N 
ATOM     11  C   UNL     1       3.329  -8.233  -2.725  0.00  0.00    -0.082 C 
ATOM     12  C   UNL     1       3.957  -6.868  -3.019  0.00  0.00    -0.010 C 
ATOM     13  H   UNL     1       3.182 -10.045  -3.648  0.00  0.00    -0.086 HD
ATOM     14  H   UNL     1       4.531  -9.196  -4.061  0.00  0.00    -0.086 HD
ENDROOT
BRANCH   5  15
ATOM     15  C   UNL     1       5.048  -4.593  -3.622  0.00  0.00    +0.218 C 
ATOM     16  O   UNL     1       4.766  -3.960  -2.627  0.00  0.00    -0.275 OA
ATOM     17  N   UNL     1       6.318  -4.991  -3.830  0.00  0.00    -0.312 N 
ATOM     18  H   UNL     1       6.544  -5.497  -4.626  0.00  0.00    +0.149 HD
BRANCH  17  19
ATOM     19  C   UNL     1       7.359  -4.659  -2.854  0.00  0.00    +0.076 C 
ATOM     20  C   UNL     1       7.903  -3.258  -3.145  0.00  0.00    +0.041 C 
ATOM     21  C   UNL     1       8.966  -2.901  -2.102  0.00  0.00    +0.109 C 
ATOM     22  N   UNL     1       9.989  -3.955  -2.089  0.00  0.00    -0.302 N 
ATOM     23  C   UNL     1       9.565  -5.350  -1.907  0.00  0.00    +0.109 C 
ATOM     24  C   UNL     1       8.495  -5.680  -2.952  0.00  0.00    +0.041 C 
ATOM     25  C   UNL     1      11.293  -3.648  -2.242  0.00  0.00    +0.212 C 
ATOM     26  O   UNL     1      11.631  -2.493  -2.392  0.00  0.00    -0.276 OA
ATOM     27  C   UNL     1      12.331  -4.741  -2.226  0.00  0.00    +0.109 C 
ENDBRANCH  17  19
ENDBRANCH   5  15
BRANCH   1  28
ATOM     28  C   UNL     1       1.111  -2.419  -2.573  0.00  0.00    +0.072 C 
ATOM     29  C   UNL     1       0.956  -2.043  -1.098  0.00  0.00    +0.017 C 
BRANCH  28  30
ATOM     30  C   UNL     1      -0.034  -1.802  -3.379  0.00  0.00    +0.012 C 
BRANCH  30  31
ATOM     31  C   UNL     1       0.077  -0.277  -3.337  0.00  0.00    +0.000 C 
BRANCH  31  33
ATOM     32  C   UNL     1      -0.956   1.866  -4.100  0.00  0.00    +0.004 C 
ATOM     33  C   UNL     1      -1.067   0.341  -4.143  0.00  0.00    -0.003 C 
ENDBRANCH  31  33
ENDBRANCH  30  31
ENDBRANCH  28  30
ENDBRANCH   1  28
TORSDOF 6
