REMARK  Name = ZINC64138795
REMARK  2 active torsions:
REMARK  status: ('A' for Active; 'I' for Inactive)
REMARK    1  A    between atoms: C_6  and  C_7
REMARK    2  A    between atoms: C_8  and  C_12
REMARK                            x       y       z     vdW  Elec       q    Type
REMARK                         _______ _______ _______ _____ _____    ______ ____
ROOT
ATOM      1  C   UNL     1      -0.249  -3.109  -0.222  0.00  0.00    +0.195 C 
ATOM      2  N   UNL     1      -0.369  -4.149   0.824  0.00  0.00    -0.297 N 
ATOM      3  C   UNL     1      -1.301  -5.155   0.630  0.00  0.00    +0.155 C 
ATOM      4  N   UNL     1      -1.382  -5.744  -0.626  0.00  0.00    -0.285 N 
ATOM      5  C   UNL     1      -1.397  -4.824  -1.777  0.00  0.00    +0.255 C 
ATOM      6  N   UNL     1      -0.353  -3.811  -1.506  0.00  0.00    -0.272 N 
ATOM      7  C   UNL     1       0.458  -3.725  -2.636  0.00  0.00    +0.059 A 
ATOM      8  C   UNL     1       1.475  -2.833  -2.965  0.00  0.00    +0.074 A 
ATOM      9  C   UNL     1       2.157  -2.971  -4.161  0.00  0.00    +0.164 A 
ATOM     10  C   UNL     1       1.828  -3.995  -5.037  0.00  0.00    +0.164 A 
ATOM     11  C   UNL     1       0.813  -4.880  -4.721  0.00  0.00    +0.074 A 
ATOM     12  C   UNL     1       0.120  -4.745  -3.524  0.00  0.00    +0.055 A 
ATOM     13  N   UNL     1      -0.979  -5.498  -3.006  0.00  0.00    -0.309 N 
ATOM     14  O   UNL     1       2.512  -4.122  -6.213  0.00  0.00    -0.488 OA
ATOM     15  C   UNL     1       2.297  -3.089  -7.176  0.00  0.00    +0.232 C 
ATOM     16  C   UNL     1       3.207  -1.901  -6.905  0.00  0.00    +0.082 C 
ATOM     17  C   UNL     1       2.894  -1.222  -5.580  0.00  0.00    +0.232 C 
ATOM     18  O   UNL     1       3.159  -2.102  -4.486  0.00  0.00    -0.488 OA
ATOM     19  N   UNL     1      -2.081  -5.540   1.601  0.00  0.00    -0.375 N 
ATOM     20  H   UNL     1       0.187  -4.126   1.619  0.00  0.00    +0.151 HD
ATOM     21  H   UNL     1      -1.372  -6.300  -3.385  0.00  0.00    +0.149 HD
ATOM     22  H   UNL     1      -2.013  -5.120   2.473  0.00  0.00    +0.158 HD
ATOM     23  H   UNL     1      -1.428  -6.706  -0.738  0.00  0.00    +0.152 HD
ATOM     24  H   UNL     1      -2.729  -6.245   1.451  0.00  0.00    +0.158 HD
ENDROOT
BRANCH   1  26
ATOM     25  C   UNL     1      -1.271  -0.766   0.014  0.00  0.00    +0.097 C 
ATOM     26  C   UNL     1      -1.366  -2.106  -0.087  0.00  0.00    +0.019 C 
ATOM     27  C   UNL     1      -2.860  -2.370  -0.033  0.00  0.00    +0.202 C 
ATOM     28  N   UNL     1      -3.434  -1.021   0.102  0.00  0.00    -0.182 NA
ATOM     29  N   UNL     1      -2.506  -0.210   0.126  0.00  0.00    -0.154 NA
BRANCH  25  35
ATOM     30  C   UNL     1       0.141   1.122  -0.798  0.00  0.00    +0.011 A 
ATOM     31  C   UNL     1       1.327   1.827  -0.798  0.00  0.00    +0.020 A 
ATOM     32  C   UNL     1       2.379   1.417   0.004  0.00  0.00    +0.041 A 
ATOM     33  C   UNL     1       2.246   0.298   0.809  0.00  0.00    +0.020 A 
ATOM     34  C   UNL     1       1.064  -0.414   0.815  0.00  0.00    +0.011 A 
ATOM     35  C   UNL     1       0.003  -0.005   0.010  0.00  0.00    +0.002 A 
ATOM     36 CL   UNL     1       3.869   2.308   0.000  0.00  0.00    -0.084 Cl
ENDBRANCH  25  35
ENDBRANCH   1  26
TORSDOF 2
