REMARK  Name = ZINC17077539
REMARK  10 active torsions:
REMARK  status: ('A' for Active; 'I' for Inactive)
REMARK    1  A    between atoms: C_1  and  C_2
REMARK    2  A    between atoms: C_2  and  C_3
REMARK    3  A    between atoms: C_3  and  C_4
REMARK    4  A    between atoms: N_6  and  C_20
REMARK    5  A    between atoms: C_7  and  O_8
REMARK    6  A    between atoms: C_9  and  C_10
REMARK    7  A    between atoms: C_10  and  C_11
REMARK    8  A    between atoms: N_12  and  C_13
REMARK    9  A    between atoms: C_14  and  C_19
REMARK   10  A    between atoms: C_23  and  N_26
REMARK                            x       y       z     vdW  Elec       q    Type
REMARK                         _______ _______ _______ _____ _____    ______ ____
ROOT
ATOM      1  C   UNL     1      -1.562  -2.246  -0.144  0.00  0.00    +0.076 A 
ATOM      2  N   UNL     1      -1.514  -3.155  -1.077  0.00  0.00    -0.168 NA
ATOM      3  N   UNL     1      -1.338  -4.412  -0.488  0.00  0.00    -0.200 N 
ATOM      4  C   UNL     1      -1.277  -4.252   0.852  0.00  0.00    +0.225 A 
ATOM      5  C   UNL     1      -1.409  -2.890   1.108  0.00  0.00    +0.080 A 
ENDROOT
BRANCH   3   6
ATOM      6  C   UNL     1      -1.240  -5.631  -1.172  0.00  0.00    +0.069 A 
ATOM      7  C   UNL     1      -0.409  -6.634  -0.692  0.00  0.00    +0.030 A 
ATOM      8  C   UNL     1      -0.315  -7.834  -1.368  0.00  0.00    +0.035 A 
ATOM      9  C   UNL     1      -1.048  -8.037  -2.524  0.00  0.00    +0.126 A 
ATOM     10  C   UNL     1      -1.876  -7.040  -3.005  0.00  0.00    +0.035 A 
ATOM     11  C   UNL     1      -1.979  -5.840  -2.329  0.00  0.00    +0.030 A 
BRANCH   9  12
ATOM     12  N   UNL     1      -0.944  -9.325  -3.247  0.00  0.00    +0.056 N 
ATOM     13  O   UNL     1      -0.220 -10.197  -2.827  0.00  0.00    -0.126 OA
ATOM     14  O   UNL     1      -1.584  -9.503  -4.257  0.00  0.00    -0.126 OA
ENDBRANCH   9  12
ENDBRANCH   3   6
BRANCH   5  15
ATOM     15  C   UNL     1      -1.397  -2.245   2.424  0.00  0.00    +0.055 C 
ATOM     16  C   UNL     1      -0.096  -1.770   3.017  0.00  0.00    +0.066 C 
ATOM     17  N   UNL     1      -2.514  -2.083   3.083  0.00  0.00    -0.232 NA
BRANCH  17  18
ATOM     18  C   UNL     1      -2.519  -1.387   4.258  0.00  0.00    +0.156 A 
ATOM     19  C   UNL     1      -2.443  -2.075   5.473  0.00  0.00    -0.006 A 
ATOM     20  C   UNL     1      -2.449  -1.355   6.653  0.00  0.00    +0.008 A 
ATOM     21  C   UNL     1      -2.530   0.030   6.585  0.00  0.00    +0.020 A 
ATOM     22  C   UNL     1      -2.602   0.647   5.351  0.00  0.00    +0.113 A 
ATOM     23  N   UNL     1      -2.590  -0.060   4.239  0.00  0.00    -0.236 NA
ATOM     24  C   UNL     1      -2.357  -3.579   5.495  0.00  0.00    +0.047 C 
ENDBRANCH  17  18
ENDBRANCH   5  15
BRANCH   4  25
ATOM     25  O   UNL     1      -1.113  -5.231   1.772  0.00  0.00    -0.492 OA
ATOM     26  H   UNL     1      -0.188  -5.417   1.987  0.00  0.00    +0.294 HD
ENDBRANCH   4  25
BRANCH   1  27
ATOM     27  C   UNL     1      -1.742  -0.766  -0.360  0.00  0.00    +0.058 C 
BRANCH  27  29
ATOM     28  C   UNL     1      -0.555   1.399  -0.746  0.00  0.00    +0.004 C 
ATOM     29  C   UNL     1      -0.372  -0.104  -0.525  0.00  0.00    +0.003 C 
ENDBRANCH  27  29
ENDBRANCH   1  27
TORSDOF 7
