REMARK  Name = ZINC32533089
REMARK  6 active torsions:
REMARK  status: ('A' for Active; 'I' for Inactive)
REMARK    1  A    between atoms: C_1  and  N_2
REMARK    2  A    between atoms: C_5  and  C_7
REMARK    3  A    between atoms: C_15  and  N_19
REMARK    4  A    between atoms: N_19  and  C_20
REMARK    5  A    between atoms: C_20  and  C_21
REMARK    6  A    between atoms: C_21  and  N_27
REMARK                            x       y       z     vdW  Elec       q    Type
REMARK                         _______ _______ _______ _____ _____    ______ ____
ROOT
ATOM      1  C   UNL     1      -0.187   1.466  -0.012  0.00  0.00    +0.172 C 
ATOM      2  N   UNL     1      -0.244   0.002  -0.030  0.00  0.00    -0.270 N 
ATOM      3  C   UNL     1      -0.195  -0.757  -1.137  0.00  0.00    +0.043 A 
ATOM      4  C   UNL     1      -0.273  -2.051  -0.740  0.00  0.00    +0.004 A 
ATOM      5  C   UNL     1      -0.373  -2.020   0.661  0.00  0.00    +0.151 A 
ATOM      6  N   UNL     1      -0.343  -0.746   1.014  0.00  0.00    -0.166 NA
ATOM      7  C   UNL     1      -0.248  -3.233  -1.670  0.00  0.00    +0.023 C 
ATOM      8  C   UNL     1       0.279  -2.762  -3.033  0.00  0.00    -0.067 C 
ATOM      9  C   UNL     1      -0.481  -1.506  -3.469  0.00  0.00    -0.009 C 
ATOM     10  C   UNL     1      -0.079  -0.325  -2.576  0.00  0.00    +0.054 C 
ENDROOT
BRANCH   5  11
ATOM     11  C   UNL     1      -0.485  -3.183   1.563  0.00  0.00    +0.267 C 
ATOM     12  O   UNL     1      -0.496  -4.309   1.105  0.00  0.00    -0.268 OA
ATOM     13  N   UNL     1      -0.574  -2.997   2.895  0.00  0.00    -0.296 N 
ATOM     14  C   UNL     1      -0.579  -1.696   3.580  0.00  0.00    +0.108 C 
ATOM     15  C   UNL     1      -0.671  -1.976   5.095  0.00  0.00    +0.020 C 
ATOM     16  C   UNL     1      -0.143  -3.430   5.212  0.00  0.00    +0.020 C 
ATOM     17  C   UNL     1      -0.690  -4.064   3.906  0.00  0.00    +0.108 C 
ENDBRANCH   5  11
BRANCH   8  18
ATOM     18  N   UNL     1       0.079  -3.825  -4.028  0.00  0.00    +0.380 N 
ATOM     19  H   UNL     1       0.511  -4.676  -3.702  0.00  0.00    -0.086 HD
ATOM     20  H   UNL     1      -0.909  -3.979  -4.162  0.00  0.00    -0.086 HD
BRANCH  18  21
ATOM     21  C   UNL     1       0.690  -3.423  -5.302  0.00  0.00    -0.095 C 
BRANCH  21  22
ATOM     22  C   UNL     1       0.603  -4.582  -6.297  0.00  0.00    -0.081 C 
ATOM     23  C   UNL     1       1.353  -4.212  -7.578  0.00  0.00    -0.014 C 
ATOM     24  C   UNL     1       0.722  -2.962  -8.195  0.00  0.00    -0.001 C 
ATOM     25  C   UNL     1      -0.745  -3.241  -8.526  0.00  0.00    -0.000 C 
ATOM     26  C   UNL     1      -1.495  -3.611  -7.245  0.00  0.00    -0.001 C 
ATOM     27  C   UNL     1      -0.865  -4.861  -6.628  0.00  0.00    -0.014 C 
BRANCH  22  28
ATOM     28  N   UNL     1       1.208  -5.782  -5.705  0.00  0.00    +0.382 N 
ATOM     29  C   UNL     1       2.585  -5.482  -5.294  0.00  0.00    -0.078 C 
ATOM     30  C   UNL     1       3.194  -6.704  -4.603  0.00  0.00    -0.019 C 
ATOM     31  C   UNL     1       3.196  -7.886  -5.577  0.00  0.00    -0.004 C 
ATOM     32  C   UNL     1       1.764  -8.143  -6.056  0.00  0.00    -0.019 C 
ATOM     33  C   UNL     1       1.209  -6.867  -6.693  0.00  0.00    -0.078 C 
ATOM     34  H   UNL     1       0.673  -6.064  -4.897  0.00  0.00    -0.081 HD
ENDBRANCH  22  28
ENDBRANCH  21  22
ENDBRANCH  18  21
ENDBRANCH   8  18
TORSDOF 5
