REMARK  Name = ZINC40394889
REMARK  13 active torsions:
REMARK  status: ('A' for Active; 'I' for Inactive)
REMARK    1  A    between atoms: C_1  and  C_2
REMARK    2  A    between atoms: C_2  and  O_3
REMARK    3  A    between atoms: O_3  and  C_4
REMARK    4  A    between atoms: C_4  and  C_6
REMARK    5  A    between atoms: C_4  and  C_30
REMARK    6  A    between atoms: N_14  and  C_24
REMARK    7  A    between atoms: C_16  and  C_17
REMARK    8  A    between atoms: C_20  and  O_23
REMARK    9  A    between atoms: C_30  and  C_32
REMARK   10  A    between atoms: C_30  and  O_37
REMARK   11  A    between atoms: C_32  and  C_34
REMARK   12  A    between atoms: C_32  and  O_36
REMARK   13  A    between atoms: C_34  and  O_35
REMARK                            x       y       z     vdW  Elec       q    Type
REMARK                         _______ _______ _______ _____ _____    ______ ____
ROOT
ATOM      1  C   UNL     1       1.052  -2.130  -2.700  0.00  0.00    -0.002 C 
ATOM      2  C   UNL     1       0.206  -2.995  -3.248  0.00  0.00    -0.006 C 
ATOM      3  C   UNL     1       0.363  -3.348  -4.712  0.00  0.00    +0.107 C 
ATOM      4  C   UNL     1       1.531  -2.665  -5.465  0.00  0.00    +0.226 C 
ATOM      5  N   UNL     1       2.387  -1.758  -4.691  0.00  0.00    -0.266 NA
ATOM      6  C   UNL     1       2.128  -1.496  -3.456  0.00  0.00    +0.113 C 
ATOM      7  N   UNL     1       0.852  -1.857  -6.489  0.00  0.00    -0.199 N 
ATOM      8  N   UNL     1      -0.525  -2.032  -6.365  0.00  0.00    -0.181 NA
ATOM      9  C   UNL     1      -0.879  -2.847  -5.413  0.00  0.00    +0.077 C 
ENDROOT
BRANCH   9  10
ATOM     10  C   UNL     1      -2.261  -3.221  -5.063  0.00  0.00    -0.001 A 
ATOM     11  C   UNL     1      -2.503  -4.101  -4.004  0.00  0.00    +0.013 A 
ATOM     12  C   UNL     1      -3.797  -4.447  -3.680  0.00  0.00    +0.046 A 
ATOM     13  C   UNL     1      -4.860  -3.924  -4.405  0.00  0.00    +0.117 A 
ATOM     14  C   UNL     1      -4.625  -3.050  -5.458  0.00  0.00    +0.046 A 
ATOM     15  C   UNL     1      -3.334  -2.693  -5.786  0.00  0.00    +0.013 A 
BRANCH  13  16
ATOM     16  O   UNL     1      -6.134  -4.268  -4.082  0.00  0.00    -0.507 OA
ATOM     17  H   UNL     1      -6.546  -3.684  -3.431  0.00  0.00    +0.292 HD
ENDBRANCH  13  16
ENDBRANCH   9  10
BRANCH   7  18
ATOM     18  C   UNL     1       1.483  -1.047  -7.433  0.00  0.00    +0.054 A 
ATOM     19  C   UNL     1       2.870  -0.959  -7.459  0.00  0.00    +0.025 A 
ATOM     20  C   UNL     1       3.492  -0.156  -8.394  0.00  0.00    +0.002 A 
ATOM     21  C   UNL     1       2.736   0.561  -9.304  0.00  0.00    +0.000 A 
ATOM     22  C   UNL     1       1.356   0.477  -9.280  0.00  0.00    +0.002 A 
ATOM     23  C   UNL     1       0.728  -0.329  -8.352  0.00  0.00    +0.025 A 
ENDBRANCH   7  18
BRANCH   1  24
ATOM     24  C   UNL     1       0.890  -1.783  -1.242  0.00  0.00    +0.180 C 
BRANCH  24  25
ATOM     25  O   UNL     1       0.765  -0.367  -1.100  0.00  0.00    -0.370 OA
BRANCH  25  27
ATOM     26  C   UNL     1      -0.353   1.565  -0.173  0.00  0.00    +0.034 C 
ATOM     27  C   UNL     1      -0.363   0.042  -0.325  0.00  0.00    +0.157 C 
ENDBRANCH  25  27
ENDBRANCH  24  25
BRANCH  24  28
ATOM     28  C   UNL     1       2.116  -2.268  -0.464  0.00  0.00    +0.178 C 
BRANCH  28  29
ATOM     29  O   UNL     1       2.252  -3.681  -0.622  0.00  0.00    -0.386 OA
ATOM     30  H   UNL     1       1.493  -4.188  -0.303  0.00  0.00    +0.210 HD
ENDBRANCH  28  29
BRANCH  28  31
ATOM     31  C   UNL     1       1.942  -1.935   1.019  0.00  0.00    +0.171 C 
BRANCH  31  32
ATOM     32  O   UNL     1       0.705  -2.476   1.487  0.00  0.00    -0.387 OA
ATOM     33  H   UNL     1       0.638  -3.437   1.401  0.00  0.00    +0.210 HD
ENDBRANCH  31  32
BRANCH  31  34
ATOM     34  C   UNL     1       3.098  -2.542   1.817  0.00  0.00    +0.189 C 
BRANCH  34  35
ATOM     35  O   UNL     1       3.000  -2.134   3.183  0.00  0.00    -0.392 OA
ATOM     36  H   UNL     1       3.703  -2.482   3.748  0.00  0.00    +0.210 HD
ENDBRANCH  34  35
ENDBRANCH  31  34
ENDBRANCH  28  31
ENDBRANCH  24  28
ENDBRANCH   1  24
TORSDOF 12
