REMARK  Name = ZINC15069247
REMARK  11 active torsions:
REMARK  status: ('A' for Active; 'I' for Inactive)
REMARK    1  A    between atoms: C_1  and  C_2
REMARK    2  A    between atoms: C_2  and  C_3
REMARK    3  A    between atoms: C_3  and  C_5
REMARK    4  A    between atoms: C_3  and  N_6
REMARK    5  A    between atoms: C_8  and  C_24
REMARK    6  A    between atoms: C_11  and  C_13
REMARK    7  A    between atoms: N_15  and  C_16
REMARK    8  A    between atoms: C_16  and  C_17
REMARK    9  A    between atoms: C_17  and  O_23
REMARK   10  A    between atoms: N_26  and  C_27
REMARK   11  A    between atoms: C_27  and  C_28
REMARK                            x       y       z     vdW  Elec       q    Type
REMARK                         _______ _______ _______ _____ _____    ______ ____
ROOT
ATOM      1  N   UNL     1      -3.636  -0.778   0.033  0.00  0.00    -0.349 N 
ATOM      2  C   UNL     1      -2.475  -0.103   0.025  0.00  0.00    +0.102 A 
ATOM      3  C   UNL     1      -1.263  -0.758   0.010  0.00  0.00    +0.100 A 
ATOM      4  C   UNL     1      -1.265  -2.230  -0.004  0.00  0.00    +0.206 A 
ATOM      5  O   UNL     1      -0.225  -2.867  -0.023  0.00  0.00    -0.286 OA
ATOM      6  C   UNL     1      -2.576  -2.901   0.012  0.00  0.00    +0.100 A 
ATOM      7  C   UNL     1      -3.710  -2.120   0.027  0.00  0.00    +0.102 A 
ENDROOT
BRANCH   6   8
ATOM      8  C   UNL     1      -2.671  -4.371   0.006  0.00  0.00    +0.249 C 
ATOM      9  O   UNL     1      -1.660  -5.046  -0.007  0.00  0.00    -0.270 OA
ATOM     10  N   UNL     1      -3.880  -4.968   0.015  0.00  0.00    -0.308 N 
ATOM     11  H   UNL     1      -4.687  -4.429   0.026  0.00  0.00    +0.149 HD
BRANCH  10  12
ATOM     12  C   UNL     1      -3.975  -6.430   0.009  0.00  0.00    +0.139 C 
BRANCH  12  13
ATOM     13  C   UNL     1      -5.448  -6.845   0.022  0.00  0.00    +0.081 C 
ATOM     14  C   UNL     1      -6.151  -6.192   1.214  0.00  0.00    +0.036 C 
ATOM     15  C   UNL     1      -7.624  -6.607   1.227  0.00  0.00    +0.003 C 
ATOM     16  C   UNL     1      -7.724  -8.130   1.346  0.00  0.00    +0.000 C 
ATOM     17  C   UNL     1      -7.020  -8.782   0.154  0.00  0.00    +0.003 C 
ATOM     18  C   UNL     1      -5.548  -8.367   0.142  0.00  0.00    +0.036 C 
BRANCH  13  19
ATOM     19  O   UNL     1      -6.073  -6.420  -1.191  0.00  0.00    -0.387 OA
ATOM     20  H   UNL     1      -6.047  -5.464  -1.333  0.00  0.00    +0.210 HD
ENDBRANCH  13  19
ENDBRANCH  12  13
ENDBRANCH  10  12
ENDBRANCH   6   8
BRANCH   3  21
ATOM     21  C   UNL     1       0.002  -0.004   0.002  0.00  0.00    +0.250 C 
ATOM     22  O   UNL     1       1.063  -0.598  -0.011  0.00  0.00    -0.270 OA
ATOM     23  N   UNL     1      -0.016   1.344   0.009  0.00  0.00    -0.304 N 
ATOM     24  H   UNL     1      -0.863   1.817   0.016  0.00  0.00    +0.149 HD
BRANCH  23  25
ATOM     25  C   UNL     1       1.242   2.093   0.001  0.00  0.00    +0.179 C 
BRANCH  25  26
ATOM     26  C   UNL     1       0.947   3.571   0.012  0.00  0.00    +0.122 A 
ATOM     27  C   UNL     1       0.803   4.337   1.109  0.00  0.00    +0.046 A 
ATOM     28  C   UNL     1       0.537   5.650   0.659  0.00  0.00    +0.041 A 
ATOM     29  C   UNL     1       0.533   5.609  -0.685  0.00  0.00    +0.195 A 
ATOM     30  O   UNL     1       0.788   4.348  -1.072  0.00  0.00    -0.466 OA
ENDBRANCH  25  26
ENDBRANCH  23  25
ENDBRANCH   3  21
BRANCH   1  31
ATOM     31  C   UNL     1      -4.886  -0.014   0.050  0.00  0.00    +0.083 C 
ATOM     32  C   UNL     1      -4.957   0.875  -1.194  0.00  0.00    +0.031 C 
BRANCH  31  34
ATOM     33  C   UNL     1      -6.287   1.564   1.387  0.00  0.00    +0.006 C 
ATOM     34  C   UNL     1      -4.931   0.861   1.305  0.00  0.00    +0.021 C 
ENDBRANCH  31  34
ENDBRANCH   1  31
TORSDOF 9
