REMARK  Name = ZINC39637429
REMARK  8 active torsions:
REMARK  status: ('A' for Active; 'I' for Inactive)
REMARK    1  A    between atoms: C_1  and  C_2
REMARK    2  A    between atoms: C_2  and  N_3
REMARK    3  A    between atoms: C_4  and  C_10
REMARK    4  A    between atoms: C_6  and  C_8
REMARK    5  A    between atoms: C_14  and  C_23
REMARK    6  A    between atoms: N_25  and  C_26
REMARK    7  A    between atoms: C_31  and  C_36
REMARK    8  A    between atoms: C_33  and  C_35
REMARK                            x       y       z     vdW  Elec       q    Type
REMARK                         _______ _______ _______ _____ _____    ______ ____
ROOT
ATOM      1  C   UNL     1      -1.787  -0.488   2.704  0.00  0.00    +0.266 C 
ATOM      2  O   UNL     1      -2.573  -0.827   3.567  0.00  0.00    -0.268 OA
ATOM      3  N   UNL     1      -0.618   0.089   3.045  0.00  0.00    -0.295 N 
ATOM      4  C   UNL     1       0.500   0.474   2.152  0.00  0.00    +0.121 C 
ATOM      5  C   UNL     1       0.999   1.825   2.711  0.00  0.00    +0.100 C 
ATOM      6  C   UNL     1       0.564   1.824   4.186  0.00  0.00    -0.004 C 
ATOM      7  C   UNL     1      -0.163   0.489   4.399  0.00  0.00    +0.115 C 
ATOM      8  C   UNL     1      -0.388   2.985   4.458  0.00  0.00    -0.010 C 
ATOM      9  C   UNL     1      -0.761   2.997   5.943  0.00  0.00    -0.082 C 
ATOM     10  N   UNL     1       0.454   3.135   6.753  0.00  0.00    +0.379 N 
ATOM     11  C   UNL     1       1.323   1.968   6.557  0.00  0.00    -0.082 C 
ATOM     12  C   UNL     1       1.784   1.913   5.098  0.00  0.00    -0.010 C 
ATOM     13  H   UNL     1       0.948   3.970   6.477  0.00  0.00    -0.086 HD
ATOM     14  H   UNL     1       0.201   3.204   7.728  0.00  0.00    -0.086 HD
ENDROOT
BRANCH   1  16
ATOM     15  N   UNL     1      -2.611   0.211   0.406  0.00  0.00    -0.258 N 
ATOM     16  C   UNL     1      -2.112  -0.708   1.286  0.00  0.00    +0.138 A 
ATOM     17  C   UNL     1      -1.973  -1.888   0.575  0.00  0.00    +0.071 A 
ATOM     18  C   UNL     1      -2.409  -1.593  -0.720  0.00  0.00    +0.075 A 
ATOM     19  N   UNL     1      -2.776  -0.337  -0.744  0.00  0.00    -0.175 NA
ATOM     20  C   UNL     1      -2.455  -2.552  -1.881  0.00  0.00    +0.069 C 
ATOM     21 BR   UNL     1      -1.329  -3.546   1.217  0.00  0.00    -0.046 Br
BRANCH  15  23
ATOM     22  C   UNL     1      -4.327   1.696   1.319  0.00  0.00    +0.029 C 
ATOM     23  C   UNL     1      -2.919   1.607   0.728  0.00  0.00    +0.141 C 
ENDBRANCH  15  23
ENDBRANCH   1  16
BRANCH   5  24
ATOM     24  C   UNL     1       2.499   1.916   2.604  0.00  0.00    +0.218 C 
ATOM     25  O   UNL     1       3.168   0.904   2.592  0.00  0.00    -0.275 OA
ATOM     26  N   UNL     1       3.098   3.121   2.523  0.00  0.00    -0.312 N 
ATOM     27  H   UNL     1       2.571   3.931   2.609  0.00  0.00    +0.149 HD
BRANCH  26  28
ATOM     28  C   UNL     1       4.544   3.207   2.303  0.00  0.00    +0.076 C 
ATOM     29  C   UNL     1       5.271   3.101   3.645  0.00  0.00    +0.022 C 
ATOM     30  C   UNL     1       6.780   3.191   3.416  0.00  0.00    +0.002 C 
ATOM     31  C   UNL     1       7.117   4.530   2.758  0.00  0.00    +0.003 C 
ATOM     32  C   UNL     1       6.390   4.637   1.416  0.00  0.00    -0.009 C 
ATOM     33  C   UNL     1       4.880   4.547   1.645  0.00  0.00    +0.009 C 
ATOM     34  C   UNL     1       4.434   5.690   2.559  0.00  0.00    +0.009 C 
ATOM     35  C   UNL     1       6.727   5.977   0.758  0.00  0.00    +0.008 C 
ENDBRANCH  26  28
ENDBRANCH   5  24
TORSDOF 4
