REMARK  Name = ZINC51118760
REMARK  4 active torsions:
REMARK  status: ('A' for Active; 'I' for Inactive)
REMARK    1  A    between atoms: C_1  and  C_2
REMARK    2  A    between atoms: C_2  and  N_9
REMARK    3  A    between atoms: C_10  and  C_12
REMARK    4  A    between atoms: N_18  and  N_19
REMARK                            x       y       z     vdW  Elec       q    Type
REMARK                         _______ _______ _______ _____ _____    ______ ____
ROOT
ATOM      1  N   UNL     1       0.731  -0.456  -1.186  0.00  0.00    -0.304 N 
ATOM      2  C   UNL     1       0.300  -0.105  -2.414  0.00  0.00    +0.246 C 
ATOM      3  O   UNL     1      -0.693   0.586  -2.536  0.00  0.00    -0.270 OA
ATOM      4  H   UNL     1       1.523  -1.007  -1.089  0.00  0.00    +0.150 HD
ENDROOT
BRANCH   1   6
ATOM      5  C   UNL     1      -0.019   1.526   0.010  0.00  0.00    +0.033 C 
ATOM      6  C   UNL     1       0.002  -0.004   0.002  0.00  0.00    +0.053 C 
ATOM      7  C   UNL     1      -1.436  -0.513  -0.087  0.00  0.00    +0.049 C 
ATOM      8  C   UNL     1      -1.556  -1.909   0.586  0.00  0.00    +0.168 C 
ATOM      9  S   UNL     1      -0.454  -1.644   2.043  0.00  0.00    -0.029 S 
ATOM     10  O   UNL     1       0.203  -2.864   2.360  0.00  0.00    -0.174 OA
ATOM     11  O   UNL     1      -1.173  -0.950   3.053  0.00  0.00    -0.174 OA
ATOM     12  C   UNL     1       0.751  -0.495   1.257  0.00  0.00    +0.191 C 
ENDBRANCH   1   6
BRANCH   2  13
ATOM     13  C   UNL     1       1.034  -0.560  -3.611  0.00  0.00    +0.055 A 
ATOM     14  C   UNL     1       0.598  -0.196  -4.894  0.00  0.00    +0.018 A 
ATOM     15  C   UNL     1       1.309  -0.641  -5.976  0.00  0.00    +0.045 A 
ATOM     16  C   UNL     1       2.436  -1.435  -5.773  0.00  0.00    +0.132 A 
ATOM     17  N   UNL     1       2.827  -1.765  -4.550  0.00  0.00    -0.239 NA
ATOM     18  C   UNL     1       2.175  -1.353  -3.482  0.00  0.00    +0.126 A 
ATOM     19  N   UNL     1       3.158  -1.887  -6.865  0.00  0.00    -0.268 N 
ATOM     20  H   UNL     1       2.878  -1.650  -7.763  0.00  0.00    +0.167 HD
BRANCH  19  21
ATOM     21  N   UNL     1       4.265  -2.666  -6.678  0.00  0.00    -0.255 NA
ATOM     22  H   UNL     1       4.040  -3.488  -6.137  0.00  0.00    +0.140 HD
ATOM     23  H   UNL     1       4.684  -2.917  -7.560  0.00  0.00    +0.140 HD
ENDBRANCH  19  21
ENDBRANCH   2  13
TORSDOF 3
