REMARK  Name = ZINC02782014
REMARK  11 active torsions:
REMARK  status: ('A' for Active; 'I' for Inactive)
REMARK    1  A    between atoms: C_1  and  C_2
REMARK    2  A    between atoms: C_5  and  C_24
REMARK    3  A    between atoms: C_10  and  C_12
REMARK    4  A    between atoms: N_14  and  N_15
REMARK    5  A    between atoms: N_15  and  C_16
REMARK    6  A    between atoms: C_16  and  N_18
REMARK    7  A    between atoms: N_18  and  C_19
REMARK    8  A    between atoms: C_19  and  C_20
REMARK    9  A    between atoms: C_20  and  O_21
REMARK   10  A    between atoms: O_21  and  C_22
REMARK   11  A    between atoms: C_24  and  C_25
REMARK                            x       y       z     vdW  Elec       q    Type
REMARK                         _______ _______ _______ _____ _____    ______ ____
ROOT
ATOM      1  C   UNL     1      -0.074   1.647   0.075  0.00  0.00    +0.028 C 
ATOM      2  C   UNL     1      -0.048   0.122  -0.053  0.00  0.00    +0.071 C 
ATOM      3  C   UNL     1      -1.482  -0.420  -0.028  0.00  0.00    +0.055 C 
ATOM      4  C   UNL     1      -2.188   0.033   1.255  0.00  0.00    +0.189 C 
ATOM      5  N   UNL     1      -1.328  -0.270   2.402  0.00  0.00    -0.241 N 
ATOM      6  C   UNL     1       0.015  -0.499   2.304  0.00  0.00    +0.118 A 
ATOM      7  C   UNL     1       0.490  -0.747   3.540  0.00  0.00    +0.078 A 
ATOM      8  C   UNL     1      -0.597  -0.667   4.439  0.00  0.00    +0.150 A 
ATOM      9  N   UNL     1      -1.684  -0.380   3.746  0.00  0.00    -0.164 NA
ATOM     10  N   UNL     1       0.698  -0.458   1.080  0.00  0.00    -0.327 N 
ATOM     11  H   UNL     1       1.604  -0.792   0.982  0.00  0.00    +0.148 HD
ENDROOT
BRANCH   8  12
ATOM     12  C   UNL     1      -0.529  -0.871   5.901  0.00  0.00    +0.280 C 
ATOM     13  O   UNL     1       0.534  -1.134   6.429  0.00  0.00    -0.267 OA
ATOM     14  N   UNL     1      -1.646  -0.766   6.648  0.00  0.00    -0.230 N 
ATOM     15  H   UNL     1      -2.494  -0.556   6.227  0.00  0.00    +0.173 HD
BRANCH  14  16
ATOM     16  N   UNL     1      -1.581  -0.959   8.034  0.00  0.00    -0.246 N 
ATOM     17  H   UNL     1      -0.733  -1.169   8.456  0.00  0.00    +0.172 HD
BRANCH  16  18
ATOM     18  C   UNL     1      -2.698  -0.854   8.782  0.00  0.00    +0.147 C 
ATOM     19  S   UNL     1      -2.620  -1.090  10.476  0.00  0.00    -0.017 S 
BRANCH  18  20
ATOM     20  N   UNL     1      -3.876  -0.563   8.196  0.00  0.00    -0.323 N 
ATOM     21  H   UNL     1      -3.921  -0.429   7.236  0.00  0.00    +0.148 HD
BRANCH  20  22
ATOM     22  C   UNL     1      -5.090  -0.449   9.008  0.00  0.00    +0.131 C 
BRANCH  22  23
ATOM     23  C   UNL     1      -6.279  -0.114   8.105  0.00  0.00    +0.178 C 
BRANCH  23  24
ATOM     24  O   UNL     1      -6.522  -1.204   7.214  0.00  0.00    -0.381 OA
ATOM     25  C   UNL     1      -7.618  -0.993   6.322  0.00  0.00    +0.194 C 
ENDBRANCH  23  24
ENDBRANCH  22  23
ENDBRANCH  20  22
ENDBRANCH  18  20
ENDBRANCH  16  18
ENDBRANCH  14  16
ENDBRANCH   8  12
BRANCH   4  26
ATOM     26  C   UNL     1      -3.518  -0.711   1.397  0.00  0.00    +0.363 C 
ATOM     27  F   UNL     1      -3.290  -2.090   1.333  0.00  0.00    -0.193 F 
ATOM     28  F   UNL     1      -4.101  -0.391   2.628  0.00  0.00    -0.193 F 
BRANCH  26  29
ATOM     29  C   UNL     1      -4.458  -0.296   0.264  0.00  0.00    +0.456 C 
ATOM     30  F   UNL     1      -3.938  -0.736  -0.958  0.00  0.00    -0.165 F 
ATOM     31  F   UNL     1      -5.717  -0.870   0.469  0.00  0.00    -0.165 F 
ATOM     32  F   UNL     1      -4.579   1.098   0.245  0.00  0.00    -0.165 F 
ENDBRANCH  26  29
ENDBRANCH   4  26
TORSDOF 9
