REMARK  Name = ZINC12344544
REMARK  7 active torsions:
REMARK  status: ('A' for Active; 'I' for Inactive)
REMARK    1  A    between atoms: C_1  and  C_2
REMARK    2  A    between atoms: C_5  and  N_8
REMARK    3  A    between atoms: C_10  and  C_13
REMARK    4  A    between atoms: C_13  and  N_54
REMARK    5  A    between atoms: C_16  and  C_19
REMARK    6  A    between atoms: C_16  and  O_26
REMARK    7  A    between atoms: C_23  and  C_25
REMARK                            x       y       z     vdW  Elec       q    Type
REMARK                         _______ _______ _______ _____ _____    ______ ____
ROOT
ATOM      1  C   UNL     1       1.185   7.402   0.691  0.00  0.00    -0.075 C 
ATOM      2  C   UNL     1       1.181   5.872   0.740  0.00  0.00    +0.021 C 
ATOM      3  C   UNL     1      -0.070   5.347   0.030  0.00  0.00    +0.088 C 
ATOM      4  C   UNL     1      -0.088   5.866  -1.410  0.00  0.00    +0.021 C 
ATOM      5  C   UNL     1      -0.045   7.396  -1.397  0.00  0.00    -0.075 C 
ATOM      6  N   UNL     1       1.194   7.837  -0.722  0.00  0.00    +0.383 N 
ATOM      7  H   UNL     1       2.000   7.413  -1.195  0.00  0.00    -0.081 HD
ENDROOT
BRANCH   3   8
ATOM      8  C   UNL     1      -0.050   3.840   0.022  0.00  0.00    -0.016 A 
ATOM      9  C   UNL     1       1.157   3.165   0.008  0.00  0.00    +0.006 A 
ATOM     10  C   UNL     1       1.175   1.783   0.000  0.00  0.00    +0.001 A 
ATOM     11  C   UNL     1      -0.013   1.076   0.008  0.00  0.00    +0.003 A 
ATOM     12  C   UNL     1      -1.219   1.750   0.017  0.00  0.00    -0.050 A 
ATOM     13  C   UNL     1      -1.238   3.133   0.030  0.00  0.00    +0.009 A 
ATOM     14  C   UNL     1      -2.514   0.979   0.019  0.00  0.00    +0.044 C 
ENDBRANCH   3   8
BRANCH   3  15
ATOM     15  O   UNL     1      -1.237   5.805   0.717  0.00  0.00    -0.384 OA
ATOM     16  H   UNL     1      -2.068   5.511   0.320  0.00  0.00    +0.211 HD
ENDBRANCH   3  15
BRANCH   6  17
ATOM     17  C   UNL     1       1.313   9.308  -0.796  0.00  0.00    -0.040 C 
BRANCH  17  20
ATOM     18  N   UNL     1       1.335  10.297  -4.308  0.00  0.00    -0.240 N 
ATOM     19  C   UNL     1       1.973   9.876  -3.192  0.00  0.00    +0.116 A 
ATOM     20  C   UNL     1       1.049   9.753  -2.211  0.00  0.00    -0.026 A 
ATOM     21  C   UNL     1      -0.193  10.120  -2.741  0.00  0.00    +0.136 A 
ATOM     22  N   UNL     1      -0.023  10.446  -3.997  0.00  0.00    -0.175 NA
BRANCH  18  27
ATOM     23  C   UNL     1       3.737  11.307  -9.350  0.00  0.00    +0.044 C 
ATOM     24  C   UNL     1       3.099  11.039  -8.011  0.00  0.00    -0.050 A 
ATOM     25  C   UNL     1       1.740  11.228  -7.844  0.00  0.00    +0.005 A 
ATOM     26  C   UNL     1       1.152  10.983  -6.618  0.00  0.00    +0.028 A 
ATOM     27  C   UNL     1       1.929  10.547  -5.553  0.00  0.00    +0.065 A 
ATOM     28  C   UNL     1       3.294  10.364  -5.722  0.00  0.00    +0.028 A 
ATOM     29  C   UNL     1       3.875  10.605  -6.952  0.00  0.00    +0.005 A 
ENDBRANCH  18  27
ENDBRANCH  17  20
ENDBRANCH   6  17
TORSDOF 5
