REMARK  Name = ZINC67339667
REMARK  7 active torsions:
REMARK  status: ('A' for Active; 'I' for Inactive)
REMARK    1  A    between atoms: C_1  and  C_2
REMARK    2  A    between atoms: C_9  and  C_11
REMARK    3  A    between atoms: C_12  and  C_13
REMARK    4  A    between atoms: N_15  and  C_16
REMARK    5  A    between atoms: C_21  and  C_22
REMARK    6  A    between atoms: C_22  and  O_24
REMARK    7  A    between atoms: O_24  and  C_25
REMARK                            x       y       z     vdW  Elec       q    Type
REMARK                         _______ _______ _______ _____ _____    ______ ____
ROOT
ATOM      1  C   UNL     1       0.115  -8.018   2.084  0.00  0.00    +0.241 C 
ATOM      2  O   UNL     1       0.135  -8.093   3.299  0.00  0.00    -0.270 OA
ATOM      3  N   UNL     1       0.127  -9.141   1.339  0.00  0.00    -0.281 N 
ATOM      4  H   UNL     1       0.045  -9.085   0.374  0.00  0.00    +0.155 HD
ENDROOT
BRANCH   3   5
ATOM      5  C   UNL     1       0.258 -10.382   1.954  0.00  0.00    +0.048 A 
ATOM      6  C   UNL     1      -0.323 -10.611   3.195  0.00  0.00    +0.024 A 
ATOM      7  C   UNL     1      -0.191 -11.842   3.804  0.00  0.00    +0.002 A 
ATOM      8  C   UNL     1       0.519 -12.859   3.185  0.00  0.00    +0.001 A 
ATOM      9  C   UNL     1       1.102 -12.651   1.954  0.00  0.00    +0.017 A 
ATOM     10  C   UNL     1       0.973 -11.411   1.322  0.00  0.00    +0.080 A 
BRANCH  10  11
ATOM     11  C   UNL     1       1.588 -11.184   0.002  0.00  0.00    +0.341 C 
ATOM     12  O   UNL     1       1.561 -10.077  -0.498  0.00  0.00    -0.245 OA
BRANCH  11  13
ATOM     13  O   UNL     1       2.181 -12.204  -0.649  0.00  0.00    -0.464 OA
ATOM     14  C   UNL     1       2.757 -11.912  -1.924  0.00  0.00    +0.280 C 
ENDBRANCH  11  13
ENDBRANCH  10  11
ENDBRANCH   3   5
BRANCH   1  16
ATOM     15  C   UNL     1       0.065  -5.621   2.201  0.00  0.00    +0.051 C 
ATOM     16  C   UNL     1       0.078  -6.750   1.452  0.00  0.00    +0.071 C 
BRANCH  15  25
ATOM     17  C   UNL     1      -0.118   1.494  -0.019  0.00  0.00    +0.044 C 
ATOM     18  C   UNL     1      -0.087  -0.012  -0.024  0.00  0.00    -0.050 A 
ATOM     19  C   UNL     1      -0.091  -0.698  -1.231  0.00  0.00    +0.007 A 
ATOM     20  C   UNL     1      -0.062  -2.076  -1.259  0.00  0.00    +0.047 A 
ATOM     21  C   UNL     1      -0.029  -2.792  -0.068  0.00  0.00    +0.136 A 
ATOM     22  C   UNL     1      -0.026  -2.091   1.153  0.00  0.00    +0.021 A 
ATOM     23  C   UNL     1      -0.050  -0.694   1.160  0.00  0.00    +0.015 A 
ATOM     24  C   UNL     1       0.012  -3.114   2.197  0.00  0.00    +0.057 A 
ATOM     25  C   UNL     1       0.027  -4.313   1.550  0.00  0.00    +0.129 A 
ATOM     26  O   UNL     1       0.003  -4.109   0.216  0.00  0.00    -0.455 OA
ENDBRANCH  15  25
ENDBRANCH   1  16
TORSDOF 5
