REMARK  Name = ZINC46085392
REMARK  4 active torsions:
REMARK  status: ('A' for Active; 'I' for Inactive)
REMARK    1  A    between atoms: C_1  and  C_2
REMARK    2  A    between atoms: C_8  and  C_25
REMARK    3  A    between atoms: N_12  and  N_13
REMARK    4  A    between atoms: C_14  and  C_15
REMARK                            x       y       z     vdW  Elec       q    Type
REMARK                         _______ _______ _______ _____ _____    ______ ____
ROOT
ATOM      1  C   UNL     1       0.777   1.456   0.035  0.00  0.00    +0.044 C 
ATOM      2  C   UNL     1       0.582  -0.038   0.020  0.00  0.00    -0.050 A 
ATOM      3  C   UNL     1       0.576  -0.718  -1.196  0.00  0.00    +0.005 A 
ATOM      4  C   UNL     1       0.401  -2.068  -1.245  0.00  0.00    +0.029 A 
ATOM      5  C   UNL     1       0.225  -2.787  -0.053  0.00  0.00    +0.077 A 
ATOM      6  C   UNL     1       0.232  -2.093   1.183  0.00  0.00    +0.027 A 
ATOM      7  C   UNL     1       0.419  -0.707   1.198  0.00  0.00    +0.015 A 
ATOM      8  C   UNL     1       0.052  -2.841   2.374  0.00  0.00    +0.084 A 
ATOM      9  N   UNL     1      -0.113  -4.152   2.273  0.00  0.00    -0.213 NA
ATOM     10  C   UNL     1      -0.113  -4.762   1.092  0.00  0.00    +0.236 A 
ATOM     11  N   UNL     1       0.050  -4.115  -0.047  0.00  0.00    -0.213 NA
ATOM     12  N   UNL     1      -0.291  -6.135   1.055  0.00  0.00    -0.205 N 
ATOM     13  H   UNL     1      -0.412  -6.630   1.879  0.00  0.00    +0.177 HD
ENDROOT
BRANCH   8  14
ATOM     14  C   UNL     1       0.051  -2.174   3.696  0.00  0.00    +0.001 A 
ATOM     15  C   UNL     1      -0.661  -0.989   3.881  0.00  0.00    +0.010 A 
ATOM     16  C   UNL     1      -0.659  -0.372   5.116  0.00  0.00    +0.001 A 
ATOM     17  C   UNL     1       0.047  -0.928   6.168  0.00  0.00    +0.000 A 
ATOM     18  C   UNL     1       0.754  -2.103   5.991  0.00  0.00    +0.001 A 
ATOM     19  C   UNL     1       0.756  -2.732   4.763  0.00  0.00    +0.010 A 
ENDBRANCH   8  14
BRANCH  12  20
ATOM     20  N   UNL     1      -0.296  -6.807  -0.174  0.00  0.00    -0.188 NA
ATOM     21  C   UNL     1      -0.463  -8.094  -0.209  0.00  0.00    +0.138 C 
BRANCH  21  22
ATOM     22  C   UNL     1      -0.468  -8.802  -1.502  0.00  0.00    -0.003 A 
ATOM     23  C   UNL     1      -0.286  -8.078  -2.696  0.00  0.00    +0.011 A 
ATOM     24  C   UNL     1      -0.287  -8.707  -3.897  0.00  0.00    +0.030 A 
ATOM     25  C   UNL     1      -0.472 -10.101  -3.964  0.00  0.00    +0.089 A 
ATOM     26  C   UNL     1      -0.657 -10.843  -2.768  0.00  0.00    +0.090 A 
ATOM     27  C   UNL     1      -0.647 -10.176  -1.534  0.00  0.00    +0.039 A 
ATOM     28  N   UNL     1      -0.832 -12.168  -2.833  0.00  0.00    -0.252 NA
ATOM     29  C   UNL     1      -0.831 -12.769  -4.001  0.00  0.00    +0.131 A 
ATOM     30  C   UNL     1      -0.649 -12.039  -5.177  0.00  0.00    +0.131 A 
ATOM     31  N   UNL     1      -0.475 -10.737  -5.139  0.00  0.00    -0.252 NA
ENDBRANCH  21  22
ENDBRANCH  12  20
TORSDOF 3
