REMARK  Name = ZINC08596945
REMARK  9 active torsions:
REMARK  status: ('A' for Active; 'I' for Inactive)
REMARK    1  A    between atoms: C_1  and  C_2
REMARK    2  A    between atoms: C_3  and  C_16
REMARK    3  A    between atoms: N_9  and  C_12
REMARK    4  A    between atoms: C_12  and  C_13
REMARK    5  A    between atoms: C_13  and  C_14
REMARK    6  A    between atoms: C_13  and  C_15
REMARK    7  A    between atoms: N_18  and  C_19
REMARK    8  A    between atoms: C_19  and  C_20
REMARK    9  A    between atoms: C_20  and  C_21
REMARK                            x       y       z     vdW  Elec       q    Type
REMARK                         _______ _______ _______ _____ _____    ______ ____
ROOT
ATOM      1  C   UNL     1      -0.018   1.503   0.010  0.00  0.00    +0.087 C 
ATOM      2  C   UNL     1       0.002  -0.004   0.002  0.00  0.00    +0.117 A 
ATOM      3  C   UNL     1      -1.100  -0.804   0.003  0.00  0.00    +0.092 A 
ATOM      4  C   UNL     1      -0.586  -2.183  -0.008  0.00  0.00    +0.117 A 
ATOM      5  C   UNL     1       0.804  -2.070  -0.014  0.00  0.00    +0.235 A 
ATOM      6  O   UNL     1       1.107  -0.761  -0.013  0.00  0.00    -0.441 OA
ATOM      7  N   UNL     1       1.546  -3.188  -0.024  0.00  0.00    -0.202 NA
ATOM      8  C   UNL     1       0.994  -4.369  -0.029  0.00  0.00    +0.206 A 
ATOM      9  N   UNL     1      -0.351  -4.542  -0.024  0.00  0.00    -0.298 N 
ATOM     10  C   UNL     1      -1.173  -3.467  -0.013  0.00  0.00    +0.266 A 
ATOM     11  O   UNL     1      -2.384  -3.603  -0.007  0.00  0.00    -0.267 OA
ENDROOT
BRANCH   3  12
ATOM     12  C   UNL     1      -2.509  -0.379   0.013  0.00  0.00    +0.248 C 
ATOM     13  O   UNL     1      -3.097  -0.197  -1.037  0.00  0.00    -0.270 OA
ATOM     14  N   UNL     1      -3.148  -0.190   1.184  0.00  0.00    -0.311 N 
ATOM     15  H   UNL     1      -2.679  -0.335   2.021  0.00  0.00    +0.149 HD
BRANCH  14  16
ATOM     16  C   UNL     1      -4.551   0.233   1.194  0.00  0.00    +0.109 C 
BRANCH  16  17
ATOM     17  C   UNL     1      -5.031   0.372   2.640  0.00  0.00    +0.054 C 
BRANCH  17  18
ATOM     18  C   UNL     1      -6.474   0.808   2.650  0.00  0.00    -0.046 A 
ATOM     19  C   UNL     1      -6.790   2.154   2.653  0.00  0.00    +0.004 A 
ATOM     20  C   UNL     1      -8.113   2.553   2.662  0.00  0.00    +0.000 A 
ATOM     21  C   UNL     1      -9.120   1.607   2.667  0.00  0.00    +0.000 A 
ATOM     22  C   UNL     1      -8.805   0.261   2.663  0.00  0.00    +0.000 A 
ATOM     23  C   UNL     1      -7.481  -0.138   2.650  0.00  0.00    +0.004 A 
ENDBRANCH  17  18
ENDBRANCH  16  17
ENDBRANCH  14  16
ENDBRANCH   3  12
BRANCH   9  24
ATOM     24  C   UNL     1      -0.915  -5.894  -0.030  0.00  0.00    +0.129 C 
BRANCH  24  25
ATOM     25  C   UNL     1      -1.105  -6.374   1.410  0.00  0.00    +0.003 C 
ATOM     26  C   UNL     1      -2.152  -5.502   2.105  0.00  0.00    +0.009 C 
ATOM     27  C   UNL     1      -1.576  -7.830   1.405  0.00  0.00    +0.009 C 
ENDBRANCH  24  25
ENDBRANCH   9  24
TORSDOF 6
