REMARK  Name = ZINC67267186
REMARK  6 active torsions:
REMARK  status: ('A' for Active; 'I' for Inactive)
REMARK    1  A    between atoms: C_1  and  C_2
REMARK    2  A    between atoms: C_4  and  C_25
REMARK    3  A    between atoms: C_5  and  C_9
REMARK    4  A    between atoms: C_6  and  C_8
REMARK    5  A    between atoms: C_9  and  N_10
REMARK    6  A    between atoms: C_11  and  C_13
REMARK                            x       y       z     vdW  Elec       q    Type
REMARK                         _______ _______ _______ _____ _____    ______ ____
ROOT
ATOM      1  N   UNL     1       1.447  -4.746  -0.032  0.00  0.00    -0.311 N 
ATOM      2  C   UNL     1       1.710  -6.067  -0.040  0.00  0.00    +0.216 C 
ATOM      3  O   UNL     1       0.799  -6.867  -0.040  0.00  0.00    -0.276 OA
ATOM      4  H   UNL     1       2.176  -4.106  -0.032  0.00  0.00    +0.149 HD
ENDROOT
BRANCH   2   5
ATOM      5  C   UNL     1       3.137  -6.551  -0.051  0.00  0.00    +0.075 C 
ATOM      6  C   UNL     1       3.845  -6.025  -1.301  0.00  0.00    +0.015 C 
ATOM      7  C   UNL     1       5.298  -6.507  -1.304  0.00  0.00    +0.036 C 
ATOM      8  C   UNL     1       5.331  -8.031  -1.286  0.00  0.00    +0.112 C 
ATOM      9  C   UNL     1       4.607  -8.572  -0.058  0.00  0.00    +0.036 C 
ATOM     10  C   UNL     1       3.157  -8.081  -0.059  0.00  0.00    +0.015 C 
ATOM     11  C   UNL     1       4.717  -8.588  -2.549  0.00  0.00    +0.244 C 
ATOM     12  O   UNL     1       3.578  -8.441  -2.937  0.00  0.00    -0.273 OA
ATOM     13  N   UNL     1       5.703  -9.283  -3.153  0.00  0.00    -0.238 N 
ATOM     14  C   UNL     1       6.840  -9.238  -2.449  0.00  0.00    +0.307 C 
ATOM     15  O   UNL     1       7.869  -9.789  -2.791  0.00  0.00    -0.252 OA
ATOM     16  N   UNL     1       6.717  -8.515  -1.320  0.00  0.00    -0.285 N 
ATOM     17  H   UNL     1       5.600  -9.756  -3.994  0.00  0.00    +0.159 HD
ATOM     18  H   UNL     1       7.408  -8.347  -0.659  0.00  0.00    +0.151 HD
ENDBRANCH   2   5
BRANCH   1  19
ATOM     19  C   UNL     1       0.059  -4.275  -0.021  0.00  0.00    +0.140 C 
BRANCH  19  24
ATOM     20  C   UNL     1      -0.018   1.503   0.010  0.00  0.00    +0.044 C 
ATOM     21  C   UNL     1       0.002  -0.004   0.002  0.00  0.00    -0.050 A 
ATOM     22  C   UNL     1       0.006  -0.689  -1.199  0.00  0.00    +0.007 A 
ATOM     23  C   UNL     1       0.025  -2.071  -1.206  0.00  0.00    -0.045 A 
ATOM     24  C   UNL     1       0.040  -2.768  -0.013  0.00  0.00    -0.024 A 
ATOM     25  C   UNL     1       0.037  -2.084   1.188  0.00  0.00    -0.045 A 
ATOM     26  C   UNL     1       0.023  -0.702   1.195  0.00  0.00    +0.007 A 
ATOM     27  C   UNL     1       0.054  -2.844   2.489  0.00  0.00    +0.044 C 
ATOM     28  C   UNL     1       0.027  -2.817  -2.516  0.00  0.00    +0.044 C 
ENDBRANCH  19  24
ENDBRANCH   1  19
TORSDOF 3
