REMARK  Name = ZINC39958785
REMARK  7 active torsions:
REMARK  status: ('A' for Active; 'I' for Inactive)
REMARK    1  A    between atoms: C_1  and  C_2
REMARK    2  A    between atoms: C_2  and  C_29
REMARK    3  A    between atoms: C_4  and  N_10
REMARK    4  A    between atoms: C_6  and  C_8
REMARK    5  A    between atoms: C_6  and  C_9
REMARK    6  A    between atoms: C_11  and  C_13
REMARK    7  A    between atoms: C_16  and  C_19
REMARK                            x       y       z     vdW  Elec       q    Type
REMARK                         _______ _______ _______ _____ _____    ______ ____
ROOT
ATOM      1  N   UNL     1       2.615  -0.819  -2.626  0.00  0.00    -0.308 N 
ATOM      2  C   UNL     1       3.770  -0.334  -3.123  0.00  0.00    +0.277 C 
ATOM      3  O   UNL     1       4.374   0.530  -2.523  0.00  0.00    -0.270 OA
ATOM      4  H   UNL     1       2.133  -1.510  -3.106  0.00  0.00    +0.149 HD
ENDROOT
BRANCH   1   8
ATOM      5  C   UNL     1      -0.019   1.528   0.010  0.00  0.00    -0.010 C 
ATOM      6  C   UNL     1       0.002  -0.004   0.002  0.00  0.00    -0.072 C 
ATOM      7  C   UNL     1       0.573  -0.505  -1.321  0.00  0.00    +0.009 C 
ATOM      8  C   UNL     1       2.088  -0.301  -1.357  0.00  0.00    +0.071 C 
ATOM      9  C   UNL     1       2.703  -1.086  -0.198  0.00  0.00    +0.009 C 
ATOM     10  C   UNL     1       2.147  -0.590   1.133  0.00  0.00    -0.072 C 
ATOM     11  N   UNL     1       0.697  -0.529   1.164  0.00  0.00    +0.386 N 
ATOM     12  C   UNL     1       2.769   0.766   1.481  0.00  0.00    -0.010 C 
ATOM     13  C   UNL     1       2.600  -1.589   2.223  0.00  0.00    -0.010 C 
ATOM     14  C   UNL     1      -1.468  -0.478   0.079  0.00  0.00    -0.010 C 
ATOM     15  H   UNL     1       0.416   0.021   1.982  0.00  0.00    -0.084 HD
ATOM     16  H   UNL     1       0.341  -1.472   1.351  0.00  0.00    -0.084 HD
ENDBRANCH   1   8
BRANCH   2  17
ATOM     17  C   UNL     1       4.312  -0.866  -4.426  0.00  0.00    +0.398 C 
ATOM     18  N   UNL     1       4.823  -2.234  -4.249  0.00  0.00    -0.177 NA
ATOM     19  C   UNL     1       6.173  -2.199  -4.555  0.00  0.00    +0.188 C 
ATOM     20  N   UNL     1       6.545  -1.005  -4.891  0.00  0.00    -0.064 NA
ATOM     21  O   UNL     1       5.454  -0.102  -4.843  0.00  0.00    -0.358 OA
BRANCH  19  22
ATOM     22  C   UNL     1       7.070  -3.370  -4.505  0.00  0.00    +0.025 C 
ATOM     23  C   UNL     1       6.642  -4.650  -4.145  0.00  0.00    +0.011 C 
ATOM     24  C   UNL     1       7.560  -5.720  -4.118  0.00  0.00    -0.001 C 
ATOM     25  C   UNL     1       8.890  -5.583  -4.115  0.00  0.00    +0.004 C 
ATOM     26  C   UNL     1       9.494  -4.206  -4.107  0.00  0.00    +0.159 C 
ATOM     27  C   UNL     1       8.496  -3.306  -4.835  0.00  0.00    -0.007 C 
ATOM     28  C   UNL     1       9.211  -2.606  -5.716  0.00  0.00    +0.026 C 
ATOM     29  C   UNL     1      10.520  -3.140  -5.786  0.00  0.00    +0.106 C 
ATOM     30  N   UNL     1      10.727  -4.084  -4.876  0.00  0.00    -0.279 NA
ENDBRANCH  19  22
ENDBRANCH   2  17
TORSDOF 3
