REMARK  Name = ZINC61544231
REMARK  7 active torsions:
REMARK  status: ('A' for Active; 'I' for Inactive)
REMARK    1  A    between atoms: C_1  and  C_2
REMARK    2  A    between atoms: C_2  and  C_3
REMARK    3  A    between atoms: C_2  and  O_4
REMARK    4  A    between atoms: O_4  and  C_5
REMARK    5  A    between atoms: C_7  and  S_12
REMARK    6  A    between atoms: S_12  and  C_13
REMARK    7  A    between atoms: C_17  and  N_19
REMARK                            x       y       z     vdW  Elec       q    Type
REMARK                         _______ _______ _______ _____ _____    ______ ____
ROOT
ATOM      1  S   UNL     1      -4.619  -4.053  -1.266  0.00  0.00    -0.010 S 
ENDROOT
BRANCH   1   2
ATOM      2  C   UNL     1      -4.419  -5.570  -2.139  0.00  0.00    +0.199 A 
ATOM      3  N   UNL     1      -3.213  -5.913  -2.568  0.00  0.00    -0.207 NA
ATOM      4  C   UNL     1      -3.024  -7.051  -3.231  0.00  0.00    +0.122 A 
ATOM      5  C   UNL     1      -4.113  -7.884  -3.472  0.00  0.00    +0.086 A 
ATOM      6  C   UNL     1      -5.364  -7.490  -3.005  0.00  0.00    +0.122 A 
ATOM      7  N   UNL     1      -5.476  -6.340  -2.345  0.00  0.00    -0.207 NA
ATOM      8  N   UNL     1      -1.759  -7.402  -3.677  0.00  0.00    -0.343 N 
ATOM      9  H   UNL     1      -1.005  -6.816  -3.507  0.00  0.00    +0.144 HD
ATOM     10  H   UNL     1      -1.629  -8.233  -4.160  0.00  0.00    +0.144 HD
BRANCH   6  11
ATOM     11  N   UNL     1      -6.477  -8.288  -3.222  0.00  0.00    -0.343 N 
ATOM     12  H   UNL     1      -6.387  -9.127  -3.701  0.00  0.00    +0.144 HD
ATOM     13  H   UNL     1      -7.346  -8.007  -2.894  0.00  0.00    +0.144 HD
ENDBRANCH   6  11
ENDBRANCH   1   2
BRANCH   1  16
ATOM     14  C   UNL     1      -1.559  -1.688  -0.595  0.00  0.00    +0.323 A 
ATOM     15  N   UNL     1      -2.783  -2.200  -0.626  0.00  0.00    -0.169 NA
ATOM     16  C   UNL     1      -2.997  -3.368  -1.223  0.00  0.00    +0.203 A 
ATOM     17  N   UNL     1      -1.983  -4.020  -1.788  0.00  0.00    -0.191 NA
ATOM     18  C   UNL     1      -0.765  -3.506  -1.755  0.00  0.00    +0.229 A 
ATOM     19  N   UNL     1      -0.552  -2.340  -1.165  0.00  0.00    -0.164 NA
ATOM     20 CL   UNL     1       0.555  -4.358  -2.493  0.00  0.00    -0.041 Cl
BRANCH  14  21
ATOM     21  O   UNL     1      -1.339  -0.499   0.012  0.00  0.00    -0.460 OA
BRANCH  21  23
ATOM     22  C   UNL     1      -0.019   1.526   0.010  0.00  0.00    +0.052 C 
ATOM     23  C   UNL     1       0.002  -0.004   0.002  0.00  0.00    +0.171 C 
ATOM     24  C   UNL     1       0.742  -0.511   1.242  0.00  0.00    +0.052 C 
ENDBRANCH  21  23
ENDBRANCH  14  21
ENDBRANCH   1  16
TORSDOF 5
