REMARK  Name = ZINC07357397
REMARK  5 active torsions:
REMARK  status: ('A' for Active; 'I' for Inactive)
REMARK    1  A    between atoms: C_3  and  N_20
REMARK    2  A    between atoms: C_4  and  N_17
REMARK    3  A    between atoms: C_6  and  N_7
REMARK    4  A    between atoms: N_7  and  S_8
REMARK    5  A    between atoms: S_8  and  C_11
REMARK                            x       y       z     vdW  Elec       q    Type
REMARK                         _______ _______ _______ _____ _____    ______ ____
ROOT
ATOM      1  C   UNL     1       0.005   1.377  -0.254  0.00  0.00    +0.028 A 
ATOM      2  C   UNL     1       1.206   2.057  -0.313  0.00  0.00    +0.027 A 
ATOM      3  C   UNL     1       2.396   1.386  -0.065  0.00  0.00    +0.055 A 
ATOM      4  C   UNL     1       2.379   0.032   0.242  0.00  0.00    +0.149 A 
ATOM      5  C   UNL     1       1.178  -0.648   0.301  0.00  0.00    +0.061 A 
ATOM      6  C   UNL     1      -0.012   0.023   0.054  0.00  0.00    +0.077 A 
ENDROOT
BRANCH   4   7
ATOM      7  N   UNL     1       3.648  -0.683   0.507  0.00  0.00    +0.058 N 
ATOM      8  O   UNL     1       3.792  -1.821   0.123  0.00  0.00    -0.126 OA
ATOM      9  O   UNL     1       4.540  -0.130   1.106  0.00  0.00    -0.126 OA
ENDBRANCH   4   7
BRANCH   3  10
ATOM     10  N   UNL     1       3.613   2.075  -0.125  0.00  0.00    -0.356 N 
ATOM     11  H   UNL     1       3.620   3.039  -0.228  0.00  0.00    +0.142 HD
ATOM     12  H   UNL     1       4.450   1.587  -0.064  0.00  0.00    +0.142 HD
ENDBRANCH   3  10
BRANCH   6  13
ATOM     13  N   UNL     1      -1.230  -0.666   0.114  0.00  0.00    -0.097 NA
BRANCH  13  14
ATOM     14  S   UNL     1      -2.649   0.134  -0.181  0.00  0.00    +0.098 S 
ATOM     15  O   UNL     1      -2.813   1.073   0.873  0.00  0.00    -0.148 OA
ATOM     16  O   UNL     1      -2.621   0.521  -1.548  0.00  0.00    -0.148 OA
BRANCH  14  17
ATOM     17  C   UNL     1      -3.953  -1.040  -0.017  0.00  0.00    +0.149 A 
ATOM     18  C   UNL     1      -4.669  -1.371   1.085  0.00  0.00    +0.038 A 
ATOM     19  C   UNL     1      -5.657  -2.333   0.978  0.00  0.00    +0.025 A 
ATOM     20  C   UNL     1      -5.879  -2.916  -0.226  0.00  0.00    +0.057 A 
ATOM     21  S   UNL     1      -4.678  -2.096  -1.261  0.00  0.00    -0.061 S 
ATOM     22 BR   UNL     1      -7.141  -4.246  -0.690  0.00  0.00    -0.043 Br
ENDBRANCH  14  17
ENDBRANCH  13  14
ENDBRANCH   6  13
TORSDOF 5
