REMARK  Name = ZINC36508634
REMARK  17 active torsions:
REMARK  status: ('A' for Active; 'I' for Inactive)
REMARK    1  A    between atoms: C_1  and  C_2
REMARK    2  A    between atoms: C_2  and  C_3
REMARK    3  A    between atoms: C_3  and  C_4
REMARK    4  A    between atoms: C_4  and  C_5
REMARK    5  A    between atoms: C_5  and  C_6
REMARK    6  A    between atoms: C_6  and  N_7
REMARK    7  A    between atoms: N_7  and  C_8
REMARK    8  A    between atoms: C_8  and  C_10
REMARK    9  A    between atoms: C_8  and  C_19
REMARK   10  A    between atoms: C_11  and  O_18
REMARK   11  A    between atoms: C_13  and  O_17
REMARK   12  A    between atoms: C_15  and  O_16
REMARK   13  A    between atoms: N_21  and  C_22
REMARK   14  A    between atoms: C_28  and  C_30
REMARK   15  A    between atoms: C_30  and  C_31
REMARK   16  A    between atoms: C_31  and  C_32
REMARK   17  A    between atoms: C_31  and  C_33
REMARK                            x       y       z     vdW  Elec       q    Type
REMARK                         _______ _______ _______ _____ _____    ______ ____
ROOT
ATOM      1  C   UNL     1       3.275  -5.508  -3.631  0.00  0.00    +0.199 C 
ENDROOT
BRANCH   1   2
ATOM      2  C   UNL     1       3.207  -4.343  -4.585  0.00  0.00    +0.065 A 
ATOM      3  C   UNL     1       3.475  -4.533  -5.932  0.00  0.00    +0.129 A 
ATOM      4  C   UNL     1       3.412  -3.461  -6.809  0.00  0.00    +0.091 A 
ATOM      5  C   UNL     1       3.081  -2.199  -6.339  0.00  0.00    +0.124 A 
ATOM      6  C   UNL     1       2.812  -2.009  -4.992  0.00  0.00    +0.091 A 
ATOM      7  C   UNL     1       2.870  -3.082  -4.115  0.00  0.00    +0.129 A 
BRANCH   7   8
ATOM      8  O   UNL     1       2.602  -2.898  -2.796  0.00  0.00    -0.506 OA
ATOM      9  H   UNL     1       3.359  -2.586  -2.281  0.00  0.00    +0.292 HD
ENDBRANCH   7   8
BRANCH   5  10
ATOM     10  O   UNL     1       3.020  -1.148  -7.198  0.00  0.00    -0.507 OA
ATOM     11  H   UNL     1       2.148  -1.013  -7.594  0.00  0.00    +0.292 HD
ENDBRANCH   5  10
BRANCH   3  12
ATOM     12  O   UNL     1       3.800  -5.769  -6.393  0.00  0.00    -0.506 OA
ATOM     13  H   UNL     1       3.052  -6.262  -6.757  0.00  0.00    +0.292 HD
ENDBRANCH   3  12
ENDBRANCH   1   2
BRANCH   1  14
ATOM     14  C   UNL     1       3.221  -6.798  -4.410  0.00  0.00    +0.239 C 
ATOM     15  O   UNL     1       2.150  -7.292  -4.691  0.00  0.00    -0.273 OA
ATOM     16  N   UNL     1       4.364  -7.402  -4.793  0.00  0.00    -0.311 N 
ATOM     17  H   UNL     1       5.220  -7.046  -4.508  0.00  0.00    +0.149 HD
BRANCH  16  18
ATOM     18  C   UNL     1       4.312  -8.597  -5.639  0.00  0.00    +0.073 C 
ATOM     19  C   UNL     1       4.124  -9.836  -4.761  0.00  0.00    +0.022 C 
ATOM     20  C   UNL     1       4.070 -11.084  -5.644  0.00  0.00    +0.002 C 
ATOM     21  C   UNL     1       5.377 -11.209  -6.429  0.00  0.00    +0.000 C 
ATOM     22  C   UNL     1       5.566  -9.970  -7.307  0.00  0.00    +0.002 C 
ATOM     23  C   UNL     1       5.620  -8.723  -6.424  0.00  0.00    +0.022 C 
ENDBRANCH  16  18
ENDBRANCH   1  14
BRANCH   1  24
ATOM     24  N   UNL     1       2.141  -5.449  -2.706  0.00  0.00    -0.286 N 
ATOM     25  C   UNL     1       0.890  -5.298  -3.182  0.00  0.00    +0.217 C 
ATOM     26  O   UNL     1       0.710  -5.121  -4.369  0.00  0.00    -0.276 OA
BRANCH  24  27
ATOM     27  C   UNL     1       2.368  -5.555  -1.262  0.00  0.00    +0.109 C 
BRANCH  27  28
ATOM     28  C   UNL     1       2.452  -4.153  -0.655  0.00  0.00    +0.019 C 
BRANCH  28  29
ATOM     29  C   UNL     1       2.516  -4.260   0.870  0.00  0.00    +0.002 C 
BRANCH  29  30
ATOM     30  C   UNL     1       2.600  -2.858   1.476  0.00  0.00    -0.000 C 
BRANCH  30  32
ATOM     31  C   UNL     1       2.748  -1.564   3.608  0.00  0.00    +0.004 C 
ATOM     32  C   UNL     1       2.664  -2.966   3.001  0.00  0.00    -0.003 C 
ENDBRANCH  30  32
ENDBRANCH  29  30
ENDBRANCH  28  29
ENDBRANCH  27  28
ENDBRANCH  24  27
BRANCH  25  33
ATOM     33  C   UNL     1      -0.286  -5.347  -2.241  0.00  0.00    +0.099 C 
BRANCH  33  34
ATOM     34  C   UNL     1      -1.581  -5.149  -3.031  0.00  0.00    -0.008 C 
ATOM     35  C   UNL     1      -1.779  -6.326  -3.988  0.00  0.00    +0.008 C 
ATOM     36  C   UNL     1      -2.763  -5.074  -2.063  0.00  0.00    +0.008 C 
ENDBRANCH  33  34
ENDBRANCH  25  33
ENDBRANCH   1  24
TORSDOF 14
