REMARK  Name = ZINC48278442
REMARK  4 active torsions:
REMARK  status: ('A' for Active; 'I' for Inactive)
REMARK    1  A    between atoms: C_1  and  N_2
REMARK    2  A    between atoms: C_6  and  C_7
REMARK    3  A    between atoms: C_7  and  C_9
REMARK    4  A    between atoms: C_9  and  N_10
REMARK                            x       y       z     vdW  Elec       q    Type
REMARK                         _______ _______ _______ _____ _____    ______ ____
ROOT
ATOM      1  N   UNL     1       0.056  -0.704   4.868  0.00  0.00    -0.217 N 
ATOM      2  C   UNL     1       1.181  -0.353   5.540  0.00  0.00    +0.247 C 
ATOM      3  O   UNL     1       2.285  -0.766   5.306  0.00  0.00    -0.273 OA
ATOM      4  C   UNL     1       0.691   0.650   6.578  0.00  0.00    +0.113 C 
ATOM      5  C   UNL     1       0.857   2.061   5.992  0.00  0.00    +0.035 C 
ATOM      6  C   UNL     1       1.963   2.830   6.726  0.00  0.00    +0.003 C 
ATOM      7  C   UNL     1       3.293   2.764   5.982  0.00  0.00    +0.000 C 
ATOM      8  C   UNL     1       3.937   1.390   6.232  0.00  0.00    +0.000 C 
ATOM      9  C   UNL     1       3.795   1.026   7.710  0.00  0.00    +0.000 C 
ATOM     10  C   UNL     1       2.751  -0.072   7.889  0.00  0.00    +0.003 C 
ATOM     11  C   UNL     1       1.328   0.464   7.933  0.00  0.00    +0.035 C 
ATOM     12  N   UNL     1      -0.754   0.352   6.652  0.00  0.00    -0.285 N 
ATOM     13  C   UNL     1      -1.044  -0.358   5.547  0.00  0.00    +0.310 C 
ATOM     14  O   UNL     1      -2.172  -0.653   5.207  0.00  0.00    -0.252 OA
ATOM     15  H   UNL     1      -1.362   0.619   7.356  0.00  0.00    +0.151 HD
ENDROOT
BRANCH   1  16
ATOM     16  C   UNL     1       0.054  -1.396   3.579  0.00  0.00    +0.199 C 
BRANCH  16  17
ATOM     17  C   UNL     1       0.030  -0.383   2.464  0.00  0.00    +0.197 C 
ATOM     18  O   UNL     1       0.015   0.804   2.722  0.00  0.00    -0.289 OA
BRANCH  17  24
ATOM     19  C   UNL     1      -0.018   1.461   0.010  0.00  0.00    +0.149 C 
ATOM     20  N   UNL     1       0.002  -0.004   0.002  0.00  0.00    -0.347 N 
ATOM     21  C   UNL     1       0.008  -0.784  -1.098  0.00  0.00    +0.086 A 
ATOM     22  C   UNL     1       0.028  -2.086  -0.718  0.00  0.00    +0.020 A 
ATOM     23  C   UNL     1       0.035  -2.126   0.677  0.00  0.00    +0.031 A 
ATOM     24  C   UNL     1       0.024  -0.814   1.118  0.00  0.00    +0.086 A 
ENDBRANCH  17  24
ENDBRANCH  16  17
ENDBRANCH   1  16
TORSDOF 3
