REMARK  Name = ZINC56083263
REMARK  9 active torsions:
REMARK  status: ('A' for Active; 'I' for Inactive)
REMARK    1  A    between atoms: C_1  and  C_2
REMARK    2  A    between atoms: C_5  and  S_7
REMARK    3  A    between atoms: S_7  and  C_8
REMARK    4  A    between atoms: C_11  and  N_14
REMARK    5  A    between atoms: C_15  and  C_17
REMARK    6  A    between atoms: C_17  and  C_18
REMARK    7  A    between atoms: C_17  and  C_19
REMARK    8  A    between atoms: C_17  and  N_20
REMARK    9  A    between atoms: N_23  and  C_24
REMARK                            x       y       z     vdW  Elec       q    Type
REMARK                         _______ _______ _______ _____ _____    ______ ____
ROOT
ATOM      1  N   UNL     1       0.378  -8.659   0.352  0.00  0.00    -0.284 N 
ATOM      2  C   UNL     1       0.240  -9.710   1.185  0.00  0.00    +0.240 C 
ATOM      3  O   UNL     1       0.141  -9.527   2.380  0.00  0.00    -0.273 OA
ATOM      4  H   UNL     1       0.525  -8.807  -0.595  0.00  0.00    +0.155 HD
ENDROOT
BRANCH   1   8
ATOM      5  C   UNL     1       0.175  -4.771   1.848  0.00  0.00    +0.015 A 
ATOM      6  C   UNL     1      -0.331  -5.058   0.586  0.00  0.00    +0.017 A 
ATOM      7  C   UNL     1      -0.263  -6.344   0.091  0.00  0.00    +0.024 A 
ATOM      8  C   UNL     1       0.310  -7.353   0.854  0.00  0.00    +0.034 A 
ATOM      9  C   UNL     1       0.815  -7.067   2.116  0.00  0.00    +0.024 A 
ATOM     10  C   UNL     1       0.753  -5.779   2.609  0.00  0.00    +0.017 A 
BRANCH   5  11
ATOM     11  S   UNL     1       0.088  -3.129   2.480  0.00  0.00    -0.063 S 
BRANCH  11  16
ATOM     12  C   UNL     1      -3.533  -1.214   5.758  0.00  0.00    +0.066 C 
ATOM     13  C   UNL     1      -2.983  -2.312   4.884  0.00  0.00    +0.047 A 
ATOM     14  C   UNL     1      -3.623  -3.498   4.751  0.00  0.00    +0.070 A 
ATOM     15  S   UNL     1      -2.522  -4.347   3.630  0.00  0.00    -0.069 S 
ATOM     16  C   UNL     1      -1.382  -3.123   3.451  0.00  0.00    +0.139 A 
ATOM     17  N   UNL     1      -1.859  -2.156   4.208  0.00  0.00    -0.238 NA
ENDBRANCH  11  16
ENDBRANCH   5  11
ENDBRANCH   1   8
BRANCH   2  18
ATOM     18  C   UNL     1       0.209 -11.111   0.631  0.00  0.00    +0.107 C 
ATOM     19  C   UNL     1       1.640 -11.623   0.459  0.00  0.00    +0.041 C 
ATOM     20  C   UNL     1      -0.547 -12.024   1.599  0.00  0.00    +0.041 C 
BRANCH  18  21
ATOM     21  N   UNL     1      -0.469 -11.108  -0.667  0.00  0.00    -0.286 N 
ATOM     22  C   UNL     1      -0.616 -12.258  -1.354  0.00  0.00    +0.300 C 
ATOM     23  O   UNL     1      -0.186 -13.299  -0.895  0.00  0.00    -0.253 OA
ATOM     24  N   UNL     1      -1.239 -12.256  -2.549  0.00  0.00    -0.302 N 
ATOM     25  C   UNL     1      -1.399 -13.506  -3.294  0.00  0.00    +0.129 C 
ATOM     26  H   UNL     1      -0.812 -10.278  -1.034  0.00  0.00    +0.151 HD
ATOM     27  H   UNL     1      -1.582 -11.425  -2.915  0.00  0.00    +0.150 HD
ENDBRANCH  18  21
ENDBRANCH   2  18
TORSDOF 5
