REMARK  Name = ZINC62965498
REMARK  5 active torsions:
REMARK  status: ('A' for Active; 'I' for Inactive)
REMARK    1  A    between atoms: C_1  and  C_2
REMARK    2  A    between atoms: C_4  and  N_8
REMARK    3  A    between atoms: C_11  and  N_14
REMARK    4  A    between atoms: N_14  and  C_15
REMARK    5  A    between atoms: N_14  and  C_16
REMARK                            x       y       z     vdW  Elec       q    Type
REMARK                         _______ _______ _______ _____ _____    ______ ____
ROOT
ATOM      1  C   UNL     1      -0.013   1.086   0.008  0.00  0.00    +0.085 C 
ATOM      2  C   UNL     1      -0.742   1.585  -1.213  0.00  0.00    +0.102 C 
ATOM      3  N   UNL     1      -1.256   0.800  -2.106  0.00  0.00    -0.245 NA
ATOM      4  C   UNL     1      -1.871   1.672  -3.123  0.00  0.00    +0.238 C 
ATOM      5  C   UNL     1      -1.584   3.066  -2.598  0.00  0.00    +0.111 C 
ATOM      6  N   UNL     1      -0.927   2.882  -1.480  0.00  0.00    -0.333 N 
ATOM      7  N   UNL     1      -1.938   4.250  -3.163  0.00  0.00    -0.345 N 
ATOM      8  H   UNL     1      -2.431   4.261  -3.998  0.00  0.00    +0.143 HD
ATOM      9  H   UNL     1      -1.696   5.085  -2.731  0.00  0.00    +0.143 HD
ATOM     10  H   UNL     1      -0.609   3.602  -0.913  0.00  0.00    +0.168 HD
ENDROOT
BRANCH   4  11
ATOM     11  N   UNL     1      -3.319   1.435  -3.203  0.00  0.00    -0.277 NA
ATOM     12  C   UNL     1      -3.954   1.581  -1.876  0.00  0.00    +0.085 C 
ATOM     13  C   UNL     1      -5.111   0.550  -1.876  0.00  0.00    +0.001 C 
ATOM     14  C   UNL     1      -4.479  -0.629  -2.661  0.00  0.00    -0.054 C 
ATOM     15  C   UNL     1      -3.606   0.083  -3.715  0.00  0.00    +0.071 C 
BRANCH  14  16
ATOM     16  N   UNL     1      -5.521  -1.440  -3.307  0.00  0.00    +0.379 N 
ATOM     17  C   UNL     1      -4.893  -2.527  -4.070  0.00  0.00    -0.096 C 
ATOM     18  C   UNL     1      -6.404  -2.009  -2.280  0.00  0.00    -0.096 C 
ATOM     19  H   UNL     1      -6.061  -0.859  -3.930  0.00  0.00    -0.082 HD
ENDBRANCH  14  16
ENDBRANCH   4  11
TORSDOF 2
