REMARK  Name = ZINC24961064
REMARK  2 active torsions:
REMARK  status: ('A' for Active; 'I' for Inactive)
REMARK    1  A    between atoms: C_11  and  C_14
REMARK    2  A    between atoms: C_14  and  C_15
REMARK                            x       y       z     vdW  Elec       q    Type
REMARK                         _______ _______ _______ _____ _____    ______ ____
ROOT
ATOM      1  C   UNL     1      -2.179   1.896   1.233  0.00  0.00    +0.217 C 
ATOM      2  O   UNL     1      -2.603   1.264   0.289  0.00  0.00    -0.276 OA
ATOM      3  N   UNL     1      -3.003   2.227   2.247  0.00  0.00    -0.301 N 
ATOM      4  C   UNL     1      -2.503   2.988   3.400  0.00  0.00    +0.110 C 
ATOM      5  C   UNL     1      -2.840   2.227   4.682  0.00  0.00    +0.054 C 
ATOM      6  C   UNL     1      -4.334   1.922   4.713  0.00  0.00    +0.115 C 
ATOM      7  C   UNL     1      -4.739   1.071   3.515  0.00  0.00    +0.054 C 
ATOM      8  C   UNL     1      -4.417   1.828   2.221  0.00  0.00    +0.110 C 
ATOM      9  C   UNL     1      -4.703   1.227   6.003  0.00  0.00    +0.244 C 
ATOM     10  O   UNL     1      -4.297   0.156   6.402  0.00  0.00    -0.273 OA
ATOM     11  N   UNL     1      -5.580   2.047   6.617  0.00  0.00    -0.238 N 
ATOM     12  C   UNL     1      -5.810   3.152   5.896  0.00  0.00    +0.307 C 
ATOM     13  O   UNL     1      -6.563   4.041   6.242  0.00  0.00    -0.252 OA
ATOM     14  N   UNL     1      -5.112   3.168   4.745  0.00  0.00    -0.285 N 
ATOM     15  H   UNL     1      -6.008   1.766   7.591  0.00  0.00    +0.159 HD
ATOM     16  H   UNL     1      -5.037   3.884   3.913  0.00  0.00    +0.151 HD
ENDROOT
BRANCH   1  17
ATOM     17  C   UNL     1      -0.731   2.313   1.273  0.00  0.00    +0.119 C 
BRANCH  17  28
ATOM     18  C   UNL     1       2.176  -1.837   2.851  0.00  0.00    +0.021 A 
ATOM     19  C   UNL     1       1.190  -1.548   1.924  0.00  0.00    +0.018 A 
ATOM     20  C   UNL     1       1.254  -0.375   1.191  0.00  0.00    +0.030 A 
ATOM     21  C   UNL     1       2.303   0.524   1.380  0.00  0.00    +0.048 A 
ATOM     22  C   UNL     1       3.290   0.220   2.313  0.00  0.00    +0.044 A 
ATOM     23  C   UNL     1       3.223  -0.953   3.040  0.00  0.00    +0.043 A 
ATOM     24 CL   UNL     1       4.462  -1.319   4.200  0.00  0.00    -0.083 Cl
ATOM     25  N   UNL     1       2.382   1.721   0.674  0.00  0.00    -0.284 N 
ATOM     26  C   UNL     1       1.400   2.311   0.001  0.00  0.00    +0.231 C 
ATOM     27  O   UNL     1       1.662   3.298  -0.655  0.00  0.00    -0.274 OA
ATOM     28  C   UNL     1      -0.023   1.815   0.012  0.00  0.00    +0.146 C 
ATOM     29  S   UNL     1       0.002  -0.004   0.002  0.00  0.00    -0.110 S 
ATOM     30  H   UNL     1       3.331   2.276   0.637  0.00  0.00    +0.155 HD
ENDBRANCH  17  28
ENDBRANCH   1  17
TORSDOF 2
