REMARK  Name = ZINC01748113
REMARK  14 active torsions:
REMARK  status: ('A' for Active; 'I' for Inactive)
REMARK    1  A    between atoms: C_1  and  C_2
REMARK    2  A    between atoms: C_2  and  O_3
REMARK    3  A    between atoms: O_3  and  C_4
REMARK    4  A    between atoms: C_4  and  C_6
REMARK    5  A    between atoms: C_6  and  N_7
REMARK    6  A    between atoms: N_7  and  S_8
REMARK    7  A    between atoms: S_8  and  C_11
REMARK    8  A    between atoms: C_13  and  C_18
REMARK    9  A    between atoms: C_16  and  C_17
REMARK   10  A    between atoms: N_26  and  C_27
REMARK   11  A    between atoms: C_30  and  O_33
REMARK   12  A    between atoms: O_33  and  C_34
REMARK   13  A    between atoms: C_34  and  C_35
REMARK   14  A    between atoms: N_37  and  C_38
REMARK                            x       y       z     vdW  Elec       q    Type
REMARK                         _______ _______ _______ _____ _____    ______ ____
ROOT
ATOM      1  C   UNL     1      -3.091   1.907  -4.540  0.00  0.00    +0.099 A 
ATOM      2  C   UNL     1      -3.003   2.406  -5.922  0.00  0.00    +0.013 A 
ATOM      3  C   UNL     1      -1.984   3.261  -6.336  0.00  0.00    +0.011 A 
ATOM      4  C   UNL     1      -1.954   3.700  -7.643  0.00  0.00    +0.001 A 
ATOM      5  C   UNL     1      -2.925   3.300  -8.550  0.00  0.00    +0.001 A 
ATOM      6  C   UNL     1      -3.942   2.453  -8.162  0.00  0.00    +0.012 A 
ATOM      7  C   UNL     1      -3.988   1.999  -6.850  0.00  0.00    +0.028 A 
ATOM      8  C   UNL     1      -5.039   1.085  -6.362  0.00  0.00    +0.155 A 
ATOM      9  N   UNL     1      -6.212   0.986  -6.956  0.00  0.00    -0.228 NA
ATOM     10  N   UNL     1      -4.716   0.340  -5.240  0.00  0.00    -0.260 N 
ATOM     11  H   UNL     1      -5.034  -0.572  -5.142  0.00  0.00    +0.191 HD
ATOM     12  N   UNL     1      -3.914   0.928  -4.250  0.00  0.00    -0.172 NA
ENDROOT
BRANCH   1  15
ATOM     13  C   UNL     1      -1.143   4.415  -2.531  0.00  0.00    +0.109 A 
ATOM     14  C   UNL     1      -1.934   3.864  -3.519  0.00  0.00    +0.039 A 
ATOM     15  C   UNL     1      -2.248   2.506  -3.480  0.00  0.00    +0.005 A 
ATOM     16  C   UNL     1      -1.769   1.714  -2.436  0.00  0.00    +0.010 A 
ATOM     17  C   UNL     1      -0.984   2.278  -1.451  0.00  0.00    +0.006 A 
ATOM     18  C   UNL     1      -0.671   3.625  -1.498  0.00  0.00    -0.024 A 
ATOM     19  C   UNL     1       0.187   4.234  -0.419  0.00  0.00    +0.046 C 
BRANCH  13  20
ATOM     20  S   UNL     1      -0.739   6.129  -2.582  0.00  0.00    +0.059 S 
ATOM     21  O   UNL     1      -1.012   6.649  -1.288  0.00  0.00    -0.153 OA
ATOM     22  O   UNL     1      -1.343   6.654  -3.756  0.00  0.00    -0.153 OA
BRANCH  20  23
ATOM     23  N   UNL     1       0.898   6.240  -2.800  0.00  0.00    -0.179 NA
ATOM     24  H   UNL     1       1.454   6.634  -2.110  0.00  0.00    +0.149 HD
BRANCH  23  25
ATOM     25  C   UNL     1       1.508   5.739  -4.035  0.00  0.00    +0.226 C 
BRANCH  25  26
ATOM     26  C   UNL     1       2.902   6.295  -4.168  0.00  0.00    +0.323 C 
ATOM     27  O   UNL     1       3.342   7.034  -3.319  0.00  0.00    -0.249 OA
BRANCH  26  28
ATOM     28  O   UNL     1       3.656   5.969  -5.229  0.00  0.00    -0.464 OA
BRANCH  28  30
ATOM     29  C   UNL     1       5.692   6.060  -6.563  0.00  0.00    +0.048 C 
ATOM     30  C   UNL     1       4.989   6.542  -5.292  0.00  0.00    +0.229 C 
ENDBRANCH  28  30
ENDBRANCH  26  28
ENDBRANCH  25  26
ENDBRANCH  23  25
ENDBRANCH  20  23
ENDBRANCH  13  20
ENDBRANCH   1  15
BRANCH   9  31
ATOM     31  C   UNL     1      -7.191   0.204  -6.408  0.00  0.00    +0.066 A 
ATOM     32  C   UNL     1      -7.238  -1.163  -6.692  0.00  0.00    +0.031 A 
ATOM     33  C   UNL     1      -8.226  -1.948  -6.134  0.00  0.00    +0.048 A 
ATOM     34  C   UNL     1      -9.178  -1.379  -5.299  0.00  0.00    +0.121 A 
ATOM     35  C   UNL     1      -9.138  -0.021  -5.018  0.00  0.00    +0.048 A 
ATOM     36  C   UNL     1      -8.152   0.771  -5.567  0.00  0.00    +0.031 A 
BRANCH  34  37
ATOM     37  O   UNL     1     -10.152  -2.156  -4.755  0.00  0.00    -0.483 OA
BRANCH  37  38
ATOM     38  C   UNL     1     -10.134  -3.546  -5.086  0.00  0.00    +0.324 C 
BRANCH  38  39
ATOM     39  C   UNL     1     -11.280  -4.242  -4.397  0.00  0.00    +0.250 C 
ATOM     40  O   UNL     1     -12.037  -3.609  -3.691  0.00  0.00    -0.272 OA
ATOM     41  N   UNL     1     -11.463  -5.566  -4.564  0.00  0.00    -0.316 N 
ATOM     42  C   UNL     1     -12.576  -6.242  -3.894  0.00  0.00    +0.128 C 
ATOM     43  H   UNL     1     -10.857  -6.072  -5.129  0.00  0.00    +0.148 HD
ENDBRANCH  38  39
ENDBRANCH  37  38
ENDBRANCH  34  37
ENDBRANCH   9  31
TORSDOF 11
