REMARK  Name = ZINC02556265
REMARK  3 active torsions:
REMARK  status: ('A' for Active; 'I' for Inactive)
REMARK    1  A    between atoms: C_4  and  N_14
REMARK    2  A    between atoms: C_6  and  S_7
REMARK    3  A    between atoms: S_7  and  C_10
REMARK                            x       y       z     vdW  Elec       q    Type
REMARK                         _______ _______ _______ _____ _____    ______ ____
ROOT
ATOM      1  C   UNL     1      -0.520   3.062   2.128  0.00  0.00    +0.029 A 
ATOM      2  C   UNL     1      -1.135   3.407   3.319  0.00  0.00    +0.024 A 
ATOM      3  C   UNL     1      -2.020   2.532   3.919  0.00  0.00    +0.062 A 
ATOM      4  C   UNL     1      -2.296   1.308   3.322  0.00  0.00    +0.045 A 
ATOM      5  C   UNL     1      -1.682   0.968   2.124  0.00  0.00    +0.051 A 
ATOM      6  C   UNL     1      -0.798   1.847   1.530  0.00  0.00    +0.099 A 
ATOM      7 CL   UNL     1      -2.785   2.962   5.417  0.00  0.00    -0.082 Cl
ENDROOT
BRANCH   6   8
ATOM      8  S   UNL     1      -0.017   1.417   0.010  0.00  0.00    +0.091 S 
ATOM      9  O   UNL     1       0.002  -0.004   0.002  0.00  0.00    -0.161 OA
ATOM     10  O   UNL     1       1.195   2.158   0.002  0.00  0.00    -0.161 OA
BRANCH   8  11
ATOM     11  C   UNL     1      -1.135   2.034  -1.279  0.00  0.00    +0.526 C 
ATOM     12  F   UNL     1      -1.280   3.419  -1.147  0.00  0.00    -0.150 F 
ATOM     13  F   UNL     1      -0.601   1.739  -2.539  0.00  0.00    -0.150 F 
ATOM     14  F   UNL     1      -2.384   1.419  -1.147  0.00  0.00    -0.150 F 
ENDBRANCH   8  11
ENDBRANCH   6   8
BRANCH   4  15
ATOM     15  N   UNL     1      -3.192   0.420   3.926  0.00  0.00    -0.357 N 
ATOM     16  H   UNL     1      -3.384  -0.434   3.509  0.00  0.00    +0.142 HD
ATOM     17  H   UNL     1      -3.620   0.659   4.763  0.00  0.00    +0.142 HD
ENDBRANCH   4  15
TORSDOF 3
