REMARK  Name = ZINC12878393
REMARK  11 active torsions:
REMARK  status: ('A' for Active; 'I' for Inactive)
REMARK    1  A    between atoms: C_1  and  C_2
REMARK    2  A    between atoms: C_9  and  C_14
REMARK    3  A    between atoms: C_14  and  N_72
REMARK    4  A    between atoms: C_21  and  O_37
REMARK    5  A    between atoms: C_23  and  C_36
REMARK    6  A    between atoms: C_26  and  O_32
REMARK    7  A    between atoms: C_29  and  O_31
REMARK    8  A    between atoms: O_32  and  C_33
REMARK    9  A    between atoms: C_33  and  C_35
REMARK   10  A    between atoms: O_37  and  C_38
REMARK   11  A    between atoms: C_38  and  C_40
REMARK                            x       y       z     vdW  Elec       q    Type
REMARK                         _______ _______ _______ _____ _____    ______ ____
ROOT
ATOM      1  C   UNL     1       1.976   3.432   2.989  0.00  0.00    +0.008 C 
ATOM      2  C   UNL     1       2.792   3.638   1.701  0.00  0.00    -0.003 C 
ATOM      3  C   UNL     1       2.427   4.981   1.117  0.00  0.00    +0.048 C 
ATOM      4  C   UNL     1       3.346   5.541   0.100  0.00  0.00    +0.184 C 
ATOM      5  C   UNL     1       3.529   4.477  -1.033  0.00  0.00    +0.083 C 
ATOM      6  C   UNL     1       4.002   5.416  -2.155  0.00  0.00    +0.091 C 
ATOM      7  C   UNL     1       3.080   6.614  -1.920  0.00  0.00    +0.309 C 
ATOM      8  O   UNL     1       2.639   7.333  -2.777  0.00  0.00    -0.251 OA
ATOM      9  O   UNL     1       2.884   6.725  -0.591  0.00  0.00    -0.461 OA
ATOM     10  C   UNL     1       4.552   3.476  -0.539  0.00  0.00    +0.192 C 
ATOM     11  C   UNL     1       3.870   2.184  -0.092  0.00  0.00    +0.038 C 
ATOM     12  C   UNL     1       2.655   2.425   0.849  0.00  0.00    +0.045 C 
ATOM     13  C   UNL     1       1.389   2.208   0.047  0.00  0.00    +0.183 C 
ATOM     14  C   UNL     1       1.807   1.850  -1.391  0.00  0.00    +0.077 C 
ATOM     15  C   UNL     1       3.292   1.452  -1.317  0.00  0.00    +0.128 C 
ATOM     16  C   UNL     1       4.899   1.277   0.609  0.00  0.00    +0.018 C 
ENDROOT
BRANCH  15  17
ATOM     17  O   UNL     1       3.412   0.036  -1.149  0.00  0.00    -0.391 OA
ATOM     18  H   UNL     1       3.039  -0.479  -1.877  0.00  0.00    +0.210 HD
ENDBRANCH  15  17
BRANCH   6  19
ATOM     19  C   UNL     1       5.452   5.867  -1.977  0.00  0.00    -0.064 C 
BRANCH  19  26
ATOM     20  C   UNL     1       5.769   6.323  -4.343  0.00  0.00    -0.079 C 
ATOM     21  C   UNL     1       6.351   7.258  -5.368  0.00  0.00    -0.019 C 
ATOM     22  C   UNL     1       7.850   6.929  -5.535  0.00  0.00    -0.002 C 
ATOM     23  C   UNL     1       8.659   7.481  -4.454  0.00  0.00    -0.002 C 
ATOM     24  C   UNL     1       8.256   6.914  -3.076  0.00  0.00    -0.019 C 
ATOM     25  C   UNL     1       7.010   7.620  -2.615  0.00  0.00    -0.079 C 
ATOM     26  N   UNL     1       5.726   6.922  -2.966  0.00  0.00    +0.380 N 
ATOM     27  H   UNL     1       4.965   7.610  -2.936  0.00  0.00    -0.082 HD
ENDBRANCH  19  26
ENDBRANCH   6  19
BRANCH  13  28
ATOM     28  O   UNL     1       0.494   3.338   0.041  0.00  0.00    -0.461 OA
BRANCH  28  29
ATOM     29  C   UNL     1      -0.821   3.074  -0.020  0.00  0.00    +0.304 C 
ATOM     30  O   UNL     1      -1.206   1.929  -0.066  0.00  0.00    -0.251 OA
ATOM     31  C   UNL     1      -1.817   4.205  -0.037  0.00  0.00    +0.136 C 
ENDBRANCH  28  29
ENDBRANCH  13  28
BRANCH  10  32
ATOM     32  O   UNL     1       5.501   3.133  -1.591  0.00  0.00    -0.460 OA
BRANCH  32  33
ATOM     33  C   UNL     1       6.777   2.942  -1.222  0.00  0.00    +0.304 C 
ATOM     34  O   UNL     1       7.107   3.122  -0.073  0.00  0.00    -0.251 OA
ATOM     35  C   UNL     1       7.798   2.504  -2.240  0.00  0.00    +0.136 C 
ENDBRANCH  32  33
ENDBRANCH  10  32
TORSDOF 7
