REMARK  Name = ZINC58999253
REMARK  8 active torsions:
REMARK  status: ('A' for Active; 'I' for Inactive)
REMARK    1  A    between atoms: C_1  and  C_2
REMARK    2  A    between atoms: C_9  and  N_17
REMARK    3  A    between atoms: C_10  and  C_11
REMARK    4  A    between atoms: C_11  and  O_13
REMARK    5  A    between atoms: O_13  and  C_14
REMARK    6  A    between atoms: C_14  and  C_15
REMARK    7  A    between atoms: C_14  and  C_16
REMARK    8  A    between atoms: C_18  and  C_20
REMARK                            x       y       z     vdW  Elec       q    Type
REMARK                         _______ _______ _______ _____ _____    ______ ____
ROOT
ATOM      1  C   UNL     1      -0.019   1.526   0.010  0.00  0.00    +0.008 C 
ATOM      2  C   UNL     1       0.002  -0.004   0.002  0.00  0.00    -0.009 C 
ATOM      3  C   UNL     1      -1.434  -0.537   0.019  0.00  0.00    +0.008 C 
ATOM      4  C   UNL     1      -1.432  -2.045  -0.237  0.00  0.00    +0.037 C 
ATOM      5  C   UNL     1      -0.464  -2.704   0.735  0.00  0.00    -0.021 A 
ATOM      6  C   UNL     1       0.485  -1.986   1.374  0.00  0.00    -0.004 A 
ATOM      7  S   UNL     1       1.344  -3.167   2.373  0.00  0.00    -0.077 S 
ATOM      8  C   UNL     1       0.494  -4.558   1.968  0.00  0.00    +0.086 A 
ATOM      9  C   UNL     1      -0.459  -4.120   1.061  0.00  0.00    +0.091 A 
ATOM     10  C   UNL     1       0.739  -0.515   1.248  0.00  0.00    +0.046 C 
ENDROOT
BRANCH   8  11
ATOM     11  N   UNL     1       0.698  -5.847   2.435  0.00  0.00    -0.279 N 
ATOM     12  C   UNL     1       1.679  -6.094   3.325  0.00  0.00    +0.226 C 
ATOM     13  O   UNL     1       2.384  -5.189   3.717  0.00  0.00    -0.275 OA
ATOM     14  H   UNL     1       0.134  -6.571   2.121  0.00  0.00    +0.155 HD
BRANCH  12  15
ATOM     15  C   UNL     1       1.901  -7.496   3.832  0.00  0.00    +0.116 C 
ATOM     16  C   UNL     1       2.226  -8.418   2.656  0.00  0.00    +0.113 C 
ATOM     17  C   UNL     1       3.605  -8.116   2.135  0.00  0.00    +0.218 C 
ATOM     18  O   UNL     1       3.828  -8.202   0.946  0.00  0.00    -0.275 OA
ATOM     19  N   UNL     1       4.593  -7.750   2.972  0.00  0.00    -0.285 N 
ATOM     20  C   UNL     1       4.351  -7.628   4.343  0.00  0.00    +0.037 A 
ATOM     21  C   UNL     1       3.048  -7.501   4.808  0.00  0.00    -0.014 A 
ATOM     22  C   UNL     1       2.808  -7.381   6.162  0.00  0.00    +0.006 A 
ATOM     23  C   UNL     1       3.864  -7.386   7.056  0.00  0.00    +0.000 A 
ATOM     24  C   UNL     1       5.162  -7.511   6.596  0.00  0.00    +0.002 A 
ATOM     25  C   UNL     1       5.408  -7.632   5.243  0.00  0.00    +0.023 A 
ATOM     26  H   UNL     1       5.479  -7.570   2.622  0.00  0.00    +0.155 HD
ENDBRANCH  12  15
ENDBRANCH   8  11
BRANCH   9  27
ATOM     27  C   UNL     1      -1.419  -5.045   0.456  0.00  0.00    +0.342 C 
ATOM     28  O   UNL     1      -1.147  -5.610  -0.586  0.00  0.00    -0.245 OA
BRANCH  27  29
ATOM     29  O   UNL     1      -2.607  -5.272   1.056  0.00  0.00    -0.458 OA
BRANCH  29  30
ATOM     30  C   UNL     1      -3.495  -6.186   0.410  0.00  0.00    +0.171 C 
ATOM     31  C   UNL     1      -3.229  -7.603   0.923  0.00  0.00    +0.052 C 
ATOM     32  C   UNL     1      -4.942  -5.795   0.719  0.00  0.00    +0.052 C 
ENDBRANCH  29  30
ENDBRANCH  27  29
ENDBRANCH   9  27
TORSDOF 5
