REMARK  Name = ZINC62726310
REMARK  6 active torsions:
REMARK  status: ('A' for Active; 'I' for Inactive)
REMARK    1  A    between atoms: C_4  and  N_19
REMARK    2  A    between atoms: C_5  and  C_7
REMARK    3  A    between atoms: C_7  and  C_8
REMARK    4  A    between atoms: C_8  and  N_9
REMARK    5  A    between atoms: N_9  and  C_10
REMARK    6  A    between atoms: C_15  and  C_16
REMARK                            x       y       z     vdW  Elec       q    Type
REMARK                         _______ _______ _______ _____ _____    ______ ____
ROOT
ATOM      1  C   UNL     1       1.564  -2.692   1.401  0.00  0.00    +0.106 C 
ENDROOT
BRANCH   1   2
ATOM      2  N   UNL     1       1.730  -4.147   1.384  0.00  0.00    -0.342 N 
ATOM      3  H   UNL     1       1.792  -4.619   0.539  0.00  0.00    +0.146 HD
BRANCH   2   4
ATOM      4  C   UNL     1       1.800  -4.852   2.580  0.00  0.00    +0.048 A 
ATOM      5  C   UNL     1       1.707  -4.181   3.792  0.00  0.00    +0.024 A 
ATOM      6  C   UNL     1       1.775  -4.882   4.980  0.00  0.00    +0.005 A 
ATOM      7  C   UNL     1       1.938  -6.257   4.975  0.00  0.00    +0.040 A 
ATOM      8  C   UNL     1       2.033  -6.944   3.780  0.00  0.00    +0.142 A 
ATOM      9  C   UNL     1       1.959  -6.247   2.569  0.00  0.00    +0.108 A 
ATOM     10  F   UNL     1       2.191  -8.285   3.781  0.00  0.00    -0.204 F 
BRANCH   9  11
ATOM     11  C   UNL     1       2.051  -6.952   1.325  0.00  0.00    +0.104 C 
ATOM     12  N   UNL     1       2.123  -7.511   0.339  0.00  0.00    -0.191 NA
ENDBRANCH   9  11
ENDBRANCH   2   4
ENDBRANCH   1   2
BRANCH   1  13
ATOM     13  C   UNL     1       1.518  -2.167  -0.036  0.00  0.00    +0.056 C 
BRANCH  13  18
ATOM     14  C   UNL     1      -0.063   1.258  -0.187  0.00  0.00    +0.000 A 
ATOM     15  C   UNL     1       1.033   2.077   0.009  0.00  0.00    +0.002 A 
ATOM     16  C   UNL     1       2.286   1.522   0.191  0.00  0.00    +0.033 A 
ATOM     17  C   UNL     1       2.443   0.148   0.176  0.00  0.00    +0.129 A 
ATOM     18  C   UNL     1       1.347  -0.670  -0.019  0.00  0.00    -0.016 A 
ATOM     19  C   UNL     1       0.093  -0.115  -0.202  0.00  0.00    +0.006 A 
BRANCH  17  20
ATOM     20  N   UNL     1       3.785  -0.446   0.369  0.00  0.00    +0.057 N 
ATOM     21  O   UNL     1       4.758   0.269   0.435  0.00  0.00    -0.126 OA
ATOM     22  O   UNL     1       3.908  -1.645   0.462  0.00  0.00    -0.126 OA
ENDBRANCH  17  20
ENDBRANCH  13  18
ENDBRANCH   1  13
TORSDOF 6
