REMARK  Name = ZINC57476726
REMARK  5 active torsions:
REMARK  status: ('A' for Active; 'I' for Inactive)
REMARK    1  A    between atoms: C_2  and  N_22
REMARK    2  A    between atoms: C_3  and  N_12
REMARK    3  A    between atoms: C_17  and  C_19
REMARK    4  A    between atoms: C_19  and  C_20
REMARK    5  A    between atoms: C_20  and  O_21
REMARK                            x       y       z     vdW  Elec       q    Type
REMARK                         _______ _______ _______ _____ _____    ______ ____
ROOT
ATOM      1  C   UNL     1      -0.098   1.740  -0.135  0.00  0.00    +0.072 A 
ATOM      2  C   UNL     1       1.151   2.344  -0.137  0.00  0.00    +0.049 A 
ATOM      3  C   UNL     1       2.303   1.568  -0.020  0.00  0.00    +0.053 A 
ATOM      4  C   UNL     1       2.200   0.190   0.100  0.00  0.00    +0.052 A 
ATOM      5  C   UNL     1       0.952  -0.412   0.103  0.00  0.00    +0.078 A 
ATOM      6  C   UNL     1      -0.199   0.364  -0.015  0.00  0.00    +0.144 A 
ATOM      7  O   UNL     1      -1.417  -0.242  -0.014  0.00  0.00    -0.481 OA
ATOM      8  C   UNL     1      -1.488  -1.545  -0.598  0.00  0.00    +0.325 C 
ATOM      9  C   UNL     1      -0.346  -2.390  -0.090  0.00  0.00    +0.255 C 
ATOM     10  O   UNL     1      -0.484  -3.588   0.035  0.00  0.00    -0.272 OA
ATOM     11  N   UNL     1       0.830  -1.806   0.226  0.00  0.00    -0.280 N 
ATOM     12  H   UNL     1       1.579  -2.341   0.531  0.00  0.00    +0.155 HD
ENDROOT
BRANCH   3  13
ATOM     13  N   UNL     1       3.565   2.180  -0.024  0.00  0.00    -0.325 N 
ATOM     14  C   UNL     1       4.182   2.631   1.231  0.00  0.00    +0.105 C 
ATOM     15  C   UNL     1       4.569   4.106   1.088  0.00  0.00    +0.019 C 
ATOM     16  C   UNL     1       5.456   4.279  -0.147  0.00  0.00    +0.003 C 
ATOM     17  C   UNL     1       4.680   3.860  -1.398  0.00  0.00    +0.022 C 
ATOM     18  C   UNL     1       4.297   2.377  -1.282  0.00  0.00    +0.076 C 
BRANCH  18  19
ATOM     19  C   UNL     1       3.406   1.982  -2.462  0.00  0.00    +0.050 C 
BRANCH  19  20
ATOM     20  C   UNL     1       4.215   2.055  -3.758  0.00  0.00    +0.157 C 
BRANCH  20  21
ATOM     21  O   UNL     1       3.363   1.760  -4.868  0.00  0.00    -0.395 OA
ATOM     22  H   UNL     1       3.810   1.788  -5.725  0.00  0.00    +0.209 HD
ENDBRANCH  20  21
ENDBRANCH  19  20
ENDBRANCH  18  19
ENDBRANCH   3  13
BRANCH   2  23
ATOM     23  N   UNL     1       1.255   3.737  -0.258  0.00  0.00    -0.356 N 
ATOM     24  H   UNL     1       0.454   4.278  -0.340  0.00  0.00    +0.142 HD
ATOM     25  H   UNL     1       2.128   4.160  -0.260  0.00  0.00    +0.142 HD
ENDBRANCH   2  23
TORSDOF 5
