REMARK  Name = ZINC30791368
REMARK  11 active torsions:
REMARK  status: ('A' for Active; 'I' for Inactive)
REMARK    1  A    between atoms: C_1  and  C_2
REMARK    2  A    between atoms: C_2  and  O_3
REMARK    3  A    between atoms: O_3  and  C_4
REMARK    4  A    between atoms: C_6  and  C_12
REMARK    5  A    between atoms: C_9  and  O_10
REMARK    6  A    between atoms: N_13  and  N_14
REMARK    7  A    between atoms: C_15  and  C_17
REMARK    8  A    between atoms: C_24  and  C_28
REMARK    9  A    between atoms: C_28  and  C_29
REMARK   10  A    between atoms: C_28  and  C_30
REMARK   11  A    between atoms: C_28  and  C_31
REMARK                            x       y       z     vdW  Elec       q    Type
REMARK                         _______ _______ _______ _____ _____    ______ ____
ROOT
ATOM      1  N   UNL     1      -0.637   6.629  -0.837  0.00  0.00    -0.204 N 
ATOM      2  C   UNL     1       0.324   5.747  -0.498  0.00  0.00    +0.276 C 
ATOM      3  O   UNL     1       1.009   5.944   0.483  0.00  0.00    -0.270 OA
ATOM      4  H   UNL     1      -1.258   6.450  -1.727  0.00  0.00    +0.177 HD
ENDROOT
BRANCH   2   5
ATOM      5  C   UNL     1       0.545   4.515  -1.337  0.00  0.00    +0.297 C 
ATOM      6  C   UNL     1      -0.679   3.595  -1.240  0.00  0.00    +0.283 C 
ATOM      7  O   UNL     1      -0.429   2.432  -2.037  0.00  0.00    -0.484 OA
ATOM      8  C   UNL     1       0.787   1.839  -1.887  0.00  0.00    +0.162 A 
ATOM      9  C   UNL     1       0.969   0.538  -2.333  0.00  0.00    +0.050 A 
ATOM     10  C   UNL     1       2.201  -0.074  -2.196  0.00  0.00    +0.008 A 
ATOM     11  C   UNL     1       3.254   0.608  -1.615  0.00  0.00    -0.038 A 
ATOM     12  C   UNL     1       3.078   1.903  -1.167  0.00  0.00    +0.053 A 
ATOM     13  C   UNL     1       1.844   2.523  -1.301  0.00  0.00    +0.163 A 
ATOM     14  O   UNL     1       1.685   3.797  -0.849  0.00  0.00    -0.472 OA
BRANCH  11  15
ATOM     15  C   UNL     1       4.595  -0.063  -1.469  0.00  0.00    -0.013 C 
ATOM     16  C   UNL     1       4.521  -1.481  -2.038  0.00  0.00    +0.015 C 
ATOM     17  C   UNL     1       5.652   0.738  -2.232  0.00  0.00    +0.015 C 
ATOM     18  C   UNL     1       4.974  -0.128   0.012  0.00  0.00    +0.015 C 
ENDBRANCH  11  15
ENDBRANCH   2   5
BRANCH   1  20
ATOM     19  C   UNL     1      -1.842   8.563  -0.313  0.00  0.00    +0.138 C 
ATOM     20  N   UNL     1      -0.843   7.775  -0.057  0.00  0.00    -0.188 NA
BRANCH  19  23
ATOM     21  C   UNL     1      -5.033   8.473  -2.290  0.00  0.00    +0.163 A 
ATOM     22  C   UNL     1      -3.943   8.952  -1.588  0.00  0.00    +0.059 A 
ATOM     23  C   UNL     1      -3.006   8.058  -1.063  0.00  0.00    -0.001 A 
ATOM     24  C   UNL     1      -3.172   6.684  -1.257  0.00  0.00    +0.028 A 
ATOM     25  C   UNL     1      -4.266   6.213  -1.954  0.00  0.00    +0.063 A 
ATOM     26  C   UNL     1      -5.196   7.102  -2.475  0.00  0.00    +0.173 A 
ATOM     27 BR   UNL     1      -4.493   4.353  -2.208  0.00  0.00    -0.046 Br
BRANCH  26  28
ATOM     28  O   UNL     1      -6.268   6.633  -3.167  0.00  0.00    -0.503 OA
ATOM     29  H   UNL     1      -6.398   5.551  -3.313  0.00  0.00    +0.292 HD
ENDBRANCH  26  28
BRANCH  21  30
ATOM     30  O   UNL     1      -5.946   9.341  -2.802  0.00  0.00    -0.489 OA
BRANCH  30  32
ATOM     31  C   UNL     1      -6.840  11.547  -3.221  0.00  0.00    +0.048 C 
ATOM     32  C   UNL     1      -5.716  10.733  -2.576  0.00  0.00    +0.226 C 
ENDBRANCH  30  32
ENDBRANCH  21  30
ENDBRANCH  19  23
ENDBRANCH   1  20
TORSDOF 7
