REMARK  Name = ZINC09333844
REMARK  3 active torsions:
REMARK  status: ('A' for Active; 'I' for Inactive)
REMARK    1  A    between atoms: C_8  and  C_26
REMARK    2  A    between atoms: C_13  and  C_18
REMARK    3  A    between atoms: C_29  and  N_31
REMARK                            x       y       z     vdW  Elec       q    Type
REMARK                         _______ _______ _______ _____ _____    ______ ____
ROOT
ATOM      1  C   UNL     1      -2.504   5.497   2.280  0.00  0.00    +0.002 A 
ATOM      2  C   UNL     1      -3.174   5.942   1.153  0.00  0.00    +0.002 A 
ATOM      3  C   UNL     1      -2.486   6.227  -0.005  0.00  0.00    +0.029 A 
ATOM      4  C   UNL     1      -1.095   6.070  -0.066  0.00  0.00    +0.085 A 
ATOM      5  C   UNL     1      -0.430   5.581   1.084  0.00  0.00    +0.053 A 
ATOM      6  C   UNL     1      -1.133   5.318   2.241  0.00  0.00    +0.025 A 
ATOM      7  N   UNL     1       0.931   5.362   0.982  0.00  0.00    -0.332 N 
ATOM      8  C   UNL     1       1.476   4.447   0.011  0.00  0.00    +0.153 C 
ATOM      9  C   UNL     1       1.522   4.985  -1.381  0.00  0.00    +0.127 C 
ATOM     10  C   UNL     1       2.533   4.562  -2.167  0.00  0.00    +0.145 C 
ATOM     11  C   UNL     1       2.689   5.008  -3.591  0.00  0.00    +0.083 C 
ATOM     12  C   UNL     1       1.299   5.312  -4.163  0.00  0.00    +0.032 C 
ATOM     13  C   UNL     1       0.654   6.388  -3.292  0.00  0.00    +0.060 C 
ATOM     14  C   UNL     1       0.551   5.895  -1.854  0.00  0.00    +0.033 C 
ATOM     15  N   UNL     1      -0.429   6.384  -1.183  0.00  0.00    -0.254 NA
ATOM     16  O   UNL     1       3.440   3.704  -1.653  0.00  0.00    -0.297 OA
ATOM     17  H   UNL     1       1.533   5.834   1.578  0.00  0.00    +0.147 HD
ENDROOT
BRANCH  12  18
ATOM     18  C   UNL     1       1.429   5.813  -5.578  0.00  0.00    -0.043 A 
ATOM     19  C   UNL     1       2.148   6.965  -5.840  0.00  0.00    +0.007 A 
ATOM     20  C   UNL     1       2.272   7.422  -7.138  0.00  0.00    +0.038 A 
ATOM     21  C   UNL     1       1.667   6.732  -8.175  0.00  0.00    +0.123 A 
ATOM     22  C   UNL     1       0.943   5.582  -7.911  0.00  0.00    +0.038 A 
ATOM     23  C   UNL     1       0.825   5.124  -6.613  0.00  0.00    +0.007 A 
ATOM     24  F   UNL     1       1.784   7.181  -9.444  0.00  0.00    -0.205 F 
ENDBRANCH  12  18
BRANCH   8  25
ATOM     25  C   UNL     1       0.640   3.193   0.012  0.00  0.00    +0.129 A 
ATOM     26  C   UNL     1       1.111   1.934   0.002  0.00  0.00    +0.049 A 
ATOM     27  C   UNL     1      -0.013   1.076   0.008  0.00  0.00    +0.076 A 
ATOM     28  C   UNL     1      -1.103   1.863   0.017  0.00  0.00    +0.280 A 
ATOM     29  O   UNL     1      -0.702   3.144   0.024  0.00  0.00    -0.437 OA
BRANCH  28  30
ATOM     30  N   UNL     1      -2.508   1.395   0.021  0.00  0.00    +0.093 N 
ATOM     31  O   UNL     1      -2.753   0.202   0.016  0.00  0.00    -0.123 OA
ATOM     32  O   UNL     1      -3.419   2.204   0.029  0.00  0.00    -0.123 OA
ENDBRANCH  28  30
ENDBRANCH   8  25
TORSDOF 3
