REMARK  Name = ZINC59058617
REMARK  9 active torsions:
REMARK  status: ('A' for Active; 'I' for Inactive)
REMARK    1  A    between atoms: C_1  and  C_2
REMARK    2  A    between atoms: C_4  and  N_36
REMARK    3  A    between atoms: C_7  and  C_8
REMARK    4  A    between atoms: C_11  and  C_13
REMARK    5  A    between atoms: N_15  and  C_16
REMARK    6  A    between atoms: C_19  and  N_24
REMARK    7  A    between atoms: C_20  and  O_22
REMARK    8  A    between atoms: O_22  and  C_23
REMARK    9  A    between atoms: C_25  and  C_27
REMARK                            x       y       z     vdW  Elec       q    Type
REMARK                         _______ _______ _______ _____ _____    ______ ____
ROOT
ATOM      1  C   UNL     1       2.837   4.319   4.806  0.00  0.00    +0.037 A 
ATOM      2  C   UNL     1       2.498   4.684   6.103  0.00  0.00    +0.025 A 
ATOM      3  C   UNL     1       3.113   5.766   6.701  0.00  0.00    +0.029 A 
ATOM      4  C   UNL     1       4.073   6.490   6.008  0.00  0.00    +0.076 A 
ATOM      5  C   UNL     1       4.415   6.126   4.708  0.00  0.00    +0.143 A 
ATOM      6  C   UNL     1       3.800   5.038   4.111  0.00  0.00    +0.070 A 
ENDROOT
BRANCH   1   9
ATOM      7  C   UNL     1       0.914   2.961   4.458  0.00  0.00    +0.284 C 
ATOM      8  O   UNL     1       0.309   3.628   5.278  0.00  0.00    -0.266 OA
ATOM      9  N   UNL     1       2.211   3.223   4.201  0.00  0.00    -0.279 N 
ATOM     10  H   UNL     1       2.711   2.651   3.598  0.00  0.00    +0.155 HD
BRANCH   7  14
ATOM     11  C   UNL     1      -0.140   0.189   2.391  0.00  0.00    +0.136 A 
ATOM     12  C   UNL     1      -1.312   0.430   3.048  0.00  0.00    +0.050 A 
ATOM     13  C   UNL     1      -1.084   1.503   3.916  0.00  0.00    +0.055 A 
ATOM     14  C   UNL     1       0.232   1.875   3.750  0.00  0.00    +0.190 A 
ATOM     15  O   UNL     1       0.785   1.061   2.826  0.00  0.00    -0.450 OA
BRANCH  11  22
ATOM     16  C   UNL     1       1.097   0.875  -0.133  0.00  0.00    +0.044 C 
ATOM     17  C   UNL     1       0.674  -0.542   0.154  0.00  0.00    -0.038 A 
ATOM     18  C   UNL     1       0.880  -1.529  -0.788  0.00  0.00    +0.036 A 
ATOM     19  C   UNL     1       0.492  -2.831  -0.527  0.00  0.00    +0.126 A 
ATOM     20  C   UNL     1      -0.105  -3.153   0.680  0.00  0.00    +0.033 A 
ATOM     21  C   UNL     1      -0.317  -2.176   1.630  0.00  0.00    +0.014 A 
ATOM     22  C   UNL     1       0.078  -0.861   1.375  0.00  0.00    +0.020 A 
BRANCH  19  23
ATOM     23  N   UNL     1       0.715  -3.884  -1.542  0.00  0.00    +0.056 N 
ATOM     24  O   UNL     1       1.236  -3.606  -2.597  0.00  0.00    -0.126 OA
ATOM     25  O   UNL     1       0.377  -5.023  -1.317  0.00  0.00    -0.126 OA
ENDBRANCH  19  23
ENDBRANCH  11  22
ENDBRANCH   7  14
ENDBRANCH   1   9
BRANCH   4  26
ATOM     26  N   UNL     1       4.697   7.588   6.617  0.00  0.00    -0.276 N 
ATOM     27  C   UNL     1       4.952   7.570   7.940  0.00  0.00    +0.284 C 
ATOM     28  O   UNL     1       4.567   6.639   8.621  0.00  0.00    -0.266 OA
ATOM     29  H   UNL     1       4.945   8.361   6.085  0.00  0.00    +0.155 HD
BRANCH  27  30
ATOM     30  C   UNL     1       5.695   8.676   8.560  0.00  0.00    +0.191 A 
ATOM     31  C   UNL     1       6.014   8.762   9.877  0.00  0.00    +0.063 A 
ATOM     32  C   UNL     1       6.746  10.018  10.036  0.00  0.00    +0.021 A 
ATOM     33  C   UNL     1       7.333  10.673  11.121  0.00  0.00    +0.011 A 
ATOM     34  C   UNL     1       7.961  11.871  10.931  0.00  0.00    +0.001 A 
ATOM     35  C   UNL     1       8.019  12.442   9.666  0.00  0.00    +0.004 A 
ATOM     36  C   UNL     1       7.446  11.812   8.583  0.00  0.00    +0.047 A 
ATOM     37  C   UNL     1       6.802  10.592   8.752  0.00  0.00    +0.136 A 
ATOM     38  O   UNL     1       6.169   9.757   7.905  0.00  0.00    -0.450 OA
ENDBRANCH  27  30
ENDBRANCH   4  26
BRANCH   5  39
ATOM     39  O   UNL     1       5.354   6.835   4.027  0.00  0.00    -0.493 OA
ATOM     40  C   UNL     1       5.655   6.405   2.698  0.00  0.00    +0.277 C 
ENDBRANCH   5  39
TORSDOF 7
