REMARK  Name = ZINC42073205
REMARK  8 active torsions:
REMARK  status: ('A' for Active; 'I' for Inactive)
REMARK    1  A    between atoms: C_1  and  C_2
REMARK    2  A    between atoms: C_2  and  C_4
REMARK    3  A    between atoms: C_2  and  N_17
REMARK    4  A    between atoms: C_7  and  N_10
REMARK    5  A    between atoms: N_13  and  C_14
REMARK    6  A    between atoms: C_18  and  C_20
REMARK    7  A    between atoms: N_22  and  C_23
REMARK    8  A    between atoms: C_27  and  C_29
REMARK                            x       y       z     vdW  Elec       q    Type
REMARK                         _______ _______ _______ _____ _____    ______ ____
ROOT
ATOM      1  C   UNL     1      -0.208   1.434   0.030  0.00  0.00    +0.033 C 
ATOM      2  C   UNL     1       0.047  -0.074   0.069  0.00  0.00    +0.101 C 
ENDROOT
BRANCH   2   3
ATOM      3  C   UNL     1       0.675  -0.511  -1.229  0.00  0.00    -0.027 A 
ATOM      4  C   UNL     1       2.030  -0.327  -1.437  0.00  0.00    +0.007 A 
ATOM      5  C   UNL     1       2.609  -0.726  -2.625  0.00  0.00    +0.023 A 
ATOM      6  C   UNL     1       1.829  -1.314  -3.613  0.00  0.00    +0.035 A 
ATOM      7  C   UNL     1       0.469  -1.498  -3.401  0.00  0.00    +0.023 A 
ATOM      8  C   UNL     1      -0.103  -1.101  -2.208  0.00  0.00    +0.007 A 
BRANCH   6   9
ATOM      9  N   UNL     1       2.412  -1.720  -4.818  0.00  0.00    -0.269 N 
ATOM     10  C   UNL     1       3.678  -2.180  -4.833  0.00  0.00    +0.304 C 
ATOM     11  O   UNL     1       4.282  -2.332  -3.788  0.00  0.00    -0.253 OA
ATOM     12  N   UNL     1       4.275  -2.473  -6.005  0.00  0.00    -0.296 N 
ATOM     13  H   UNL     1       1.905  -1.669  -5.644  0.00  0.00    +0.156 HD
ATOM     14  H   UNL     1       3.794  -2.352  -6.838  0.00  0.00    +0.151 HD
BRANCH  12  15
ATOM     15  C   UNL     1       5.652  -2.974  -6.021  0.00  0.00    +0.075 C 
ATOM     16  C   UNL     1       6.604  -2.390  -7.066  0.00  0.00    +0.024 C 
ATOM     17  C   UNL     1       6.082  -3.820  -7.221  0.00  0.00    +0.024 C 
ENDBRANCH  12  15
ENDBRANCH   6   9
ENDBRANCH   2   3
BRANCH   2  18
ATOM     18  N   UNL     1       0.951  -0.387   1.179  0.00  0.00    -0.301 N 
ATOM     19  C   UNL     1       0.457  -0.569   2.420  0.00  0.00    +0.300 C 
ATOM     20  O   UNL     1      -0.736  -0.473   2.618  0.00  0.00    -0.265 OA
ATOM     21  H   UNL     1       1.905  -0.464   1.021  0.00  0.00    +0.150 HD
BRANCH  19  22
ATOM     22  C   UNL     1       1.379  -0.888   3.551  0.00  0.00    +0.303 C 
ATOM     23  O   UNL     1       2.572  -0.984   3.353  0.00  0.00    -0.265 OA
ATOM     24  N   UNL     1       0.884  -1.070   4.792  0.00  0.00    -0.278 N 
ATOM     25  H   UNL     1      -0.074  -1.061   4.938  0.00  0.00    +0.155 HD
BRANCH  24  26
ATOM     26  C   UNL     1       1.754  -1.273   5.867  0.00  0.00    +0.035 A 
ATOM     27  C   UNL     1       1.443  -0.755   7.119  0.00  0.00    +0.023 A 
ATOM     28  C   UNL     1       2.299  -0.952   8.186  0.00  0.00    +0.003 A 
ATOM     29  C   UNL     1       3.469  -1.665   8.016  0.00  0.00    +0.019 A 
ATOM     30  C   UNL     1       3.791  -2.189   6.762  0.00  0.00    +0.054 A 
ATOM     31  C   UNL     1       2.923  -1.996   5.687  0.00  0.00    +0.042 A 
BRANCH  30  32
ATOM     32  C   UNL     1       5.003  -2.929   6.583  0.00  0.00    +0.099 C 
ATOM     33  N   UNL     1       5.966  -3.516   6.440  0.00  0.00    -0.191 NA
ENDBRANCH  30  32
ENDBRANCH  24  26
ENDBRANCH  19  22
ENDBRANCH   2  18
TORSDOF 7
