REMARK  Name = ZINC01891913
REMARK  6 active torsions:
REMARK  status: ('A' for Active; 'I' for Inactive)
REMARK    1  A    between atoms: C_4  and  O_10
REMARK    2  A    between atoms: C_5  and  N_7
REMARK    3  A    between atoms: O_10  and  C_11
REMARK    4  A    between atoms: C_11  and  C_12
REMARK    5  A    between atoms: N_14  and  C_15
REMARK    6  A    between atoms: C_16  and  C_24
REMARK                            x       y       z     vdW  Elec       q    Type
REMARK                         _______ _______ _______ _____ _____    ______ ____
ROOT
ATOM      1  C   UNL     1      -4.771   0.051   0.048  0.00  0.00    +0.255 C 
ATOM      2  O   UNL     1      -4.631   1.255   0.053  0.00  0.00    -0.272 OA
ATOM      3  N   UNL     1      -6.009  -0.483   0.057  0.00  0.00    -0.277 N 
ATOM      4  H   UNL     1      -6.122  -1.446   0.053  0.00  0.00    +0.155 HD
ENDROOT
BRANCH   3   5
ATOM      5  C   UNL     1      -7.121   0.345   0.072  0.00  0.00    +0.084 A 
ATOM      6  C   UNL     1      -8.462  -0.012   0.077  0.00  0.00    +0.068 A 
ATOM      7  C   UNL     1      -9.443   1.060   0.099  0.00  0.00    -0.023 A 
ATOM      8  C   UNL     1      -8.929   2.309   0.100  0.00  0.00    -0.004 A 
ATOM      9  S   UNL     1      -7.174   2.077   0.081  0.00  0.00    -0.077 S 
ATOM     10  C   UNL     1      -9.690   3.599   0.113  0.00  0.00    +0.043 C 
ATOM     11  C   UNL     1     -11.152   3.301  -0.253  0.00  0.00    +0.005 C 
ATOM     12  C   UNL     1     -11.637   2.113   0.583  0.00  0.00    +0.005 C 
ATOM     13  C   UNL     1     -10.949   0.831   0.113  0.00  0.00    +0.037 C 
BRANCH   6  14
ATOM     14  C   UNL     1      -8.874  -1.419   0.066  0.00  0.00    +0.244 C 
ATOM     15  O   UNL     1      -9.039  -2.014   1.116  0.00  0.00    -0.270 OA
ATOM     16  N   UNL     1      -9.070  -2.055  -1.106  0.00  0.00    -0.325 N 
ATOM     17  H   UNL     1      -8.939  -1.581  -1.942  0.00  0.00    +0.145 HD
ATOM     18  H   UNL     1      -9.343  -2.986  -1.113  0.00  0.00    +0.145 HD
ENDBRANCH   6  14
ENDBRANCH   3   5
BRANCH   1  19
ATOM     19  C   UNL     1      -3.563  -0.849   0.032  0.00  0.00    +0.325 C 
BRANCH  19  20
ATOM     20  O   UNL     1      -2.376  -0.053   0.025  0.00  0.00    -0.480 OA
BRANCH  20  24
ATOM     21  C   UNL     1       1.227  -2.061  -0.022  0.00  0.00    +0.002 A 
ATOM     22  C   UNL     1       0.041  -2.772  -0.014  0.00  0.00    +0.004 A 
ATOM     23  C   UNL     1      -1.167  -2.102   0.001  0.00  0.00    +0.048 A 
ATOM     24  C   UNL     1      -1.189  -0.715   0.010  0.00  0.00    +0.151 A 
ATOM     25  C   UNL     1       0.002  -0.004   0.002  0.00  0.00    +0.168 A 
ATOM     26  C   UNL     1       1.207  -0.679  -0.019  0.00  0.00    +0.036 A 
BRANCH  25  27
ATOM     27  N   UNL     1      -0.018   1.476   0.010  0.00  0.00    +0.060 N 
ATOM     28  O   UNL     1       1.028   2.099   0.004  0.00  0.00    -0.126 OA
ATOM     29  O   UNL     1      -1.081   2.070   0.018  0.00  0.00    -0.126 OA
ENDBRANCH  25  27
ENDBRANCH  20  24
ENDBRANCH  19  20
ENDBRANCH   1  19
TORSDOF 6
