REMARK  Name = ZINC59039813
REMARK  10 active torsions:
REMARK  status: ('A' for Active; 'I' for Inactive)
REMARK    1  A    between atoms: C_1  and  C_2
REMARK    2  A    between atoms: C_2  and  O_3
REMARK    3  A    between atoms: O_3  and  C_4
REMARK    4  A    between atoms: C_6  and  C_11
REMARK    5  A    between atoms: C_9  and  O_10
REMARK    6  A    between atoms: N_12  and  N_13
REMARK    7  A    between atoms: C_16  and  S_19
REMARK    8  A    between atoms: S_19  and  C_20
REMARK    9  A    between atoms: C_20  and  C_21
REMARK   10  A    between atoms: N_23  and  C_24
REMARK                            x       y       z     vdW  Elec       q    Type
REMARK                         _______ _______ _______ _____ _____    ______ ____
ROOT
ATOM      1  N   UNL     1       1.581  -7.082  -0.060  0.00  0.00    -0.205 N 
ATOM      2  C   UNL     1       1.412  -8.454  -0.063  0.00  0.00    +0.232 A 
ATOM      3  N   UNL     1       0.261  -9.093  -0.056  0.00  0.00    -0.186 NA
ATOM      4  C   UNL     1       0.478 -10.412  -0.061  0.00  0.00    +0.211 A 
ATOM      5  N   UNL     1       1.772 -10.631  -0.071  0.00  0.00    -0.144 NA
ATOM      6  N   UNL     1       2.400  -9.375  -0.078  0.00  0.00    -0.245 N 
ATOM      7  H   UNL     1       2.474  -6.703  -0.070  0.00  0.00    +0.177 HD
ATOM      8  H   UNL     1       3.354  -9.203  -0.089  0.00  0.00    +0.192 HD
ENDROOT
BRANCH   1  10
ATOM      9  C   UNL     1       0.620  -4.950  -0.040  0.00  0.00    +0.138 C 
ATOM     10  N   UNL     1       0.462  -6.239  -0.043  0.00  0.00    -0.188 NA
BRANCH   9  13
ATOM     11  C   UNL     1      -1.497  -1.849  -0.003  0.00  0.00    +0.162 A 
ATOM     12  C   UNL     1      -0.389  -2.676  -0.020  0.00  0.00    +0.059 A 
ATOM     13  C   UNL     1      -0.557  -4.063  -0.022  0.00  0.00    -0.002 A 
ATOM     14  C   UNL     1      -1.844  -4.607  -0.009  0.00  0.00    +0.013 A 
ATOM     15  C   UNL     1      -2.944  -3.776   0.007  0.00  0.00    +0.050 A 
ATOM     16  C   UNL     1      -2.777  -2.399   0.016  0.00  0.00    +0.158 A 
BRANCH  16  17
ATOM     17  O   UNL     1      -3.865  -1.583   0.038  0.00  0.00    -0.503 OA
ATOM     18  H   UNL     1      -4.194  -1.344  -0.839  0.00  0.00    +0.292 HD
ENDBRANCH  16  17
BRANCH  11  19
ATOM     19  O   UNL     1      -1.337  -0.498  -0.001  0.00  0.00    -0.489 OA
BRANCH  19  21
ATOM     20  C   UNL     1      -0.017   1.526  -0.015  0.00  0.00    +0.048 C 
ATOM     21  C   UNL     1       0.004  -0.004  -0.021  0.00  0.00    +0.226 C 
ENDBRANCH  19  21
ENDBRANCH  11  19
ENDBRANCH   9  13
ENDBRANCH   1  10
BRANCH   4  22
ATOM     22  S   UNL     1      -0.770 -11.656  -0.056  0.00  0.00    -0.075 S 
BRANCH  22  23
ATOM     23  C   UNL     1       0.161 -13.213  -0.067  0.00  0.00    +0.173 C 
BRANCH  23  24
ATOM     24  C   UNL     1      -0.801 -14.373  -0.064  0.00  0.00    +0.227 C 
ATOM     25  O   UNL     1      -1.996 -14.169  -0.054  0.00  0.00    -0.275 OA
ATOM     26  N   UNL     1      -0.332 -15.636  -0.071  0.00  0.00    -0.285 N 
ATOM     27  H   UNL     1       0.621 -15.800  -0.146  0.00  0.00    +0.155 HD
BRANCH  26  28
ATOM     28  C   UNL     1      -1.221 -16.713   0.030  0.00  0.00    +0.035 A 
ATOM     29  C   UNL     1      -0.852 -17.857   0.727  0.00  0.00    +0.026 A 
ATOM     30  C   UNL     1      -1.730 -18.918   0.826  0.00  0.00    +0.041 A 
ATOM     31  C   UNL     1      -2.978 -18.844   0.231  0.00  0.00    +0.142 A 
ATOM     32  C   UNL     1      -3.349 -17.704  -0.464  0.00  0.00    +0.078 A 
ATOM     33  C   UNL     1      -2.475 -16.637  -0.561  0.00  0.00    +0.046 A 
ATOM     34 CL   UNL     1      -4.915 -17.613  -1.209  0.00  0.00    -0.081 Cl
ATOM     35  F   UNL     1      -3.835 -19.883   0.329  0.00  0.00    -0.204 F 
ENDBRANCH  26  28
ENDBRANCH  23  24
ENDBRANCH  22  23
ENDBRANCH   4  22
TORSDOF 9
