REMARK  Name = ZINC15827109
REMARK  8 active torsions:
REMARK  status: ('A' for Active; 'I' for Inactive)
REMARK    1  A    between atoms: C_1  and  C_2
REMARK    2  A    between atoms: C_2  and  C_3
REMARK    3  A    between atoms: C_3  and  C_5
REMARK    4  A    between atoms: C_3  and  N_6
REMARK    5  A    between atoms: C_7  and  C_9
REMARK    6  A    between atoms: C_9  and  N_10
REMARK    7  A    between atoms: N_20  and  C_23
REMARK    8  A    between atoms: C_28  and  C_29
REMARK                            x       y       z     vdW  Elec       q    Type
REMARK                         _______ _______ _______ _____ _____    ______ ____
ROOT
ATOM      1  N   UNL     1      -0.072   5.246   0.030  0.00  0.00    -0.243 N 
ATOM      2  C   UNL     1      -0.069   3.860   0.031  0.00  0.00    +0.065 A 
ATOM      3  C   UNL     1      -1.255   3.134   0.046  0.00  0.00    +0.025 A 
ATOM      4  C   UNL     1      -1.218   1.754   0.043  0.00  0.00    +0.002 A 
ATOM      5  C   UNL     1      -0.012   1.076   0.034  0.00  0.00    +0.002 A 
ATOM      6  C   UNL     1       1.179   1.789   0.019  0.00  0.00    +0.031 A 
ATOM      7  C   UNL     1       1.136   3.154   0.017  0.00  0.00    +0.131 A 
ATOM      8  S   UNL     1       2.598   4.160  -0.001  0.00  0.00    +0.084 S 
ATOM      9  O   UNL     1       3.258   3.903   1.231  0.00  0.00    -0.149 OA
ATOM     10  O   UNL     1       3.226   3.903  -1.250  0.00  0.00    -0.149 OA
ATOM     11  N   UNL     1       2.252   5.804   0.001  0.00  0.00    -0.122 N 
ATOM     12  C   UNL     1       0.933   6.108   0.017  0.00  0.00    +0.333 C 
ATOM     13  O   UNL     1       0.642   7.288   0.020  0.00  0.00    -0.250 OA
ENDROOT
BRANCH  11  14
ATOM     14  C   UNL     1       3.251   6.785  -0.012  0.00  0.00    +0.066 A 
ATOM     15  C   UNL     1       3.689   7.348   1.179  0.00  0.00    +0.045 A 
ATOM     16  C   UNL     1       4.675   8.316   1.163  0.00  0.00    +0.043 A 
ATOM     17  C   UNL     1       5.226   8.723  -0.040  0.00  0.00    +0.020 A 
ATOM     18  C   UNL     1       4.791   8.164  -1.227  0.00  0.00    +0.006 A 
ATOM     19  C   UNL     1       3.810   7.192  -1.216  0.00  0.00    -0.027 A 
ATOM     20  C   UNL     1       3.341   6.578  -2.510  0.00  0.00    +0.046 C 
ATOM     21 CL   UNL     1       5.224   9.021   2.651  0.00  0.00    -0.083 Cl
ENDBRANCH  11  14
BRANCH   1  22
ATOM     22  C   UNL     1      -1.403   5.857   0.045  0.00  0.00    +0.211 C 
BRANCH  22  24
ATOM     23  N   UNL     1      -3.110   6.478   1.725  0.00  0.00    -0.311 N 
ATOM     24  C   UNL     1      -1.899   5.946   1.466  0.00  0.00    +0.231 C 
ATOM     25  O   UNL     1      -1.207   5.540   2.376  0.00  0.00    -0.274 OA
ATOM     26  H   UNL     1      -3.662   6.803   0.998  0.00  0.00    +0.149 HD
BRANCH  23  27
ATOM     27  C   UNL     1      -3.591   6.565   3.106  0.00  0.00    +0.070 C 
ATOM     28  C   UNL     1      -3.054   7.843   3.754  0.00  0.00    +0.028 C 
BRANCH  27  30
ATOM     29  C   UNL     1      -5.658   5.265   2.579  0.00  0.00    +0.005 C 
ATOM     30  C   UNL     1      -5.121   6.594   3.112  0.00  0.00    +0.018 C 
ENDBRANCH  27  30
ENDBRANCH  23  27
ENDBRANCH  22  24
ENDBRANCH   1  22
TORSDOF 5
