REMARK  Name = ZINC30492440
REMARK  14 active torsions:
REMARK  status: ('A' for Active; 'I' for Inactive)
REMARK    1  A    between atoms: C_1  and  C_2
REMARK    2  A    between atoms: C_7  and  N_8
REMARK    3  A    between atoms: C_9  and  C_11
REMARK    4  A    between atoms: C_11  and  C_13
REMARK    5  A    between atoms: C_11  and  N_14
REMARK    6  A    between atoms: N_14  and  C_15
REMARK    7  A    between atoms: C_15  and  C_17
REMARK    8  A    between atoms: C_15  and  C_18
REMARK    9  A    between atoms: C_21  and  O_26
REMARK   10  A    between atoms: C_22  and  O_24
REMARK   11  A    between atoms: O_24  and  C_25
REMARK   12  A    between atoms: O_26  and  C_27
REMARK   13  A    between atoms: C_27  and  C_28
REMARK   14  A    between atoms: C_27  and  C_29
REMARK                            x       y       z     vdW  Elec       q    Type
REMARK                         _______ _______ _______ _____ _____    ______ ____
ROOT
ATOM      1  N   UNL     1       1.933  -4.859   0.176  0.00  0.00    +0.391 N 
ATOM      2  H   UNL     1       2.634  -4.032   0.364  0.00  0.00    -0.084 HD
ATOM      3  H   UNL     1       2.444  -5.650  -0.394  0.00  0.00    -0.084 HD
ENDROOT
BRANCH   1   4
ATOM      4  C   UNL     1       1.464  -5.404   1.457  0.00  0.00    +0.014 C 
ATOM      5  C   UNL     1       1.074  -6.872   1.274  0.00  0.00    -0.004 C 
BRANCH   4   7
ATOM      6  N   UNL     1       2.360  -5.742   3.737  0.00  0.00    -0.287 N 
ATOM      7  C   UNL     1       2.565  -5.301   2.480  0.00  0.00    +0.203 C 
ATOM      8  O   UNL     1       3.635  -4.820   2.173  0.00  0.00    -0.277 OA
ATOM      9  H   UNL     1       1.417  -6.245   3.997  0.00  0.00    +0.155 HD
BRANCH   6  16
ATOM     10  C   UNL     1       1.536  -5.451   6.445  0.00  0.00    +0.045 C 
ATOM     11  C   UNL     1       2.988  -5.413   6.046  0.00  0.00    -0.029 A 
ATOM     12  C   UNL     1       3.965  -5.234   7.006  0.00  0.00    +0.005 A 
ATOM     13  C   UNL     1       5.298  -5.200   6.641  0.00  0.00    +0.000 A 
ATOM     14  C   UNL     1       5.658  -5.345   5.313  0.00  0.00    +0.002 A 
ATOM     15  C   UNL     1       4.687  -5.530   4.349  0.00  0.00    +0.023 A 
ATOM     16  C   UNL     1       3.347  -5.560   4.712  0.00  0.00    +0.036 A 
ENDBRANCH   6  16
ENDBRANCH   4   7
ENDBRANCH   1   4
BRANCH   1  17
ATOM     17  C   UNL     1       0.810  -4.353  -0.624  0.00  0.00    -0.043 C 
ATOM     18  C   UNL     1       1.205  -4.335  -2.103  0.00  0.00    -0.009 C 
BRANCH  17  19
ATOM     19  C   UNL     1       0.467  -2.955  -0.179  0.00  0.00    -0.058 A 
ATOM     20  C   UNL     1       1.476  -2.063   0.136  0.00  0.00    +0.006 A 
ATOM     21  C   UNL     1       1.166  -0.778   0.539  0.00  0.00    +0.049 A 
ATOM     22  C   UNL     1      -0.159  -0.384   0.640  0.00  0.00    +0.162 A 
ATOM     23  C   UNL     1      -1.175  -1.281   0.323  0.00  0.00    +0.162 A 
ATOM     24  C   UNL     1      -0.857  -2.566  -0.086  0.00  0.00    +0.051 A 
BRANCH  23  25
ATOM     25  O   UNL     1      -2.476  -0.897   0.415  0.00  0.00    -0.491 OA
ATOM     26  C   UNL     1      -3.465  -1.871   0.074  0.00  0.00    +0.277 C 
ENDBRANCH  23  25
BRANCH  22  27
ATOM     27  O   UNL     1      -0.466   0.878   1.042  0.00  0.00    -0.486 OA
BRANCH  27  28
ATOM     28  C   UNL     1       0.620   1.708   1.459  0.00  0.00    +0.167 C 
ATOM     29  C   UNL     1       1.237   2.393   0.237  0.00  0.00    +0.051 C 
ATOM     30  C   UNL     1       0.106   2.770   2.433  0.00  0.00    +0.051 C 
ENDBRANCH  27  28
ENDBRANCH  22  27
ENDBRANCH  17  19
ENDBRANCH   1  17
TORSDOF 8
