REMARK  Name = ZINC13061797
REMARK  15 active torsions:
REMARK  status: ('A' for Active; 'I' for Inactive)
REMARK    1  A    between atoms: C_1  and  C_2
REMARK    2  A    between atoms: C_5  and  N_8
REMARK    3  A    between atoms: C_9  and  C_11
REMARK    4  A    between atoms: C_11  and  N_12
REMARK    5  A    between atoms: N_12  and  C_13
REMARK    6  A    between atoms: C_14  and  C_16
REMARK    7  A    between atoms: C_16  and  C_18
REMARK    8  A    between atoms: C_16  and  N_66
REMARK    9  A    between atoms: C_19  and  N_66
REMARK   10  A    between atoms: C_20  and  C_21
REMARK   11  A    between atoms: C_20  and  N_66
REMARK   12  A    between atoms: N_23  and  C_24
REMARK   13  A    between atoms: C_25  and  C_32
REMARK   14  A    between atoms: C_27  and  C_31
REMARK   15  A    between atoms: C_29  and  C_30
REMARK                            x       y       z     vdW  Elec       q    Type
REMARK                         _______ _______ _______ _____ _____    ______ ____
ROOT
ATOM      1  C   UNL     1      -6.577   0.023   1.984  0.00  0.00    +0.017 C 
ATOM      2  C   UNL     1      -6.035  -0.404   3.349  0.00  0.00    -0.004 C 
ENDROOT
BRANCH   1   5
ATOM      3  N   UNL     1      -8.957   0.262   2.612  0.00  0.00    -0.297 N 
ATOM      4  C   UNL     1      -8.976  -1.174   2.903  0.00  0.00    +0.132 C 
ATOM      5  C   UNL     1      -7.825   0.846   2.174  0.00  0.00    +0.202 C 
ATOM      6  O   UNL     1      -7.810   2.035   1.934  0.00  0.00    -0.277 OA
BRANCH   3   7
ATOM      7  C   UNL     1     -10.171   1.062   2.797  0.00  0.00    +0.203 C 
BRANCH   7   9
ATOM      8  N   UNL     1     -12.131   1.747   1.453  0.00  0.00    -0.284 N 
ATOM      9  C   UNL     1     -10.967   1.069   1.518  0.00  0.00    +0.235 C 
ATOM     10  O   UNL     1     -10.562   0.466   0.547  0.00  0.00    -0.274 OA
ATOM     11  H   UNL     1     -12.415   2.295   2.200  0.00  0.00    +0.155 HD
BRANCH   8  16
ATOM     12  C   UNL     1     -15.363   1.391  -3.196  0.00  0.00    +0.044 C 
ATOM     13  C   UNL     1     -14.505   1.485  -1.961  0.00  0.00    -0.050 A 
ATOM     14  C   UNL     1     -13.765   0.392  -1.550  0.00  0.00    +0.005 A 
ATOM     15  C   UNL     1     -12.977   0.475  -0.418  0.00  0.00    +0.023 A 
ATOM     16  C   UNL     1     -12.928   1.659   0.306  0.00  0.00    +0.033 A 
ATOM     17  C   UNL     1     -13.677   2.753  -0.106  0.00  0.00    +0.023 A 
ATOM     18  C   UNL     1     -14.458   2.666  -1.242  0.00  0.00    +0.005 A 
ENDBRANCH   8  16
ENDBRANCH   7   9
ENDBRANCH   3   7
ENDBRANCH   1   5
BRANCH   1  20
ATOM     19  C   UNL     1      -4.479  -0.026   0.775  0.00  0.00    -0.094 C 
ATOM     20  N   UNL     1      -5.577   0.837   1.262  0.00  0.00    +0.391 N 
ATOM     21  H   UNL     1      -6.030   1.285   0.457  0.00  0.00    -0.080 HD
BRANCH  20  22
ATOM     22  C   UNL     1      -5.038   1.885   2.154  0.00  0.00    +0.020 C 
BRANCH  22  23
ATOM     23  C   UNL     1      -4.193   2.830   1.340  0.00  0.00    +0.201 C 
ATOM     24  O   UNL     1      -4.044   2.639   0.151  0.00  0.00    -0.278 OA
ATOM     25  N   UNL     1      -3.603   3.887   1.932  0.00  0.00    -0.287 N 
ATOM     26  H   UNL     1      -3.779   4.080   2.866  0.00  0.00    +0.155 HD
BRANCH  25  27
ATOM     27  C   UNL     1      -2.737   4.706   1.199  0.00  0.00    +0.039 A 
ATOM     28  C   UNL     1      -3.178   5.318   0.033  0.00  0.00    -0.029 A 
ATOM     29  C   UNL     1      -2.322   6.130  -0.685  0.00  0.00    +0.008 A 
ATOM     30  C   UNL     1      -1.026   6.331  -0.247  0.00  0.00    -0.050 A 
ATOM     31  C   UNL     1      -0.582   5.718   0.911  0.00  0.00    +0.008 A 
ATOM     32  C   UNL     1      -1.433   4.904   1.633  0.00  0.00    -0.029 A 
ATOM     33  C   UNL     1      -0.948   4.237   2.895  0.00  0.00    +0.045 C 
ATOM     34  C   UNL     1      -0.095   7.218  -1.032  0.00  0.00    +0.044 C 
ATOM     35  C   UNL     1      -4.590   5.101  -0.445  0.00  0.00    +0.045 C 
ENDBRANCH  25  27
ENDBRANCH  22  23
ENDBRANCH  20  22
ENDBRANCH   1  20
TORSDOF 8
