REMARK  Name = ZINC32415058
REMARK  8 active torsions:
REMARK  status: ('A' for Active; 'I' for Inactive)
REMARK    1  A    between atoms: C_1  and  C_2
REMARK    2  A    between atoms: C_3  and  N_17
REMARK    3  A    between atoms: C_5  and  C_7
REMARK    4  A    between atoms: N_9  and  C_10
REMARK    5  A    between atoms: C_10  and  C_11
REMARK    6  A    between atoms: N_13  and  C_14
REMARK    7  A    between atoms: C_14  and  C_15
REMARK    8  A    between atoms: C_14  and  C_16
REMARK                            x       y       z     vdW  Elec       q    Type
REMARK                         _______ _______ _______ _____ _____    ______ ____
ROOT
ATOM      1  C   UNL     1      -2.580   1.276   0.020  0.00  0.00    +0.251 C 
ATOM      2  O   UNL     1      -2.786   0.076   0.015  0.00  0.00    -0.270 OA
ATOM      3  N   UNL     1      -3.616   2.137   0.030  0.00  0.00    -0.302 N 
ATOM      4  H   UNL     1      -3.430   3.221   0.035  0.00  0.00    +0.150 HD
ENDROOT
BRANCH   1   9
ATOM      5  C   UNL     1       2.207   4.162   0.003  0.00  0.00    +0.054 C 
ATOM      6  C   UNL     1       1.077   3.165   0.008  0.00  0.00    +0.018 A 
ATOM      7  C   UNL     1       1.149   1.808   0.001  0.00  0.00    +0.137 A 
ATOM      8  C   UNL     1      -0.013   1.076   0.008  0.00  0.00    +0.053 A 
ATOM      9  C   UNL     1      -1.205   1.783   0.017  0.00  0.00    +0.076 A 
ATOM     10  S   UNL     1      -0.629   3.471   0.026  0.00  0.00    -0.087 S 
BRANCH   7  11
ATOM     11  N   UNL     1       2.463   1.127  -0.014  0.00  0.00    +0.057 N 
ATOM     12  O   UNL     1       2.518  -0.089  -0.021  0.00  0.00    -0.126 OA
ATOM     13  O   UNL     1       3.489   1.784  -0.020  0.00  0.00    -0.126 OA
ENDBRANCH   7  11
ENDBRANCH   1   9
BRANCH   3  14
ATOM     14  C   UNL     1      -4.990   1.630   0.033  0.00  0.00    +0.200 C 
BRANCH  14  15
ATOM     15  C   UNL     1      -5.954   2.789   0.044  0.00  0.00    +0.230 C 
ATOM     16  O   UNL     1      -5.533   3.927   0.049  0.00  0.00    -0.274 OA
ATOM     17  N   UNL     1      -7.282   2.562   0.049  0.00  0.00    -0.312 N 
ATOM     18  H   UNL     1      -7.663   1.530   0.044  0.00  0.00    +0.149 HD
BRANCH  17  19
ATOM     19  C   UNL     1      -8.218   3.689   0.059  0.00  0.00    +0.067 C 
ATOM     20  C   UNL     1      -9.552   3.249  -0.547  0.00  0.00    +0.027 C 
ATOM     21  C   UNL     1      -8.441   4.153   1.500  0.00  0.00    +0.027 C 
ENDBRANCH  17  19
ENDBRANCH  14  15
ENDBRANCH   3  14
TORSDOF 5
