REMARK  Name = ZINC57992291
REMARK  6 active torsions:
REMARK  status: ('A' for Active; 'I' for Inactive)
REMARK    1  A    between atoms: C_1  and  C_2
REMARK    2  A    between atoms: C_2  and  O_3
REMARK    3  A    between atoms: O_3  and  C_4
REMARK    4  A    between atoms: C_7  and  C_10
REMARK    5  A    between atoms: C_10  and  N_11
REMARK    6  A    between atoms: C_12  and  C_14
REMARK                            x       y       z     vdW  Elec       q    Type
REMARK                         _______ _______ _______ _____ _____    ______ ____
ROOT
ATOM      1  C   UNL     1      -2.258  -8.406   3.027  0.00  0.00    +0.110 C 
ATOM      2  C   UNL     1      -0.873  -8.261   3.714  0.00  0.00    +0.034 C 
ATOM      3  C   UNL     1      -0.144  -9.535   3.223  0.00  0.00    +0.059 C 
ATOM      4  C   UNL     1       0.910  -9.947   4.263  0.00  0.00    +0.020 C 
ATOM      5  C   UNL     1       0.425 -11.307   4.815  0.00  0.00    +0.017 C 
ATOM      6  C   UNL     1      -1.095 -11.274   4.525  0.00  0.00    +0.086 C 
ATOM      7  N   UNL     1      -1.193 -10.587   3.193  0.00  0.00    -0.282 NA
ATOM      8  C   UNL     1      -2.501  -9.923   3.056  0.00  0.00    +0.137 C 
ATOM      9  C   UNL     1      -3.427 -10.294   4.183  0.00  0.00    +0.004 A 
ATOM     10  C   UNL     1      -3.355 -10.150   5.551  0.00  0.00    +0.008 A 
ATOM     11  C   UNL     1      -4.391 -10.601   6.349  0.00  0.00    +0.000 A 
ATOM     12  C   UNL     1      -5.498 -11.194   5.770  0.00  0.00    +0.002 A 
ATOM     13  C   UNL     1      -5.574 -11.341   4.400  0.00  0.00    +0.023 A 
ATOM     14  C   UNL     1      -4.535 -10.890   3.589  0.00  0.00    +0.039 A 
ATOM     15  N   UNL     1      -4.381 -10.921   2.202  0.00  0.00    -0.283 N 
ATOM     16  C   UNL     1      -3.216 -10.373   1.808  0.00  0.00    +0.243 C 
ATOM     17  O   UNL     1      -2.819 -10.263   0.667  0.00  0.00    -0.273 OA
ATOM     18  H   UNL     1      -5.037 -11.295   1.593  0.00  0.00    +0.155 HD
ENDROOT
BRANCH   1  20
ATOM     19  N   UNL     1      -3.318  -7.410   1.027  0.00  0.00    -0.311 N 
ATOM     20  C   UNL     1      -2.206  -7.901   1.609  0.00  0.00    +0.219 C 
ATOM     21  O   UNL     1      -1.163  -7.935   0.991  0.00  0.00    -0.275 OA
ATOM     22  H   UNL     1      -4.153  -7.383   1.521  0.00  0.00    +0.149 HD
BRANCH  19  23
ATOM     23  C   UNL     1      -3.268  -6.919  -0.352  0.00  0.00    +0.139 C 
BRANCH  23  27
ATOM     24  C   UNL     1      -7.138  -5.529  -1.513  0.00  0.00    +0.121 A 
ATOM     25  C   UNL     1      -6.235  -4.657  -0.923  0.00  0.00    +0.046 A 
ATOM     26  C   UNL     1      -4.984  -5.109  -0.548  0.00  0.00    +0.009 A 
ATOM     27  C   UNL     1      -4.633  -6.429  -0.762  0.00  0.00    -0.030 A 
ATOM     28  C   UNL     1      -5.531  -7.300  -1.350  0.00  0.00    +0.009 A 
ATOM     29  C   UNL     1      -6.785  -6.854  -1.721  0.00  0.00    +0.046 A 
BRANCH  24  30
ATOM     30  O   UNL     1      -8.369  -5.087  -1.882  0.00  0.00    -0.492 OA
BRANCH  30  32
ATOM     31  C   UNL     1     -10.084  -3.400  -2.116  0.00  0.00    +0.048 C 
ATOM     32  C   UNL     1      -8.664  -3.710  -1.638  0.00  0.00    +0.225 C 
ENDBRANCH  30  32
ENDBRANCH  24  30
ENDBRANCH  23  27
ENDBRANCH  19  23
ENDBRANCH   1  20
TORSDOF 5
