REMARK  Name = ZINC40146745
REMARK  12 active torsions:
REMARK  status: ('A' for Active; 'I' for Inactive)
REMARK    1  A    between atoms: C_1  and  C_2
REMARK    2  A    between atoms: C_5  and  C_31
REMARK    3  A    between atoms: N_8  and  C_10
REMARK    4  A    between atoms: C_10  and  C_11
REMARK    5  A    between atoms: C_11  and  C_12
REMARK    6  A    between atoms: C_12  and  C_13
REMARK    7  A    between atoms: C_13  and  N_14
REMARK    8  A    between atoms: C_15  and  C_17
REMARK    9  A    between atoms: C_19  and  N_27
REMARK   10  A    between atoms: C_21  and  N_23
REMARK   11  A    between atoms: C_24  and  C_26
REMARK   12  A    between atoms: C_28  and  C_30
REMARK                            x       y       z     vdW  Elec       q    Type
REMARK                         _______ _______ _______ _____ _____    ______ ____
ROOT
ATOM      1  N   UNL     1       5.272  -2.736   4.490  0.00  0.00    -0.311 N 
ATOM      2  C   UNL     1       6.593  -2.498   4.615  0.00  0.00    +0.244 C 
ATOM      3  O   UNL     1       7.190  -1.907   3.736  0.00  0.00    -0.270 OA
ATOM      4  H   UNL     1       4.796  -3.208   5.191  0.00  0.00    +0.149 HD
ENDROOT
BRANCH   2   5
ATOM      5  C   UNL     1       7.316  -2.954   5.821  0.00  0.00    +0.040 A 
ATOM      6  C   UNL     1       6.634  -3.637   6.829  0.00  0.00    +0.036 A 
ATOM      7  C   UNL     1       7.315  -4.064   7.958  0.00  0.00    +0.036 A 
ATOM      8  C   UNL     1       8.674  -3.813   8.088  0.00  0.00    +0.046 A 
ATOM      9  C   UNL     1       9.356  -3.133   7.088  0.00  0.00    +0.036 A 
ATOM     10  C   UNL     1       8.683  -2.708   5.952  0.00  0.00    +0.036 A 
BRANCH   9  11
ATOM     11  N   UNL     1      10.726  -2.881   7.223  0.00  0.00    -0.286 N 
ATOM     12  C   UNL     1      11.253  -1.740   6.737  0.00  0.00    +0.214 C 
ATOM     13  O   UNL     1      10.527  -0.888   6.270  0.00  0.00    -0.276 OA
ATOM     14  C   UNL     1      12.743  -1.522   6.775  0.00  0.00    +0.109 C 
ATOM     15  H   UNL     1      11.297  -3.529   7.666  0.00  0.00    +0.155 HD
ENDBRANCH   9  11
BRANCH   7  16
ATOM     16  N   UNL     1       6.631  -4.749   8.969  0.00  0.00    -0.286 N 
ATOM     17  C   UNL     1       7.251  -5.728   9.658  0.00  0.00    +0.214 C 
ATOM     18  O   UNL     1       8.367  -6.082   9.338  0.00  0.00    -0.276 OA
ATOM     19  C   UNL     1       6.558  -6.383  10.825  0.00  0.00    +0.109 C 
ATOM     20  H   UNL     1       5.712  -4.520   9.175  0.00  0.00    +0.155 HD
ENDBRANCH   7  16
ENDBRANCH   2   5
BRANCH   1  21
ATOM     21  C   UNL     1       4.556  -2.284   3.295  0.00  0.00    +0.104 C 
BRANCH  21  22
ATOM     22  C   UNL     1       3.082  -2.679   3.404  0.00  0.00    +0.017 C 
BRANCH  22  23
ATOM     23  C   UNL     1       2.334  -2.206   2.155  0.00  0.00    -0.017 C 
BRANCH  23  24
ATOM     24  C   UNL     1       0.860  -2.601   2.264  0.00  0.00    -0.079 C 
BRANCH  24  30
ATOM     25  C   UNL     1      -0.504   1.324  -0.325  0.00  0.00    +0.005 C 
ATOM     26  C   UNL     1      -0.519  -0.205  -0.274  0.00  0.00    -0.031 C 
ATOM     27  C   UNL     1      -1.967  -0.703  -0.298  0.00  0.00    +0.003 C 
ATOM     28  C   UNL     1      -1.974  -2.229  -0.168  0.00  0.00    -0.031 C 
ATOM     29  C   UNL     1      -1.244  -2.629   1.116  0.00  0.00    -0.076 C 
ATOM     30  N   UNL     1       0.142  -2.147   1.066  0.00  0.00    +0.380 N 
ATOM     31  C   UNL     1       0.158  -0.680   1.013  0.00  0.00    -0.076 C 
ATOM     32  C   UNL     1      -3.418  -2.730  -0.114  0.00  0.00    +0.005 C 
ATOM     33  H   UNL     1       0.596  -2.517   0.244  0.00  0.00    -0.082 HD
ENDBRANCH  24  30
ENDBRANCH  23  24
ENDBRANCH  22  23
ENDBRANCH  21  22
ENDBRANCH   1  21
TORSDOF 8
