REMARK  Name = ZINC58556459
REMARK  14 active torsions:
REMARK  status: ('A' for Active; 'I' for Inactive)
REMARK    1  A    between atoms: C_1  and  C_2
REMARK    2  A    between atoms: C_5  and  C_8
REMARK    3  A    between atoms: C_8  and  N_9
REMARK    4  A    between atoms: N_12  and  C_13
REMARK    5  A    between atoms: C_13  and  C_15
REMARK    6  A    between atoms: C_13  and  C_19
REMARK    7  A    between atoms: C_15  and  C_16
REMARK    8  A    between atoms: C_16  and  C_17
REMARK    9  A    between atoms: C_16  and  C_18
REMARK   10  A    between atoms: N_21  and  N_22
REMARK   11  A    between atoms: C_23  and  C_25
REMARK   12  A    between atoms: C_25  and  C_27
REMARK   13  A    between atoms: C_25  and  O_28
REMARK   14  A    between atoms: O_28  and  C_29
REMARK                            x       y       z     vdW  Elec       q    Type
REMARK                         _______ _______ _______ _____ _____    ______ ____
ROOT
ATOM      1  C   UNL     1       3.119  -8.340  -0.725  0.00  0.00    +0.162 C 
ENDROOT
BRANCH   1   5
ATOM      2  N   UNL     1       0.310  -6.141  -1.610  0.00  0.00    -0.295 N 
ATOM      3  C   UNL     1       1.096  -7.232  -1.509  0.00  0.00    +0.300 C 
ATOM      4  O   UNL     1       0.709  -8.302  -1.938  0.00  0.00    -0.253 OA
ATOM      5  N   UNL     1       2.311  -7.136  -0.933  0.00  0.00    -0.288 N 
ATOM      6  H   UNL     1       0.619  -5.288  -1.268  0.00  0.00    +0.151 HD
ATOM      7  H   UNL     1       2.650  -6.270  -0.657  0.00  0.00    +0.151 HD
BRANCH   2   8
ATOM      8  C   UNL     1      -1.010  -6.245  -2.235  0.00  0.00    +0.141 C 
BRANCH   8  13
ATOM      9  C   UNL     1      -3.582  -1.070  -2.186  0.00  0.00    +0.044 C 
ATOM     10  C   UNL     1      -2.911  -2.420  -2.199  0.00  0.00    -0.050 A 
ATOM     11  C   UNL     1      -2.118  -2.787  -3.269  0.00  0.00    +0.003 A 
ATOM     12  C   UNL     1      -1.502  -4.025  -3.281  0.00  0.00    +0.005 A 
ATOM     13  C   UNL     1      -1.680  -4.895  -2.222  0.00  0.00    -0.030 A 
ATOM     14  C   UNL     1      -2.473  -4.528  -1.151  0.00  0.00    +0.005 A 
ATOM     15  C   UNL     1      -3.085  -3.288  -1.137  0.00  0.00    +0.003 A 
ENDBRANCH   8  13
ENDBRANCH   2   8
ENDBRANCH   1   5
BRANCH   1  16
ATOM     16  C   UNL     1       4.030  -8.134   0.458  0.00  0.00    +0.249 C 
ATOM     17  O   UNL     1       4.276  -7.012   0.846  0.00  0.00    -0.272 OA
ATOM     18  N   UNL     1       4.572  -9.198   1.084  0.00  0.00    -0.233 N 
ATOM     19  H   UNL     1       4.435 -10.091   0.730  0.00  0.00    +0.173 HD
BRANCH  18  20
ATOM     20  N   UNL     1       5.333  -9.014   2.245  0.00  0.00    -0.231 N 
ATOM     21  C   UNL     1       5.875 -10.078   2.872  0.00  0.00    +0.270 C 
ATOM     22  O   UNL     1       5.704 -11.194   2.429  0.00  0.00    -0.270 OA
ATOM     23  H   UNL     1       5.470  -8.121   2.599  0.00  0.00    +0.173 HD
BRANCH  21  24
ATOM     24  C   UNL     1       6.694  -9.880   4.121  0.00  0.00    +0.257 C 
ATOM     25  C   UNL     1       7.959  -9.089   3.783  0.00  0.00    +0.062 C 
BRANCH  24  26
ATOM     26  O   UNL     1       7.057 -11.153   4.659  0.00  0.00    -0.480 OA
BRANCH  26  27
ATOM     27  C   UNL     1       7.358 -11.201   5.984  0.00  0.00    +0.122 A 
ATOM     28  C   UNL     1       7.345 -10.038   6.740  0.00  0.00    +0.048 A 
ATOM     29  C   UNL     1       7.651 -10.088   8.087  0.00  0.00    +0.042 A 
ATOM     30  C   UNL     1       7.970 -11.297   8.681  0.00  0.00    +0.124 A 
ATOM     31  C   UNL     1       7.983 -12.458   7.926  0.00  0.00    +0.042 A 
ATOM     32  C   UNL     1       7.672 -12.412   6.581  0.00  0.00    +0.048 A 
ATOM     33  F   UNL     1       8.269 -11.344   9.997  0.00  0.00    -0.205 F 
ENDBRANCH  26  27
ENDBRANCH  24  26
ENDBRANCH  21  24
ENDBRANCH  18  20
ENDBRANCH   1  16
BRANCH   1  34
ATOM     34  C   UNL     1       3.959  -8.612  -1.975  0.00  0.00    +0.035 C 
BRANCH  34  35
ATOM     35  C   UNL     1       4.703  -9.939  -1.810  0.00  0.00    -0.015 C 
ATOM     36  C   UNL     1       3.694 -11.090  -1.787  0.00  0.00    +0.007 C 
ATOM     37  C   UNL     1       5.669 -10.131  -2.981  0.00  0.00    +0.007 C 
ENDBRANCH  34  35
ENDBRANCH   1  34
TORSDOF 10
