REMARK  Name = ZINC61464897
REMARK  8 active torsions:
REMARK  status: ('A' for Active; 'I' for Inactive)
REMARK    1  A    between atoms: C_1  and  C_2
REMARK    2  A    between atoms: C_3  and  C_28
REMARK    3  A    between atoms: N_9  and  C_12
REMARK    4  A    between atoms: C_12  and  C_13
REMARK    5  A    between atoms: C_13  and  C_14
REMARK    6  A    between atoms: N_16  and  N_17
REMARK    7  A    between atoms: C_18  and  C_20
REMARK    8  A    between atoms: C_23  and  C_26
REMARK                            x       y       z     vdW  Elec       q    Type
REMARK                         _______ _______ _______ _____ _____    ______ ____
ROOT
ATOM      1  C   UNL     1      -1.379   0.003   6.905  0.00  0.00    +0.231 C 
ATOM      2  O   UNL     1      -0.326   0.220   7.467  0.00  0.00    -0.274 OA
ATOM      3  N   UNL     1      -2.543   0.212   7.550  0.00  0.00    -0.234 N 
ATOM      4  H   UNL     1      -3.385   0.038   7.101  0.00  0.00    +0.173 HD
ENDROOT
BRANCH   3   5
ATOM      5  N   UNL     1      -2.538   0.681   8.871  0.00  0.00    -0.230 N 
ATOM      6  C   UNL     1      -3.702   0.890   9.516  0.00  0.00    +0.260 C 
ATOM      7  O   UNL     1      -4.757   0.672   8.953  0.00  0.00    -0.269 OA
ATOM      8  H   UNL     1      -1.696   0.855   9.320  0.00  0.00    +0.173 HD
BRANCH   6   9
ATOM      9  C   UNL     1      -3.697   1.385  10.910  0.00  0.00    +0.038 A 
ATOM     10  C   UNL     1      -2.485   1.640  11.555  0.00  0.00    +0.014 A 
ATOM     11  C   UNL     1      -2.480   2.101  12.853  0.00  0.00    +0.019 A 
ATOM     12  C   UNL     1      -3.686   2.313  13.524  0.00  0.00    +0.052 A 
ATOM     13  C   UNL     1      -4.898   2.057  12.878  0.00  0.00    +0.019 A 
ATOM     14  C   UNL     1      -4.903   1.601  11.579  0.00  0.00    +0.014 A 
BRANCH  12  15
ATOM     15  C   UNL     1      -3.681   2.791  14.873  0.00  0.00    +0.099 C 
ATOM     16  N   UNL     1      -3.677   3.171  15.944  0.00  0.00    -0.191 NA
ENDBRANCH  12  15
ENDBRANCH   6   9
ENDBRANCH   3   5
BRANCH   1  17
ATOM     17  C   UNL     1      -1.384  -0.501   5.485  0.00  0.00    +0.119 C 
BRANCH  17  18
ATOM     18  C   UNL     1       0.056  -0.652   4.991  0.00  0.00    +0.135 C 
BRANCH  18  27
ATOM     19  C   UNL     1      -0.018   1.503   0.010  0.00  0.00    +0.045 C 
ATOM     20  C   UNL     1       0.002  -0.004   0.002  0.00  0.00    -0.026 A 
ATOM     21  C   UNL     1       0.006  -0.677  -1.160  0.00  0.00    -0.008 A 
ATOM     22  S   UNL     1       0.032  -2.385  -0.648  0.00  0.00    -0.073 S 
ATOM     23  C   UNL     1       0.037  -2.144   1.110  0.00  0.00    +0.116 A 
ATOM     24  C   UNL     1       0.024  -0.745   1.250  0.00  0.00    +0.075 A 
ATOM     25  C   UNL     1       0.029  -0.257   2.597  0.00  0.00    +0.262 A 
ATOM     26  O   UNL     1       0.014   0.942   2.821  0.00  0.00    -0.267 OA
ATOM     27  N   UNL     1       0.051  -1.142   3.611  0.00  0.00    -0.298 N 
ATOM     28  C   UNL     1       0.068  -2.480   3.380  0.00  0.00    +0.203 A 
ATOM     29  N   UNL     1       0.053  -2.956   2.163  0.00  0.00    -0.230 NA
ATOM     30  C   UNL     1      -0.009  -0.122  -2.561  0.00  0.00    +0.052 C 
ENDBRANCH  18  27
ENDBRANCH  17  18
ENDBRANCH   1  17
TORSDOF 6
