REMARK  Name = ZINC49118694
REMARK  5 active torsions:
REMARK  status: ('A' for Active; 'I' for Inactive)
REMARK    1  A    between atoms: C_1  and  C_2
REMARK    2  A    between atoms: C_2  and  C_3
REMARK    3  A    between atoms: C_9  and  N_11
REMARK    4  A    between atoms: N_11  and  C_12
REMARK    5  A    between atoms: C_17  and  N_18
REMARK                            x       y       z     vdW  Elec       q    Type
REMARK                         _______ _______ _______ _____ _____    ______ ____
ROOT
ATOM      1  C   UNL     1       0.880  -3.876  -0.356  0.00  0.00    +0.050 A 
ATOM      2  C   UNL     1      -0.090  -4.590   0.332  0.00  0.00    +0.051 A 
ATOM      3  C   UNL     1      -0.472  -5.844  -0.117  0.00  0.00    +0.078 A 
ATOM      4  C   UNL     1       0.117  -6.388  -1.258  0.00  0.00    +0.144 A 
ATOM      5  C   UNL     1       1.085  -5.676  -1.944  0.00  0.00    +0.072 A 
ATOM      6  C   UNL     1       1.465  -4.418  -1.500  0.00  0.00    +0.049 A 
ATOM      7  O   UNL     1      -0.268  -7.622  -1.685  0.00  0.00    -0.481 OA
ATOM      8  C   UNL     1      -0.649  -8.562  -0.677  0.00  0.00    +0.325 C 
ATOM      9  C   UNL     1      -1.581  -7.900   0.306  0.00  0.00    +0.255 C 
ATOM     10  O   UNL     1      -2.441  -8.550   0.862  0.00  0.00    -0.272 OA
ATOM     11  N   UNL     1      -1.454  -6.580   0.566  0.00  0.00    -0.280 N 
ATOM     12  H   UNL     1      -2.031  -6.148   1.214  0.00  0.00    +0.155 HD
ENDROOT
BRANCH   6  13
ATOM     13  N   UNL     1       2.441  -3.693  -2.197  0.00  0.00    -0.356 N 
ATOM     14  H   UNL     1       2.710  -2.815  -1.884  0.00  0.00    +0.142 HD
ATOM     15  H   UNL     1       2.848  -4.070  -2.994  0.00  0.00    +0.142 HD
ENDBRANCH   6  13
BRANCH   1  16
ATOM     16  N   UNL     1       1.270  -2.607   0.097  0.00  0.00    -0.339 N 
ATOM     17  H   UNL     1       1.945  -2.106  -0.387  0.00  0.00    +0.146 HD
BRANCH  16  23
ATOM     18  C   UNL     1       0.742  -0.511   1.242  0.00  0.00    +0.009 C 
ATOM     19  C   UNL     1       2.210  -0.086   1.169  0.00  0.00    +0.005 C 
ATOM     20  C   UNL     1       2.950  -0.593   2.408  0.00  0.00    +0.000 C 
ATOM     21  C   UNL     1       2.863  -2.119   2.465  0.00  0.00    +0.002 C 
ATOM     22  C   UNL     1       1.395  -2.544   2.538  0.00  0.00    +0.022 C 
ATOM     23  C   UNL     1       0.655  -2.037   1.299  0.00  0.00    +0.074 C 
BRANCH  18  25
ATOM     24  C   UNL     1      -0.019   1.526   0.010  0.00  0.00    +0.004 C 
ATOM     25  C   UNL     1       0.002  -0.004   0.002  0.00  0.00    +0.002 C 
ENDBRANCH  18  25
ENDBRANCH  16  23
ENDBRANCH   1  16
TORSDOF 4
