REMARK  Name = ZINC12133345
REMARK  9 active torsions:
REMARK  status: ('A' for Active; 'I' for Inactive)
REMARK    1  A    between atoms: C_1  and  C_2
REMARK    2  A    between atoms: C_2  and  N_3
REMARK    3  A    between atoms: N_3  and  C_4
REMARK    4  A    between atoms: C_4  and  C_5
REMARK    5  A    between atoms: C_5  and  N_52
REMARK    6  A    between atoms: C_6  and  N_52
REMARK    7  A    between atoms: C_7  and  N_52
REMARK    8  A    between atoms: C_8  and  C_10
REMARK    9  A    between atoms: C_19  and  C_21
REMARK                            x       y       z     vdW  Elec       q    Type
REMARK                         _______ _______ _______ _____ _____    ______ ____
ROOT
ATOM      1  C   UNL     1       1.848   1.178  -1.165  0.00  0.00    +0.088 C 
ATOM      2  C   UNL     1       1.874  -0.352  -1.109  0.00  0.00    +0.070 C 
ATOM      3  C   UNL     1       0.463  -0.861  -1.376  0.00  0.00    +0.062 A 
ATOM      4  C   UNL     1      -0.624  -0.041  -1.042  0.00  0.00    +0.079 A 
ATOM      5  S   UNL     1      -2.007  -1.024  -1.537  0.00  0.00    -0.049 S 
ATOM      6  C   UNL     1      -1.103  -2.391  -2.119  0.00  0.00    +0.165 A 
ATOM      7  N   UNL     1       0.152  -2.019  -1.907  0.00  0.00    -0.229 NA
ATOM      8  N   UNL     1      -1.574  -3.568  -2.665  0.00  0.00    -0.260 N 
ATOM      9  C   UNL     1      -2.901  -3.765  -2.801  0.00  0.00    +0.256 C 
ATOM     10  O   UNL     1      -3.683  -2.904  -2.443  0.00  0.00    -0.269 OA
ATOM     11  C   UNL     1      -0.537   1.222  -0.467  0.00  0.00    +0.172 C 
ATOM     12  O   UNL     1      -1.531   1.879  -0.229  0.00  0.00    -0.291 OA
ATOM     13  C   UNL     1       0.852   1.747  -0.154  0.00  0.00    +0.093 C 
ATOM     14  H   UNL     1      -0.951  -4.255  -2.950  0.00  0.00    +0.157 HD
ENDROOT
BRANCH   9  15
ATOM     15  C   UNL     1      -3.401  -5.014  -3.380  0.00  0.00    +0.074 A 
ATOM     16  C   UNL     1      -4.710  -5.413  -3.600  0.00  0.00    +0.021 A 
ATOM     17  C   UNL     1      -4.900  -6.648  -4.167  0.00  0.00    +0.008 A 
ATOM     18  C   UNL     1      -3.818  -7.413  -4.471  0.00  0.00    +0.046 A 
ATOM     19  S   UNL     1      -2.483  -6.423  -3.978  0.00  0.00    -0.092 S 
ENDBRANCH   9  15
BRANCH   1  21
ATOM     20  N   UNL     1       3.592   2.927  -1.296  0.00  0.00    -0.303 N 
ATOM     21  C   UNL     1       3.224   1.707  -0.855  0.00  0.00    +0.219 C 
ATOM     22  O   UNL     1       4.001   1.036  -0.209  0.00  0.00    -0.275 OA
BRANCH  20  24
ATOM     23  C   UNL     1       2.045   4.793  -0.972  0.00  0.00    +0.024 C 
ATOM     24  C   UNL     1       2.616   3.786  -1.972  0.00  0.00    +0.104 C 
ENDBRANCH  20  24
BRANCH  20  25
ATOM     25  C   UNL     1       4.967   3.393  -1.100  0.00  0.00    +0.089 C 
BRANCH  25  26
ATOM     26  C   UNL     1       5.821   2.982  -2.302  0.00  0.00    -0.060 C 
BRANCH  26  29
ATOM     27  C   UNL     1       8.098   2.876  -3.115  0.00  0.00    -0.097 C 
ATOM     28  C   UNL     1       7.264   4.917  -2.115  0.00  0.00    -0.097 C 
ATOM     29  N   UNL     1       7.208   3.441  -2.080  0.00  0.00    +0.377 N 
ATOM     30  H   UNL     1       7.522   3.117  -1.157  0.00  0.00    -0.083 HD
ENDBRANCH  26  29
ENDBRANCH  25  26
ENDBRANCH  20  25
ENDBRANCH   1  21
TORSDOF 6
