REMARK  Name = ZINC28650015
REMARK  9 active torsions:
REMARK  status: ('A' for Active; 'I' for Inactive)
REMARK    1  A    between atoms: C_3  and  C_34
REMARK    2  A    between atoms: C_5  and  C_7
REMARK    3  A    between atoms: C_10  and  N_16
REMARK    4  A    between atoms: N_16  and  C_17
REMARK    5  A    between atoms: C_17  and  C_18
REMARK    6  A    between atoms: C_18  and  N_19
REMARK    7  A    between atoms: N_19  and  C_20
REMARK    8  A    between atoms: C_20  and  C_21
REMARK    9  A    between atoms: N_25  and  C_26
REMARK                            x       y       z     vdW  Elec       q    Type
REMARK                         _______ _______ _______ _____ _____    ______ ____
ROOT
ATOM      1  N   UNL     1       2.176   0.999  -0.506  0.00  0.00    -0.284 N 
ATOM      2  C   UNL     1       0.959   1.575  -0.451  0.00  0.00    +0.307 C 
ATOM      3  O   UNL     1       0.859   2.787  -0.457  0.00  0.00    -0.252 OA
ATOM      4  N   UNL     1      -0.147   0.808  -0.390  0.00  0.00    -0.269 N 
ATOM      5  H   UNL     1      -0.063  -0.286  -0.470  0.00  0.00    +0.156 HD
ENDROOT
BRANCH   4   6
ATOM      6  C   UNL     1      -1.400   1.402  -0.226  0.00  0.00    +0.040 A 
ATOM      7  C   UNL     1      -1.543   2.574   0.515  0.00  0.00    +0.063 A 
ATOM      8  C   UNL     1      -2.798   3.133   0.651  0.00  0.00    +0.133 A 
ATOM      9  N   UNL     1      -3.855   2.565   0.098  0.00  0.00    -0.224 NA
ATOM     10  C   UNL     1      -3.760   1.452  -0.607  0.00  0.00    +0.133 A 
ATOM     11  C   UNL     1      -2.539   0.834  -0.793  0.00  0.00    +0.063 A 
ATOM     12 CL   UNL     1      -5.188   0.756  -1.307  0.00  0.00    -0.062 Cl
ATOM     13 CL   UNL     1      -2.991   4.596   1.564  0.00  0.00    -0.062 Cl
ENDBRANCH   4   6
BRANCH   1  17
ATOM     14  C   UNL     1       5.222   4.039  -0.530  0.00  0.00    -0.001 C 
ATOM     15  C   UNL     1       4.860   3.320   0.760  0.00  0.00    +0.013 C 
ATOM     16  C   UNL     1       3.453   2.730   0.668  0.00  0.00    +0.023 C 
ATOM     17  C   UNL     1       3.379   1.833  -0.573  0.00  0.00    +0.078 C 
ATOM     18  C   UNL     1       3.319   2.723  -1.814  0.00  0.00    +0.027 C 
ATOM     19  C   UNL     1       4.476   3.717  -1.815  0.00  0.00    +0.002 C 
ATOM     20  C   UNL     1       4.255   5.049  -1.132  0.00  0.00    +0.016 C 
BRANCH  14  25
ATOM     21  C   UNL     1       8.632   5.563   0.046  0.00  0.00    +0.002 A 
ATOM     22  C   UNL     1       9.383   4.961  -0.943  0.00  0.00    +0.019 A 
ATOM     23  C   UNL     1       8.783   4.047  -1.811  0.00  0.00    +0.052 A 
ATOM     24  C   UNL     1       7.427   3.745  -1.669  0.00  0.00    +0.023 A 
ATOM     25  C   UNL     1       6.687   4.359  -0.681  0.00  0.00    -0.040 A 
ATOM     26  C   UNL     1       7.288   5.264   0.177  0.00  0.00    +0.004 A 
BRANCH  23  27
ATOM     27  C   UNL     1       9.557   3.418  -2.839  0.00  0.00    +0.099 C 
ATOM     28  N   UNL     1      10.170   2.919  -3.655  0.00  0.00    -0.191 NA
ENDBRANCH  23  27
ENDBRANCH  14  25
ENDBRANCH   1  17
BRANCH   1  29
ATOM     29  C   UNL     1       2.297  -0.461  -0.500  0.00  0.00    +0.090 C 
BRANCH  29  30
ATOM     30  C   UNL     1       2.268  -0.981  -1.938  0.00  0.00    -0.063 C 
BRANCH  30  31
ATOM     31  N   UNL     1       2.388  -2.445  -1.932  0.00  0.00    +0.382 N 
ATOM     32  H   UNL     1       3.338  -2.733  -1.457  0.00  0.00    -0.086 HD
ATOM     33  H   UNL     1       1.550  -2.880  -1.368  0.00  0.00    -0.086 HD
BRANCH  31  34
ATOM     34  C   UNL     1       2.364  -2.982  -3.299  0.00  0.00    -0.049 C 
BRANCH  34  35
ATOM     35  C   UNL     1       2.491  -4.506  -3.252  0.00  0.00    +0.194 C 
ATOM     36  F   UNL     1       2.468  -5.016  -4.554  0.00  0.00    -0.251 F 
ENDBRANCH  34  35
ENDBRANCH  31  34
ENDBRANCH  30  31
ENDBRANCH  29  30
ENDBRANCH   1  29
TORSDOF 9
