REMARK  Name = ZINC40743982
REMARK  13 active torsions:
REMARK  status: ('A' for Active; 'I' for Inactive)
REMARK    1  A    between atoms: C_1  and  C_2
REMARK    2  A    between atoms: C_5  and  N_8
REMARK    3  A    between atoms: C_9  and  C_11
REMARK    4  A    between atoms: C_11  and  O_12
REMARK    5  A    between atoms: O_12  and  C_13
REMARK    6  A    between atoms: C_14  and  C_21
REMARK    7  A    between atoms: C_18  and  O_19
REMARK    8  A    between atoms: O_19  and  C_20
REMARK    9  A    between atoms: C_21  and  N_22
REMARK   10  A    between atoms: N_22  and  C_23
REMARK   11  A    between atoms: C_23  and  C_24
REMARK   12  A    between atoms: C_24  and  C_26
REMARK   13  A    between atoms: C_24  and  O_27
REMARK                            x       y       z     vdW  Elec       q    Type
REMARK                         _______ _______ _______ _____ _____    ______ ____
ROOT
ATOM      1  C   UNL     1      -0.525  -8.582   2.500  0.00  0.00    +0.164 A 
ATOM      2  C   UNL     1      -1.840  -8.840   2.854  0.00  0.00    -0.019 A 
ATOM      3  C   UNL     1      -2.215 -10.113   3.242  0.00  0.00    +0.005 A 
ATOM      4  C   UNL     1      -1.281 -11.131   3.278  0.00  0.00    +0.004 A 
ATOM      5  C   UNL     1       0.033 -10.880   2.927  0.00  0.00    +0.049 A 
ATOM      6  C   UNL     1       0.414  -9.608   2.532  0.00  0.00    +0.162 A 
ENDROOT
BRANCH   6   7
ATOM      7  O   UNL     1       1.704  -9.362   2.180  0.00  0.00    -0.491 OA
ATOM      8  C   UNL     1       2.614 -10.463   2.236  0.00  0.00    +0.277 C 
ENDBRANCH   6   7
BRANCH   1   9
ATOM      9  O   UNL     1      -0.155  -7.331   2.118  0.00  0.00    -0.479 OA
BRANCH   9  10
ATOM     10  C   UNL     1       0.401  -6.483   3.125  0.00  0.00    +0.325 C 
BRANCH  10  12
ATOM     11  N   UNL     1       1.152  -4.135   3.327  0.00  0.00    -0.283 N 
ATOM     12  C   UNL     1       0.631  -5.108   2.554  0.00  0.00    +0.255 C 
ATOM     13  O   UNL     1       0.346  -4.876   1.397  0.00  0.00    -0.272 OA
ATOM     14  H   UNL     1       1.446  -4.338   4.229  0.00  0.00    +0.155 HD
BRANCH  11  19
ATOM     15  C   UNL     1       1.627   1.146   1.309  0.00  0.00    +0.044 C 
ATOM     16  C   UNL     1       1.501  -0.257   1.845  0.00  0.00    -0.050 A 
ATOM     17  C   UNL     1       0.444  -1.055   1.447  0.00  0.00    +0.005 A 
ATOM     18  C   UNL     1       0.326  -2.341   1.937  0.00  0.00    +0.023 A 
ATOM     19  C   UNL     1       1.270  -2.833   2.829  0.00  0.00    +0.034 A 
ATOM     20  C   UNL     1       2.330  -2.029   3.226  0.00  0.00    +0.023 A 
ATOM     21  C   UNL     1       2.445  -0.745   2.729  0.00  0.00    +0.005 A 
ENDBRANCH  11  19
ENDBRANCH  10  12
ENDBRANCH   9  10
ENDBRANCH   1   9
BRANCH   2  22
ATOM     22  C   UNL     1      -2.861  -7.732   2.817  0.00  0.00    -0.043 C 
BRANCH  22  23
ATOM     23  N   UNL     1      -3.280  -7.499   1.428  0.00  0.00    +0.383 N 
ATOM     24  H   UNL     1      -2.493  -7.166   0.891  0.00  0.00    -0.085 HD
ATOM     25  H   UNL     1      -3.618  -8.362   1.029  0.00  0.00    -0.085 HD
BRANCH  23  26
ATOM     26  C   UNL     1      -4.351  -6.494   1.401  0.00  0.00    -0.051 C 
BRANCH  26  27
ATOM     27  C   UNL     1      -4.787  -6.251  -0.045  0.00  0.00    +0.095 C 
ATOM     28  C   UNL     1      -5.814  -5.117  -0.085  0.00  0.00    +0.035 C 
BRANCH  27  29
ATOM     29  O   UNL     1      -5.373  -7.443  -0.573  0.00  0.00    -0.394 OA
ATOM     30  H   UNL     1      -5.673  -7.362  -1.488  0.00  0.00    +0.210 HD
ENDBRANCH  27  29
ENDBRANCH  26  27
ENDBRANCH  23  26
ENDBRANCH  22  23
ENDBRANCH   2  22
TORSDOF 10
