REMARK  Name = ZINC09050478
REMARK  7 active torsions:
REMARK  status: ('A' for Active; 'I' for Inactive)
REMARK    1  A    between atoms: C_1  and  C_2
REMARK    2  A    between atoms: C_2  and  C_25
REMARK    3  A    between atoms: N_5  and  C_9
REMARK    4  A    between atoms: C_9  and  C_10
REMARK    5  A    between atoms: N_12  and  C_13
REMARK    6  A    between atoms: C_28  and  O_31
REMARK    7  A    between atoms: O_31  and  C_32
REMARK                            x       y       z     vdW  Elec       q    Type
REMARK                         _______ _______ _______ _____ _____    ______ ____
ROOT
ATOM      1  C   UNL     1      -0.028   1.522  -0.005  0.00  0.00    +0.047 C 
ATOM      2  C   UNL     1      -0.001  -0.008  -0.003  0.00  0.00    +0.135 C 
ATOM      3  C   UNL     1       0.812  -0.529  -1.171  0.00  0.00    +0.251 C 
ATOM      4  O   UNL     1       0.591  -0.359  -2.351  0.00  0.00    -0.272 OA
ATOM      5  N   UNL     1       1.833  -1.219  -0.625  0.00  0.00    -0.215 N 
ATOM      6  C   UNL     1       1.779  -1.206   0.711  0.00  0.00    +0.310 C 
ATOM      7  O   UNL     1       2.591  -1.760   1.426  0.00  0.00    -0.252 OA
ATOM      8  N   UNL     1       0.724  -0.512   1.176  0.00  0.00    -0.281 N 
ATOM      9  H   UNL     1       0.488  -0.371   2.106  0.00  0.00    +0.152 HD
ENDROOT
BRANCH   2  10
ATOM     10  C   UNL     1      -1.403  -0.561  -0.040  0.00  0.00    -0.015 A 
ATOM     11  C   UNL     1      -2.005  -0.835  -1.254  0.00  0.00    +0.010 A 
ATOM     12  C   UNL     1      -3.289  -1.341  -1.291  0.00  0.00    +0.046 A 
ATOM     13  C   UNL     1      -3.975  -1.577  -0.108  0.00  0.00    +0.127 A 
ATOM     14  C   UNL     1      -3.368  -1.302   1.109  0.00  0.00    +0.046 A 
ATOM     15  C   UNL     1      -2.082  -0.800   1.141  0.00  0.00    +0.010 A 
BRANCH  13  16
ATOM     16  O   UNL     1      -5.239  -2.075  -0.141  0.00  0.00    -0.434 OA
BRANCH  16  17
ATOM     17  C   UNL     1      -5.884  -2.292   1.115  0.00  0.00    +0.541 C 
ATOM     18  F   UNL     1      -5.140  -3.205   1.870  0.00  0.00    -0.166 F 
ATOM     19  F   UNL     1      -5.976  -1.080   1.808  0.00  0.00    -0.166 F 
ENDBRANCH  16  17
ENDBRANCH  13  16
ENDBRANCH   2  10
BRANCH   5  20
ATOM     20  C   UNL     1       2.874  -1.899  -1.400  0.00  0.00    +0.214 C 
BRANCH  20  21
ATOM     21  C   UNL     1       4.019  -0.950  -1.645  0.00  0.00    +0.235 C 
ATOM     22  O   UNL     1       3.970   0.183  -1.215  0.00  0.00    -0.274 OA
ATOM     23  N   UNL     1       5.097  -1.360  -2.343  0.00  0.00    -0.284 N 
ATOM     24  H   UNL     1       5.166  -2.284  -2.629  0.00  0.00    +0.155 HD
BRANCH  23  25
ATOM     25  C   UNL     1       6.117  -0.451  -2.654  0.00  0.00    +0.036 A 
ATOM     26  C   UNL     1       6.792  -0.554  -3.865  0.00  0.00    +0.025 A 
ATOM     27  C   UNL     1       7.798   0.338  -4.178  0.00  0.00    +0.029 A 
ATOM     28  C   UNL     1       8.137   1.340  -3.281  0.00  0.00    +0.067 A 
ATOM     29  C   UNL     1       7.461   1.446  -2.064  0.00  0.00    +0.069 A 
ATOM     30  C   UNL     1       6.448   0.552  -1.756  0.00  0.00    +0.051 A 
ATOM     31  N   UNL     1       8.015   2.531  -1.389  0.00  0.00    -0.306 N 
ATOM     32  H   UNL     1       7.749   2.850  -0.512  0.00  0.00    +0.170 HD
ATOM     33  C   UNL     1       8.984   3.061  -2.159  0.00  0.00    +0.325 A 
ATOM     34  O   UNL     1       9.667   4.024  -1.862  0.00  0.00    -0.247 OA
ATOM     35  N   UNL     1       9.082   2.365  -3.307  0.00  0.00    -0.306 N 
ATOM     36  H   UNL     1       9.704   2.546  -4.029  0.00  0.00    +0.170 HD
ENDBRANCH  23  25
ENDBRANCH  20  21
ENDBRANCH   5  20
TORSDOF 6
