REMARK  Name = ZINC17315572
REMARK  11 active torsions:
REMARK  status: ('A' for Active; 'I' for Inactive)
REMARK    1  A    between atoms: C_4  and  C_7
REMARK    2  A    between atoms: C_8  and  C_9
REMARK    3  A    between atoms: N_10  and  N_11
REMARK    4  A    between atoms: C_12  and  C_14
REMARK    5  A    between atoms: C_14  and  C_16
REMARK    6  A    between atoms: C_14  and  O_32
REMARK    7  A    between atoms: C_16  and  C_18
REMARK    8  A    between atoms: C_16  and  O_31
REMARK    9  A    between atoms: N_20  and  N_21
REMARK   10  A    between atoms: C_22  and  C_23
REMARK   11  A    between atoms: C_24  and  C_25
REMARK                            x       y       z     vdW  Elec       q    Type
REMARK                         _______ _______ _______ _____ _____    ______ ____
ROOT
ATOM      1  C   UNL     1       5.275   8.441  -0.331  0.00  0.00    +0.239 C 
ENDROOT
BRANCH   1   3
ATOM      2  N   UNL     1       6.404  10.600   0.099  0.00  0.00    -0.205 N 
ATOM      3  C   UNL     1       5.251   9.930  -0.097  0.00  0.00    +0.264 C 
ATOM      4  O   UNL     1       4.194  10.525  -0.084  0.00  0.00    -0.271 OA
ATOM      5  H   UNL     1       7.249  10.124   0.089  0.00  0.00    +0.177 HD
BRANCH   2   7
ATOM      6  C   UNL     1       7.495  12.631   0.505  0.00  0.00    +0.130 C 
ATOM      7  N   UNL     1       6.381  11.983   0.316  0.00  0.00    -0.188 NA
BRANCH   6   9
ATOM      8  C   UNL     1       9.885  12.606   0.686  0.00  0.00    +0.009 C 
ATOM      9  C   UNL     1       8.731  11.935   0.490  0.00  0.00    +0.022 C 
BRANCH   8  13
ATOM     10  C   UNL     1      13.581  10.525   0.643  0.00  0.00    +0.000 A 
ATOM     11  C   UNL     1      13.563  11.892   0.857  0.00  0.00    +0.001 A 
ATOM     12  C   UNL     1      12.366  12.576   0.872  0.00  0.00    +0.008 A 
ATOM     13  C   UNL     1      11.168  11.884   0.670  0.00  0.00    -0.025 A 
ATOM     14  C   UNL     1      11.194  10.502   0.459  0.00  0.00    +0.008 A 
ATOM     15  C   UNL     1      12.399   9.833   0.441  0.00  0.00    +0.001 A 
ENDBRANCH   8  13
ENDBRANCH   6   9
ENDBRANCH   2   7
ENDBRANCH   1   3
BRANCH   1  16
ATOM     16  O   UNL     1       3.953   7.984  -0.625  0.00  0.00    -0.379 OA
ATOM     17  H   UNL     1       3.313   8.151   0.081  0.00  0.00    +0.211 HD
ENDBRANCH   1  16
BRANCH   1  18
ATOM     18  C   UNL     1       5.791   7.736   0.925  0.00  0.00    +0.239 C 
BRANCH  18  19
ATOM     19  C   UNL     1       5.815   6.247   0.691  0.00  0.00    +0.264 C 
ATOM     20  O   UNL     1       6.872   5.652   0.678  0.00  0.00    -0.271 OA
ATOM     21  N   UNL     1       4.662   5.577   0.495  0.00  0.00    -0.205 N 
ATOM     22  H   UNL     1       3.817   6.053   0.505  0.00  0.00    +0.177 HD
BRANCH  21  23
ATOM     23  N   UNL     1       4.685   4.193   0.278  0.00  0.00    -0.188 NA
ATOM     24  C   UNL     1       3.571   3.546   0.089  0.00  0.00    +0.130 C 
BRANCH  24  25
ATOM     25  C   UNL     1       2.335   4.241   0.104  0.00  0.00    +0.022 C 
ATOM     26  C   UNL     1       1.175   3.558   0.021  0.00  0.00    +0.009 C 
BRANCH  26  27
ATOM     27  C   UNL     1       1.181   2.087   0.094  0.00  0.00    -0.025 A 
ATOM     28  C   UNL     1       2.097   1.428   0.920  0.00  0.00    +0.008 A 
ATOM     29  C   UNL     1       2.095   0.051   0.983  0.00  0.00    +0.001 A 
ATOM     30  C   UNL     1       1.190  -0.679   0.232  0.00  0.00    +0.000 A 
ATOM     31  C   UNL     1       0.281  -0.034  -0.588  0.00  0.00    +0.001 A 
ATOM     32  C   UNL     1       0.271   1.343  -0.662  0.00  0.00    +0.008 A 
ENDBRANCH  26  27
ENDBRANCH  24  25
ENDBRANCH  21  23
ENDBRANCH  18  19
BRANCH  18  33
ATOM     33  O   UNL     1       7.113   8.193   1.219  0.00  0.00    -0.379 OA
ATOM     34  H   UNL     1       7.753   8.025   0.513  0.00  0.00    +0.211 HD
ENDBRANCH  18  33
ENDBRANCH   1  18
TORSDOF 11
