REMARK  Name = ZINC48625198
REMARK  4 active torsions:
REMARK  status: ('A' for Active; 'I' for Inactive)
REMARK    1  A    between atoms: C_3  and  C_8
REMARK    2  A    between atoms: C_5  and  O_7
REMARK    3  A    between atoms: C_8  and  C_10
REMARK    4  A    between atoms: C_11  and  C_12
REMARK                            x       y       z     vdW  Elec       q    Type
REMARK                         _______ _______ _______ _____ _____    ______ ____
ROOT
ATOM      1  C   UNL     1       3.639   3.587   0.210  0.00  0.00    +0.052 C 
ATOM      2  C   UNL     1       4.794   4.279   0.080  0.00  0.00    +0.012 C 
ENDROOT
BRANCH   2   3
ATOM      3  C   UNL     1       6.079   3.568   0.064  0.00  0.00    -0.024 A 
ATOM      4  C   UNL     1       6.243   2.422  -0.725  0.00  0.00    +0.011 A 
ATOM      5  C   UNL     1       7.447   1.761  -0.742  0.00  0.00    +0.046 A 
ATOM      6  C   UNL     1       8.518   2.222   0.027  0.00  0.00    +0.124 A 
ATOM      7  C   UNL     1       8.349   3.357   0.816  0.00  0.00    -0.002 A 
ATOM      8  C   UNL     1       7.154   4.032   0.834  0.00  0.00    +0.015 A 
ATOM      9  C   UNL     1       9.659   3.592   1.542  0.00  0.00    +0.080 C 
ATOM     10  C   UNL     1      10.381   2.238   1.345  0.00  0.00    +0.234 C 
ATOM     11  O   UNL     1       9.780   1.728   0.142  0.00  0.00    -0.491 OA
ENDBRANCH   2   3
BRANCH   1  12
ATOM     12  C   UNL     1       3.670   2.223   0.595  0.00  0.00    +0.186 C 
ATOM     13  O   UNL     1       4.723   1.706   0.921  0.00  0.00    -0.287 OA
BRANCH  12  16
ATOM     14  C   UNL     1       0.052   1.273   0.233  0.00  0.00    +0.004 A 
ATOM     15  C   UNL     1       1.214   2.018   0.227  0.00  0.00    +0.012 A 
ATOM     16  C   UNL     1       2.423   1.428   0.600  0.00  0.00    +0.025 A 
ATOM     17  C   UNL     1       2.450   0.085   0.978  0.00  0.00    +0.057 A 
ATOM     18  C   UNL     1       1.279  -0.653   0.980  0.00  0.00    +0.118 A 
ATOM     19  C   UNL     1       0.081  -0.057   0.607  0.00  0.00    +0.045 A 
BRANCH  18  20
ATOM     20  O   UNL     1       1.301  -1.962   1.347  0.00  0.00    -0.507 OA
ATOM     21  H   UNL     1       1.162  -2.107   2.293  0.00  0.00    +0.292 HD
ENDBRANCH  18  20
ENDBRANCH  12  16
ENDBRANCH   1  12
TORSDOF 4
