REMARK  Name = ZINC35491301
REMARK  19 active torsions:
REMARK  status: ('A' for Active; 'I' for Inactive)
REMARK    1  A    between atoms: C_1  and  C_2
REMARK    2  A    between atoms: C_2  and  C_3
REMARK    3  A    between atoms: C_3  and  C_5
REMARK    4  A    between atoms: C_3  and  C_6
REMARK    5  A    between atoms: C_6  and  C_8
REMARK    6  A    between atoms: C_6  and  N_25
REMARK    7  A    between atoms: C_10  and  C_13
REMARK    8  A    between atoms: C_15  and  O_23
REMARK    9  A    between atoms: C_16  and  O_21
REMARK   10  A    between atoms: C_17  and  O_19
REMARK   11  A    between atoms: O_19  and  C_20
REMARK   12  A    between atoms: O_21  and  C_22
REMARK   13  A    between atoms: O_23  and  C_24
REMARK   14  A    between atoms: C_26  and  C_28
REMARK   15  A    between atoms: C_28  and  C_29
REMARK   16  A    between atoms: C_29  and  C_30
REMARK   17  A    between atoms: C_30  and  C_31
REMARK   18  A    between atoms: C_31  and  C_32
REMARK   19  A    between atoms: C_32  and  N_33
REMARK                            x       y       z     vdW  Elec       q    Type
REMARK                         _______ _______ _______ _____ _____    ______ ____
ROOT
ATOM      1  C   UNL     1      -1.413  -2.059   0.130  0.00  0.00    +0.164 C 
ENDROOT
BRANCH   1   2
ATOM      2  C   UNL     1      -0.833  -2.453   1.464  0.00  0.00    +0.248 A 
ATOM      3  N   UNL     1      -1.507  -2.901   2.485  0.00  0.00    -0.190 NA
ATOM      4  C   UNL     1      -0.675  -3.153   3.511  0.00  0.00    +0.202 A 
ATOM      5  N   UNL     1       0.548  -2.861   3.140  0.00  0.00    -0.056 NA
ATOM      6  O   UNL     1       0.463  -2.406   1.798  0.00  0.00    -0.336 OA
BRANCH   4   7
ATOM      7  C   UNL     1      -1.074  -3.674   4.841  0.00  0.00    +0.030 A 
ATOM      8  C   UNL     1      -2.414  -3.950   5.109  0.00  0.00    +0.061 A 
ATOM      9  C   UNL     1      -2.785  -4.436   6.350  0.00  0.00    +0.166 A 
ATOM     10  C   UNL     1      -1.823  -4.649   7.331  0.00  0.00    +0.204 A 
ATOM     11  C   UNL     1      -0.485  -4.373   7.066  0.00  0.00    +0.166 A 
ATOM     12  C   UNL     1      -0.110  -3.893   5.823  0.00  0.00    +0.061 A 
BRANCH  11  13
ATOM     13  O   UNL     1       0.455  -4.581   8.026  0.00  0.00    -0.491 OA
ATOM     14  C   UNL     1       1.809  -4.277   7.686  0.00  0.00    +0.277 C 
ENDBRANCH  11  13
BRANCH  10  15
ATOM     15  O   UNL     1      -2.189  -5.126   8.551  0.00  0.00    -0.488 OA
ATOM     16  C   UNL     1      -2.202  -6.545   8.715  0.00  0.00    +0.277 C 
ENDBRANCH  10  15
BRANCH   9  17
ATOM     17  O   UNL     1      -4.093  -4.705   6.611  0.00  0.00    -0.491 OA
ATOM     18  C   UNL     1      -5.028  -4.463   5.558  0.00  0.00    +0.277 C 
ENDBRANCH   9  17
ENDBRANCH   4   7
ENDBRANCH   1   2
BRANCH   1  19
ATOM     19  N   UNL     1      -0.592  -2.621  -0.945  0.00  0.00    -0.304 N 
ATOM     20  C   UNL     1      -1.133  -2.850  -2.157  0.00  0.00    +0.214 C 
ATOM     21  O   UNL     1      -2.301  -2.592  -2.359  0.00  0.00    -0.276 OA
ATOM     22  H   UNL     1       0.342  -2.828  -0.784  0.00  0.00    +0.149 HD
BRANCH  20  23
ATOM     23  C   UNL     1      -0.288  -3.428  -3.263  0.00  0.00    +0.096 C 
BRANCH  23  24
ATOM     24  C   UNL     1      -1.138  -3.588  -4.525  0.00  0.00    +0.009 C 
BRANCH  24  25
ATOM     25  C   UNL     1      -0.280  -4.175  -5.647  0.00  0.00    -0.001 C 
BRANCH  25  26
ATOM     26  C   UNL     1      -1.131  -4.334  -6.909  0.00  0.00    -0.020 C 
BRANCH  26  27
ATOM     27  C   UNL     1      -0.272  -4.921  -8.032  0.00  0.00    -0.086 C 
BRANCH  27  28
ATOM     28  N   UNL     1      -1.089  -5.074  -9.243  0.00  0.00    +0.378 N 
ATOM     29  H   UNL     1      -1.862  -5.694  -9.052  0.00  0.00    -0.090 HD
ATOM     30  H   UNL     1      -1.443  -4.173  -9.527  0.00  0.00    -0.090 HD
ATOM     31  H   UNL     1      -0.523  -5.461  -9.983  0.00  0.00    -0.090 HD
ENDBRANCH  27  28
ENDBRANCH  26  27
ENDBRANCH  25  26
ENDBRANCH  24  25
ENDBRANCH  23  24
ENDBRANCH  20  23
ENDBRANCH   1  19
BRANCH   1  32
ATOM     32  C   UNL     1      -1.433  -0.534   0.013  0.00  0.00    +0.015 C 
ATOM     33  C   UNL     1      -2.135  -0.131  -1.286  0.00  0.00    +0.010 C 
BRANCH  32  35
ATOM     34  C   UNL     1      -0.019   1.526   0.010  0.00  0.00    +0.004 C 
ATOM     35  C   UNL     1       0.002  -0.004   0.002  0.00  0.00    +0.002 C 
ENDBRANCH  32  35
ENDBRANCH   1  32
TORSDOF 14
