REMARK  Name = ZINC42580855
REMARK  4 active torsions:
REMARK  status: ('A' for Active; 'I' for Inactive)
REMARK    1  A    between atoms: C_1  and  C_2
REMARK    2  A    between atoms: C_2  and  C_3
REMARK    3  A    between atoms: C_9  and  N_11
REMARK    4  A    between atoms: C_12  and  N_20
REMARK                            x       y       z     vdW  Elec       q    Type
REMARK                         _______ _______ _______ _____ _____    ______ ____
ROOT
ATOM      1  N   UNL     1      -0.470  -2.661  -1.160  0.00  0.00    -0.279 N 
ATOM      2  C   UNL     1      -0.790  -3.487  -0.110  0.00  0.00    +0.105 A 
ATOM      3  C   UNL     1      -2.051  -4.007  -0.025  0.00  0.00    +0.111 A 
ATOM      4  C   UNL     1      -2.990  -3.684  -1.017  0.00  0.00    +0.256 A 
ATOM      5  O   UNL     1      -4.121  -4.136  -0.962  0.00  0.00    -0.268 OA
ATOM      6  N   UNL     1      -2.634  -2.870  -2.030  0.00  0.00    -0.275 N 
ATOM      7  H   UNL     1      -3.281  -2.645  -2.717  0.00  0.00    +0.173 HD
ATOM      8  C   UNL     1      -1.390  -2.362  -2.095  0.00  0.00    +0.331 A 
ATOM      9  O   UNL     1      -1.091  -1.625  -3.015  0.00  0.00    -0.246 OA
ENDROOT
BRANCH   1  15
ATOM     10  C   UNL     1       0.798  -0.571  -1.226  0.00  0.00    +0.012 C 
ATOM     11  C   UNL     1      -0.047  -0.079  -2.402  0.00  0.00    +0.005 C 
ATOM     12  C   UNL     1       0.598  -0.527  -3.716  0.00  0.00    +0.000 C 
ATOM     13  C   UNL     1       0.679  -2.055  -3.749  0.00  0.00    +0.002 C 
ATOM     14  C   UNL     1       1.524  -2.546  -2.572  0.00  0.00    +0.025 C 
ATOM     15  C   UNL     1       0.879  -2.098  -1.259  0.00  0.00    +0.096 C 
BRANCH  10  17
ATOM     16  C   UNL     1       0.186   1.405   0.176  0.00  0.00    +0.004 C 
ATOM     17  C   UNL     1       0.154  -0.122   0.087  0.00  0.00    +0.002 C 
ENDBRANCH  10  17
ENDBRANCH   1  15
BRANCH   2  18
ATOM     18  N   UNL     1       0.148  -3.786   0.846  0.00  0.00    -0.344 N 
ATOM     19  H   UNL     1       1.006  -3.334   0.842  0.00  0.00    +0.144 HD
ATOM     20  H   UNL     1      -0.047  -4.451   1.525  0.00  0.00    +0.144 HD
ENDBRANCH   2  18
TORSDOF 3
