REMARK  Name = ZINC06195737
REMARK  9 active torsions:
REMARK  status: ('A' for Active; 'I' for Inactive)
REMARK    1  A    between atoms: C_1  and  C_2
REMARK    2  A    between atoms: C_2  and  O_3
REMARK    3  A    between atoms: O_3  and  C_4
REMARK    4  A    between atoms: C_6  and  C_12
REMARK    5  A    between atoms: C_9  and  O_10
REMARK    6  A    between atoms: C_22  and  C_34
REMARK    7  A    between atoms: C_23  and  C_24
REMARK    8  A    between atoms: N_26  and  C_27
REMARK    9  A    between atoms: C_32  and  C_33
REMARK                            x       y       z     vdW  Elec       q    Type
REMARK                         _______ _______ _______ _____ _____    ______ ____
ROOT
ATOM      1  C   UNL     1      -2.557   0.103   0.142  0.00  0.00    +0.090 C 
ATOM      2  C   UNL     1      -3.746  -0.776  -0.164  0.00  0.00    +0.024 C 
ATOM      3  C   UNL     1      -3.659  -2.118  -0.042  0.00  0.00    +0.015 C 
ATOM      4  C   UNL     1      -4.850  -3.002  -0.316  0.00  0.00    +0.051 C 
ATOM      5  C   UNL     1      -5.733  -2.356  -1.387  0.00  0.00    +0.014 C 
ATOM      6  C   UNL     1      -6.168  -0.974  -0.890  0.00  0.00    +0.080 C 
ATOM      7  C   UNL     1      -4.943  -0.161  -0.568  0.00  0.00    +0.162 C 
ATOM      8  O   UNL     1      -4.990   1.050  -0.660  0.00  0.00    -0.292 OA
ATOM      9  N   UNL     1      -2.482  -2.706   0.338  0.00  0.00    -0.321 N 
ATOM     10  C   UNL     1      -1.298  -2.030   0.228  0.00  0.00    +0.014 C 
ATOM     11  C   UNL     1      -1.285  -0.691   0.126  0.00  0.00    +0.043 C 
ATOM     12  C   UNL     1       0.001  -2.794   0.223  0.00  0.00    +0.061 C 
ATOM     13  H   UNL     1      -2.484  -3.731   0.737  0.00  0.00    +0.152 HD
ENDROOT
BRANCH   1  16
ATOM     14  C   UNL     1      -2.970   2.680   2.874  0.00  0.00    +0.163 A 
ATOM     15  C   UNL     1      -2.802   2.103   1.625  0.00  0.00    +0.054 A 
ATOM     16  C   UNL     1      -2.734   0.728   1.502  0.00  0.00    -0.031 A 
ATOM     17  C   UNL     1      -2.822  -0.075   2.623  0.00  0.00    +0.023 A 
ATOM     18  C   UNL     1      -2.984   0.494   3.874  0.00  0.00    +0.063 A 
ATOM     19  C   UNL     1      -3.058   1.872   4.003  0.00  0.00    +0.173 A 
ATOM     20 BR   UNL     1      -3.104  -0.608   5.406  0.00  0.00    -0.046 Br
BRANCH  19  21
ATOM     21  O   UNL     1      -3.218   2.434   5.232  0.00  0.00    -0.503 OA
ATOM     22  H   UNL     1      -3.288   1.794   6.124  0.00  0.00    +0.292 HD
ENDBRANCH  19  21
BRANCH  14  23
ATOM     23  O   UNL     1      -3.043   4.032   2.996  0.00  0.00    -0.489 OA
BRANCH  23  25
ATOM     24  C   UNL     1      -3.047   6.288   2.129  0.00  0.00    +0.048 C 
ATOM     25  C   UNL     1      -2.945   4.798   1.794  0.00  0.00    +0.226 C 
ENDBRANCH  23  25
ENDBRANCH  14  23
ENDBRANCH   1  16
BRANCH  11  26
ATOM     26  C   UNL     1      -0.045  -0.016   0.007  0.00  0.00    +0.247 C 
ATOM     27  O   UNL     1       0.988  -0.653  -0.095  0.00  0.00    -0.270 OA
ATOM     28  N   UNL     1      -0.009   1.331   0.007  0.00  0.00    -0.281 N 
ATOM     29  H   UNL     1      -0.947   1.907   0.007  0.00  0.00    +0.155 HD
BRANCH  28  30
ATOM     30  C   UNL     1       1.220   1.998   0.006  0.00  0.00    +0.037 A 
ATOM     31  C   UNL     1       2.352   1.371   0.512  0.00  0.00    +0.023 A 
ATOM     32  C   UNL     1       3.564   2.032   0.509  0.00  0.00    +0.002 A 
ATOM     33  C   UNL     1       3.653   3.316   0.004  0.00  0.00    +0.000 A 
ATOM     34  C   UNL     1       2.528   3.943  -0.499  0.00  0.00    +0.005 A 
ATOM     35  C   UNL     1       1.313   3.286  -0.505  0.00  0.00    -0.029 A 
ATOM     36  C   UNL     1       0.089   3.968  -1.059  0.00  0.00    +0.045 C 
ENDBRANCH  28  30
ENDBRANCH  11  26
TORSDOF 6
