REMARK  Name = ZINC20681911
REMARK  8 active torsions:
REMARK  status: ('A' for Active; 'I' for Inactive)
REMARK    1  A    between atoms: C_1  and  C_2
REMARK    2  A    between atoms: C_2  and  C_3
REMARK    3  A    between atoms: C_3  and  N_4
REMARK    4  A    between atoms: N_4  and  S_5
REMARK    5  A    between atoms: S_5  and  C_8
REMARK    6  A    between atoms: C_21  and  C_24
REMARK    7  A    between atoms: C_27  and  O_31
REMARK    8  A    between atoms: C_29  and  O_30
REMARK                            x       y       z     vdW  Elec       q    Type
REMARK                         _______ _______ _______ _____ _____    ______ ____
ROOT
ATOM      1  C   UNL     1       0.014   5.238  -0.286  0.00  0.00    +0.106 A 
ATOM      2  C   UNL     1      -0.641   4.020  -0.318  0.00  0.00    +0.030 A 
ATOM      3  C   UNL     1       0.087   2.849  -0.251  0.00  0.00    +0.025 A 
ATOM      4  C   UNL     1       1.473   2.897  -0.164  0.00  0.00    +0.031 A 
ATOM      5  C   UNL     1       2.135   4.115  -0.139  0.00  0.00    -0.018 A 
ATOM      6  C   UNL     1       1.391   5.285  -0.200  0.00  0.00    +0.034 A 
ATOM      7  C   UNL     1       3.625   4.215  -0.053  0.00  0.00    +0.049 C 
ATOM      8  C   UNL     1       4.072   4.629   1.329  0.00  0.00    -0.023 C 
ATOM      9  C   UNL     1       5.188   4.020   1.645  0.00  0.00    -0.030 C 
ATOM     10  C   UNL     1       5.641   3.118   0.513  0.00  0.00    +0.033 C 
ATOM     11  C   UNL     1       4.332   2.867  -0.292  0.00  0.00    +0.029 C 
ATOM     12  C   UNL     1       3.569   1.745   0.418  0.00  0.00    +0.108 C 
ATOM     13  N   UNL     1       2.198   1.702  -0.099  0.00  0.00    -0.336 N 
ATOM     14  H   UNL     1       1.762   0.745  -0.425  0.00  0.00    +0.147 HD
ENDROOT
BRANCH  12  15
ATOM     15  C   UNL     1       3.542   2.013   1.901  0.00  0.00    +0.015 A 
ATOM     16  C   UNL     1       2.568   2.836   2.435  0.00  0.00    +0.012 A 
ATOM     17  C   UNL     1       2.540   3.084   3.794  0.00  0.00    +0.046 A 
ATOM     18  C   UNL     1       3.489   2.507   4.626  0.00  0.00    +0.120 A 
ATOM     19  C   UNL     1       4.466   1.681   4.092  0.00  0.00    +0.091 A 
ATOM     20  C   UNL     1       4.490   1.430   2.729  0.00  0.00    +0.125 A 
BRANCH  20  21
ATOM     21  O   UNL     1       5.443   0.616   2.203  0.00  0.00    -0.506 OA
ATOM     22  H   UNL     1       6.194   0.154   2.860  0.00  0.00    +0.292 HD
ENDBRANCH  20  21
BRANCH  18  23
ATOM     23  O   UNL     1       3.461   2.751   5.962  0.00  0.00    -0.507 OA
ATOM     24  H   UNL     1       4.214   2.294   6.621  0.00  0.00    +0.292 HD
ENDBRANCH  18  23
ENDBRANCH  12  15
BRANCH   1  25
ATOM     25  S   UNL     1      -0.912   6.734  -0.363  0.00  0.00    +0.058 S 
ATOM     26  O   UNL     1      -2.217   6.430   0.110  0.00  0.00    -0.153 OA
ATOM     27  O   UNL     1      -0.104   7.743   0.227  0.00  0.00    -0.153 OA
BRANCH  25  28
ATOM     28  N   UNL     1      -1.070   7.130  -1.964  0.00  0.00    -0.190 NA
ATOM     29  H   UNL     1      -0.465   7.951  -2.376  0.00  0.00    +0.148 HD
BRANCH  28  30
ATOM     30  C   UNL     1      -1.836   6.262  -2.861  0.00  0.00    +0.105 C 
BRANCH  30  32
ATOM     31  C   UNL     1      -2.945   6.107  -5.094  0.00  0.00    +0.005 C 
ATOM     32  C   UNL     1      -2.145   7.014  -4.157  0.00  0.00    +0.013 C 
ENDBRANCH  30  32
ENDBRANCH  28  30
ENDBRANCH  25  28
ENDBRANCH   1  25
TORSDOF 7
