REMARK  Name = ZINC04176782
REMARK  8 active torsions:
REMARK  status: ('A' for Active; 'I' for Inactive)
REMARK    1  A    between atoms: C_1  and  C_2
REMARK    2  A    between atoms: C_5  and  S_8
REMARK    3  A    between atoms: S_8  and  O_11
REMARK    4  A    between atoms: O_11  and  C_12
REMARK    5  A    between atoms: C_16  and  N_18
REMARK    6  A    between atoms: C_19  and  C_27
REMARK    7  A    between atoms: C_21  and  C_25
REMARK    8  A    between atoms: C_21  and  C_26
REMARK                            x       y       z     vdW  Elec       q    Type
REMARK                         _______ _______ _______ _____ _____    ______ ____
ROOT
ATOM      1  C   UNL     1      -0.965   2.430   0.105  0.00  0.00    +0.159 A 
ATOM      2  C   UNL     1      -0.772   1.119  -0.306  0.00  0.00    +0.049 A 
ATOM      3  C   UNL     1       0.495   0.673  -0.632  0.00  0.00    +0.005 A 
ATOM      4  C   UNL     1       1.572   1.535  -0.560  0.00  0.00    +0.024 A 
ATOM      5  C   UNL     1       1.385   2.850  -0.154  0.00  0.00    +0.046 A 
ATOM      6  C   UNL     1       0.114   3.298   0.178  0.00  0.00    +0.072 A 
ENDROOT
BRANCH   5   7
ATOM      7  N   UNL     1       2.477   3.724  -0.082  0.00  0.00    -0.228 N 
ATOM      8  C   UNL     1       3.200   3.777   1.101  0.00  0.00    +0.015 C 
ATOM      9  C   UNL     1       4.243   4.576   1.231  0.00  0.00    +0.017 C 
ATOM     10  C   UNL     1       4.625   5.448   0.053  0.00  0.00    +0.050 C 
ATOM     11  N   UNL     1       3.802   5.334  -1.162  0.00  0.00    -0.290 N 
ATOM     12  C   UNL     1       2.767   4.470  -1.156  0.00  0.00    +0.311 C 
ATOM     13  O   UNL     1       2.077   4.366  -2.152  0.00  0.00    -0.252 OA
ATOM     14  C   UNL     1       6.071   5.120  -0.326  0.00  0.00    +0.036 C 
ATOM     15  C   UNL     1       4.585   6.906   0.514  0.00  0.00    +0.036 C 
ATOM     16  C   UNL     1       2.791   2.901   2.257  0.00  0.00    +0.061 C 
ATOM     17  H   UNL     1       3.999   5.868  -1.948  0.00  0.00    +0.151 HD
ENDBRANCH   5   7
BRANCH   1  18
ATOM     18  O   UNL     1      -2.210   2.865   0.430  0.00  0.00    -0.342 OA
BRANCH  18  19
ATOM     19  S   UNL     1      -2.991   3.441  -0.743  0.00  0.00    +0.151 S 
ATOM     20  O   UNL     1      -4.165   4.029  -0.200  0.00  0.00    -0.131 OA
ATOM     21  O   UNL     1      -2.062   4.177  -1.527  0.00  0.00    -0.131 OA
BRANCH  19  26
ATOM     22  C   UNL     1      -4.804  -1.210  -4.132  0.00  0.00    +0.044 C 
ATOM     23  C   UNL     1      -4.352  -0.049  -3.286  0.00  0.00    -0.050 A 
ATOM     24  C   UNL     1      -5.154   0.413  -2.259  0.00  0.00    +0.005 A 
ATOM     25  C   UNL     1      -4.739   1.479  -1.483  0.00  0.00    +0.031 A 
ATOM     26  C   UNL     1      -3.521   2.082  -1.733  0.00  0.00    +0.128 A 
ATOM     27  C   UNL     1      -2.720   1.624  -2.762  0.00  0.00    +0.031 A 
ATOM     28  C   UNL     1      -3.134   0.555  -3.536  0.00  0.00    +0.005 A 
ENDBRANCH  19  26
ENDBRANCH  18  19
ENDBRANCH   1  18
TORSDOF 4
