REMARK  Name = ZINC16628198
REMARK  16 active torsions:
REMARK  status: ('A' for Active; 'I' for Inactive)
REMARK    1  A    between atoms: C_1  and  C_2
REMARK    2  A    between atoms: C_2  and  C_3
REMARK    3  A    between atoms: C_3  and  C_4
REMARK    4  A    between atoms: C_4  and  N_5
REMARK    5  A    between atoms: N_5  and  C_6
REMARK    6  A    between atoms: C_7  and  N_19
REMARK    7  A    between atoms: N_8  and  C_15
REMARK    8  A    between atoms: C_15  and  C_16
REMARK    9  A    between atoms: C_16  and  C_17
REMARK   10  A    between atoms: C_16  and  C_18
REMARK   11  A    between atoms: C_20  and  C_22
REMARK   12  A    between atoms: C_22  and  N_72
REMARK   13  A    between atoms: C_23  and  C_24
REMARK   14  A    between atoms: C_23  and  N_72
REMARK   15  A    between atoms: C_25  and  C_26
REMARK   16  A    between atoms: C_25  and  N_72
REMARK                            x       y       z     vdW  Elec       q    Type
REMARK                         _______ _______ _______ _____ _____    ______ ____
ROOT
ATOM      1  N   UNL     1       1.038  11.296  -0.827  0.00  0.00    -0.266 N 
ATOM      2  C   UNL     1       0.588  10.185  -1.447  0.00  0.00    +0.203 C 
ATOM      3  O   UNL     1       1.123   9.800  -2.466  0.00  0.00    -0.277 OA
ENDROOT
BRANCH   1   4
ATOM      4  C   UNL     1       2.058  12.070  -1.419  0.00  0.00    +0.140 A 
ATOM      5  C   UNL     1       3.318  11.543  -1.611  0.00  0.00    +0.127 A 
ATOM      6  N   UNL     1       4.291  12.321  -2.195  0.00  0.00    -0.280 N 
ATOM      7  C   UNL     1       4.019  13.585  -2.565  0.00  0.00    +0.331 A 
ATOM      8  O   UNL     1       4.894  14.258  -3.076  0.00  0.00    -0.246 OA
ATOM      9  N   UNL     1       2.798  14.118  -2.382  0.00  0.00    -0.273 N 
ATOM     10  H   UNL     1       2.622  15.060  -2.667  0.00  0.00    +0.173 HD
ATOM     11  C   UNL     1       1.809  13.397  -1.819  0.00  0.00    +0.277 A 
ATOM     12  O   UNL     1       0.705  13.890  -1.657  0.00  0.00    -0.266 OA
BRANCH   5  13
ATOM     13  N   UNL     1       3.597  10.253  -1.227  0.00  0.00    -0.343 N 
ATOM     14  H   UNL     1       2.905   9.706  -0.825  0.00  0.00    +0.144 HD
ATOM     15  H   UNL     1       4.487   9.889  -1.359  0.00  0.00    +0.144 HD
ENDBRANCH   5  13
BRANCH   6  16
ATOM     16  C   UNL     1       5.632  11.771  -2.409  0.00  0.00    +0.131 C 
BRANCH  16  17
ATOM     17  C   UNL     1       6.499  12.049  -1.179  0.00  0.00    +0.003 C 
ATOM     18  C   UNL     1       5.937  11.287   0.023  0.00  0.00    +0.009 C 
ATOM     19  C   UNL     1       7.932  11.586  -1.450  0.00  0.00    +0.009 C 
ENDBRANCH  16  17
ENDBRANCH   6  16
ENDBRANCH   1   4
BRANCH   1  20
ATOM     20  C   UNL     1       0.467  11.698   0.461  0.00  0.00    +0.114 C 
BRANCH  20  21
ATOM     21  C   UNL     1       1.318  11.126   1.597  0.00  0.00    +0.019 C 
BRANCH  21  23
ATOM     22  C   UNL     1       1.573  10.973   4.077  0.00  0.00    +0.004 C 
ATOM     23  C   UNL     1       0.722  11.546   2.942  0.00  0.00    -0.002 C 
ENDBRANCH  21  23
ENDBRANCH  20  21
ENDBRANCH   1  20
BRANCH   2  24
ATOM     24  C   UNL     1      -0.579   9.423  -0.874  0.00  0.00    +0.019 C 
BRANCH  24  25
ATOM     25  N   UNL     1      -0.902   8.301  -1.781  0.00  0.00    +0.388 N 
ATOM     26  H   UNL     1      -0.837   8.628  -2.752  0.00  0.00    -0.081 HD
BRANCH  25  27
ATOM     27  C   UNL     1      -2.278   7.825  -1.525  0.00  0.00    -0.081 C 
ATOM     28  C   UNL     1      -3.265   8.843  -2.100  0.00  0.00    -0.017 C 
ENDBRANCH  25  27
BRANCH  25  29
ATOM     29  C   UNL     1       0.060   7.197  -1.581  0.00  0.00    -0.030 C 
BRANCH  29  30
ATOM     30  C   UNL     1      -0.156   6.150  -2.676  0.00  0.00    +0.195 C 
ATOM     31  C   UNL     1       0.762   4.945  -2.428  0.00  0.00    +0.271 C 
ATOM     32  O   UNL     1       0.545   3.994  -3.476  0.00  0.00    -0.485 OA
ATOM     33  C   UNL     1       0.511   4.480  -4.747  0.00  0.00    +0.162 A 
ATOM     34  C   UNL     1       0.664   3.608  -5.814  0.00  0.00    +0.049 A 
ATOM     35  C   UNL     1       0.635   4.087  -7.110  0.00  0.00    +0.004 A 
ATOM     36  C   UNL     1       0.443   5.436  -7.346  0.00  0.00    +0.004 A 
ATOM     37  C   UNL     1       0.286   6.310  -6.287  0.00  0.00    +0.049 A 
ATOM     38  C   UNL     1       0.321   5.836  -4.984  0.00  0.00    +0.162 A 
ATOM     39  O   UNL     1       0.173   6.710  -3.951  0.00  0.00    -0.484 OA
ENDBRANCH  29  30
ENDBRANCH  25  29
ENDBRANCH  24  25
ENDBRANCH   2  24
TORSDOF 12
