REMARK  Name = ZINC67475556
REMARK  6 active torsions:
REMARK  status: ('A' for Active; 'I' for Inactive)
REMARK    1  A    between atoms: C_1  and  N_2
REMARK    2  A    between atoms: C_3  and  C_5
REMARK    3  A    between atoms: C_5  and  C_7
REMARK    4  A    between atoms: C_5  and  N_15
REMARK    5  A    between atoms: N_18  and  C_19
REMARK    6  A    between atoms: C_24  and  N_25
REMARK                            x       y       z     vdW  Elec       q    Type
REMARK                         _______ _______ _______ _____ _____    ______ ____
ROOT
ATOM      1  N   UNL     1      -2.517  -2.691   0.014  0.00  0.00    -0.284 N 
ATOM      2  C   UNL     1      -3.190  -2.834  -1.145  0.00  0.00    +0.305 C 
ATOM      3  O   UNL     1      -2.659  -2.537  -2.197  0.00  0.00    -0.252 OA
ATOM      4  N   UNL     1      -4.453  -3.306  -1.136  0.00  0.00    -0.266 N 
ATOM      5  H   UNL     1      -2.940  -2.928   0.854  0.00  0.00    +0.151 HD
ATOM      6  H   UNL     1      -4.848  -3.619  -0.307  0.00  0.00    +0.156 HD
ENDROOT
BRANCH   4   7
ATOM      7  C   UNL     1      -5.194  -3.344  -2.324  0.00  0.00    +0.079 A 
ATOM      8  C   UNL     1      -4.895  -2.479  -3.370  0.00  0.00    +0.028 A 
ATOM      9  C   UNL     1      -5.656  -2.555  -4.527  0.00  0.00    +0.022 A 
ATOM     10  C   UNL     1      -6.681  -3.479  -4.604  0.00  0.00    +0.113 A 
ATOM     11  N   UNL     1      -6.944  -4.288  -3.596  0.00  0.00    -0.235 NA
ATOM     12  C   UNL     1      -6.240  -4.255  -2.476  0.00  0.00    +0.175 A 
BRANCH  12  13
ATOM     13  N   UNL     1      -6.551  -5.135  -1.435  0.00  0.00    -0.220 N 
ATOM     14  C   UNL     1      -7.756  -5.722  -1.216  0.00  0.00    +0.116 A 
ATOM     15  C   UNL     1      -7.640  -6.498  -0.114  0.00  0.00    +0.041 A 
ATOM     16  C   UNL     1      -6.327  -6.384   0.357  0.00  0.00    +0.135 A 
ATOM     17  N   UNL     1      -5.673  -5.574  -0.435  0.00  0.00    -0.173 NA
ENDBRANCH  12  13
ENDBRANCH   4   7
BRANCH   1  18
ATOM     18  C   UNL     1      -1.144  -2.178   0.005  0.00  0.00    +0.191 C 
BRANCH  18  19
ATOM     19  C   UNL     1      -0.418  -2.665   1.232  0.00  0.00    -0.015 A 
ATOM     20  C   UNL     1      -1.073  -2.714   2.448  0.00  0.00    +0.009 A 
ATOM     21  C   UNL     1      -0.408  -3.160   3.575  0.00  0.00    +0.041 A 
ATOM     22  C   UNL     1       0.914  -3.559   3.486  0.00  0.00    +0.158 A 
ATOM     23  C   UNL     1       1.571  -3.511   2.266  0.00  0.00    +0.159 A 
ATOM     24  C   UNL     1       0.901  -3.068   1.139  0.00  0.00    +0.047 A 
ATOM     25  F   UNL     1       2.861  -3.899   2.177  0.00  0.00    -0.202 F 
ATOM     26  F   UNL     1       1.564  -3.995   4.588  0.00  0.00    -0.202 F 
ENDBRANCH  18  19
BRANCH  18  29
ATOM     27  C   UNL     1      -0.043   1.488  -0.009  0.00  0.00    +0.128 C 
ATOM     28  N   UNL     1      -0.016   0.024  -0.006  0.00  0.00    -0.317 N 
ATOM     29  C   UNL     1      -1.171  -0.671   0.002  0.00  0.00    +0.238 C 
ATOM     30  O   UNL     1      -2.232  -0.084   0.007  0.00  0.00    -0.273 OA
ATOM     31  H   UNL     1       0.832  -0.446  -0.011  0.00  0.00    +0.148 HD
ENDBRANCH  18  29
ENDBRANCH   1  18
TORSDOF 5
