REMARK  Name = ZINC66080637
REMARK  5 active torsions:
REMARK  status: ('A' for Active; 'I' for Inactive)
REMARK    1  A    between atoms: N_11  and  C_15
REMARK    2  A    between atoms: C_15  and  N_16
REMARK    3  A    between atoms: C_20  and  C_23
REMARK    4  A    between atoms: C_23  and  C_24
REMARK    5  A    between atoms: C_24  and  C_25
REMARK                            x       y       z     vdW  Elec       q    Type
REMARK                         _______ _______ _______ _____ _____    ______ ____
ROOT
ATOM      1  C   UNL     1      -0.019   1.523   0.010  0.00  0.00    +0.000 C 
ATOM      2  C   UNL     1       1.413   2.083  -0.000  0.00  0.00    +0.000 C 
ATOM      3  C   UNL     1       2.247   1.276  -1.002  0.00  0.00    +0.003 C 
ATOM      4  C   UNL     1       1.978   1.647  -2.477  0.00  0.00    +0.035 C 
ATOM      5  C   UNL     1       0.651   1.013  -2.921  0.00  0.00    +0.113 C 
ATOM      6  C   UNL     1       0.552  -0.426  -2.412  0.00  0.00    +0.035 C 
ATOM      7  C   UNL     1      -0.526  -0.534  -1.337  0.00  0.00    +0.003 C 
ATOM      8  C   UNL     1       0.002  -0.004   0.002  0.00  0.00    +0.000 C 
ATOM      9  C   UNL     1       0.789   0.896  -4.454  0.00  0.00    +0.248 C 
ATOM     10  O   UNL     1       1.446   0.072  -5.039  0.00  0.00    -0.273 OA
ATOM     11  N   UNL     1       0.037   1.893  -4.949  0.00  0.00    -0.211 N 
ATOM     12  C   UNL     1      -0.689   2.467  -3.986  0.00  0.00    +0.310 C 
ATOM     13  O   UNL     1      -1.405   3.433  -4.136  0.00  0.00    -0.252 OA
ATOM     14  N   UNL     1      -0.535   1.819  -2.801  0.00  0.00    -0.285 N 
ATOM     15  H   UNL     1      -1.222   1.886  -2.124  0.00  0.00    +0.151 HD
ENDROOT
BRANCH  11  16
ATOM     16  C   UNL     1       0.013   2.295  -6.358  0.00  0.00    +0.205 C 
BRANCH  16  17
ATOM     17  N   UNL     1      -1.025   1.533  -7.067  0.00  0.00    -0.286 NA
ATOM     18  C   UNL     1      -0.543   0.193  -7.424  0.00  0.00    +0.086 C 
ATOM     19  C   UNL     1      -1.691  -0.619  -8.028  0.00  0.00    +0.016 C 
ATOM     20  C   UNL     1      -2.221   0.101  -9.271  0.00  0.00    +0.006 C 
ATOM     21  C   UNL     1      -2.671   1.511  -8.880  0.00  0.00    +0.004 C 
ATOM     22  C   UNL     1      -1.495   2.262  -8.252  0.00  0.00    +0.089 C 
BRANCH  21  23
ATOM     23  C   UNL     1      -3.148   2.259 -10.127  0.00  0.00    +0.014 C 
BRANCH  23  24
ATOM     24  C   UNL     1      -4.397   1.575 -10.686  0.00  0.00    +0.096 C 
BRANCH  24  25
ATOM     25  C   UNL     1      -4.867   2.311 -11.914  0.00  0.00    +0.210 C 
ATOM     26  O   UNL     1      -4.261   3.287 -12.304  0.00  0.00    -0.276 OA
ATOM     27  N   UNL     1      -5.959   1.886 -12.579  0.00  0.00    -0.329 N 
ATOM     28  H   UNL     1      -6.443   1.105 -12.266  0.00  0.00    +0.145 HD
ATOM     29  H   UNL     1      -6.261   2.360 -13.369  0.00  0.00    +0.145 HD
ENDBRANCH  24  25
ENDBRANCH  23  24
ENDBRANCH  21  23
ENDBRANCH  16  17
ENDBRANCH  11  16
TORSDOF 5
