REMARK  Name = ZINC62123066
REMARK  9 active torsions:
REMARK  status: ('A' for Active; 'I' for Inactive)
REMARK    1  A    between atoms: C_1  and  N_2
REMARK    2  A    between atoms: N_2  and  C_3
REMARK    3  A    between atoms: N_2  and  C_23
REMARK    4  A    between atoms: C_3  and  C_4
REMARK    5  A    between atoms: C_4  and  C_5
REMARK    6  A    between atoms: C_5  and  N_6
REMARK    7  A    between atoms: C_7  and  C_9
REMARK    8  A    between atoms: N_11  and  C_12
REMARK    9  A    between atoms: C_14  and  N_20
REMARK                            x       y       z     vdW  Elec       q    Type
REMARK                         _______ _______ _______ _____ _____    ______ ____
ROOT
ATOM      1  N   UNL     1      -4.177  -0.275  -2.531  0.00  0.00    -0.308 N 
ATOM      2  C   UNL     1      -5.460  -0.629  -2.740  0.00  0.00    +0.299 C 
ATOM      3  O   UNL     1      -6.056  -1.276  -1.903  0.00  0.00    -0.265 OA
ATOM      4  H   UNL     1      -3.701   0.241  -3.200  0.00  0.00    +0.149 HD
ENDROOT
BRANCH   2   5
ATOM      5  C   UNL     1      -6.150  -0.227  -4.003  0.00  0.00    +0.303 C 
ATOM      6  O   UNL     1      -5.554   0.419  -4.840  0.00  0.00    -0.265 OA
ATOM      7  N   UNL     1      -7.433  -0.581  -4.212  0.00  0.00    -0.275 N 
ATOM      8  H   UNL     1      -7.889  -1.152  -3.574  0.00  0.00    +0.155 HD
BRANCH   7   9
ATOM      9  C   UNL     1      -8.108  -0.126  -5.350  0.00  0.00    +0.072 A 
ATOM     10  C   UNL     1      -7.423   0.034  -6.547  0.00  0.00    +0.062 A 
ATOM     11  C   UNL     1      -8.091   0.484  -7.669  0.00  0.00    +0.163 A 
ATOM     12  C   UNL     1      -9.443   0.776  -7.603  0.00  0.00    +0.156 A 
ATOM     13  C   UNL     1     -10.130   0.618  -6.410  0.00  0.00    +0.081 A 
ATOM     14  C   UNL     1      -9.467   0.162  -5.285  0.00  0.00    +0.147 A 
ATOM     15  F   UNL     1     -10.138   0.002  -4.124  0.00  0.00    -0.203 F 
ATOM     16  F   UNL     1     -10.093   1.216  -8.702  0.00  0.00    -0.203 F 
BRANCH  11  17
ATOM     17  N   UNL     1      -7.360   0.655  -8.945  0.00  0.00    +0.059 N 
ATOM     18  O   UNL     1      -6.179   0.401  -9.004  0.00  0.00    -0.126 OA
ATOM     19  O   UNL     1      -7.943   1.049  -9.928  0.00  0.00    -0.126 OA
ENDBRANCH  11  17
ENDBRANCH   7   9
ENDBRANCH   2   5
BRANCH   1  20
ATOM     20  C   UNL     1      -3.501  -0.670  -1.293  0.00  0.00    +0.103 C 
BRANCH  20  21
ATOM     21  C   UNL     1      -2.064  -0.145  -1.307  0.00  0.00    +0.000 C 
BRANCH  21  22
ATOM     22  C   UNL     1      -1.358  -0.558  -0.014  0.00  0.00    -0.077 C 
BRANCH  22  24
ATOM     23  C   UNL     1       0.007   1.415  -0.010  0.00  0.00    -0.096 C 
ATOM     24  N   UNL     1       0.022  -0.054  -0.027  0.00  0.00    +0.380 N 
ATOM     25  H   UNL     1       0.490  -0.376  -0.861  0.00  0.00    -0.082 HD
BRANCH  24  26
ATOM     26  C   UNL     1       0.736  -0.550   1.157  0.00  0.00    -0.069 C 
ATOM     27  C   UNL     1       0.752  -2.080   1.139  0.00  0.00    -0.015 C 
ATOM     28  C   UNL     1       1.496  -2.596   2.373  0.00  0.00    -0.002 C 
ATOM     29  C   UNL     1       2.933  -2.072   2.358  0.00  0.00    -0.000 C 
ATOM     30  C   UNL     1       2.917  -0.542   2.376  0.00  0.00    -0.002 C 
ATOM     31  C   UNL     1       2.173  -0.025   1.143  0.00  0.00    -0.015 C 
ENDBRANCH  24  26
ENDBRANCH  22  24
ENDBRANCH  21  22
ENDBRANCH  20  21
ENDBRANCH   1  20
TORSDOF 8
