REMARK  Name = ZINC25612473
REMARK  11 active torsions:
REMARK  status: ('A' for Active; 'I' for Inactive)
REMARK    1  A    between atoms: C_1  and  C_2
REMARK    2  A    between atoms: C_2  and  C_3
REMARK    3  A    between atoms: C_2  and  C_4
REMARK    4  A    between atoms: C_4  and  C_6
REMARK    5  A    between atoms: C_4  and  N_20
REMARK    6  A    between atoms: N_8  and  C_9
REMARK    7  A    between atoms: C_12  and  C_15
REMARK    8  A    between atoms: C_15  and  S_16
REMARK    9  A    between atoms: S_16  and  N_19
REMARK   10  A    between atoms: N_20  and  S_21
REMARK   11  A    between atoms: S_21  and  C_24
REMARK                            x       y       z     vdW  Elec       q    Type
REMARK                         _______ _______ _______ _____ _____    ______ ____
ROOT
ATOM      1  C   UNL     1      -1.064   1.385   3.865  0.00  0.00    +0.236 C 
ATOM      2  O   UNL     1      -0.663   2.120   4.741  0.00  0.00    -0.274 OA
ATOM      3  N   UNL     1      -2.236   0.736   4.013  0.00  0.00    -0.284 N 
ATOM      4  H   UNL     1      -2.564   0.013   3.252  0.00  0.00    +0.155 HD
ENDROOT
BRANCH   3   5
ATOM      5  C   UNL     1      -3.035   0.982   5.135  0.00  0.00    +0.033 A 
ATOM      6  C   UNL     1      -2.446   1.241   6.365  0.00  0.00    +0.023 A 
ATOM      7  C   UNL     1      -3.237   1.490   7.469  0.00  0.00    +0.007 A 
ATOM      8  C   UNL     1      -4.615   1.470   7.353  0.00  0.00    -0.025 A 
ATOM      9  C   UNL     1      -5.205   1.208   6.130  0.00  0.00    +0.007 A 
ATOM     10  C   UNL     1      -4.419   0.964   5.021  0.00  0.00    +0.023 A 
BRANCH   8  11
ATOM     11  C   UNL     1      -5.476   1.737   8.561  0.00  0.00    +0.219 C 
BRANCH  11  12
ATOM     12  S   UNL     1      -5.828   0.172   9.409  0.00  0.00    +0.031 S 
ATOM     13  O   UNL     1      -6.666  -0.644   8.601  0.00  0.00    -0.158 OA
ATOM     14  O   UNL     1      -4.639  -0.353   9.981  0.00  0.00    -0.158 OA
BRANCH  12  15
ATOM     15  N   UNL     1      -6.770   0.593  10.704  0.00  0.00    -0.208 NA
ATOM     16  H   UNL     1      -7.031  -0.310  11.277  0.00  0.00    +0.144 HD
ATOM     17  H   UNL     1      -7.690   1.078  10.346  0.00  0.00    +0.144 HD
ENDBRANCH  12  15
ENDBRANCH  11  12
ENDBRANCH   8  11
ENDBRANCH   3   5
BRANCH   1  18
ATOM     18  C   UNL     1      -0.252   1.196   2.609  0.00  0.00    +0.165 C 
BRANCH  18  20
ATOM     19  C   UNL     1      -0.243   1.467   0.125  0.00  0.00    +0.009 C 
ATOM     20  C   UNL     1      -1.075   1.639   1.398  0.00  0.00    +0.010 C 
ATOM     21  C   UNL     1      -1.466   3.109   1.557  0.00  0.00    +0.009 C 
ENDBRANCH  18  20
BRANCH  18  22
ATOM     22  N   UNL     1       0.968   2.002   2.691  0.00  0.00    -0.177 NA
ATOM     23  H   UNL     1       0.990   3.013   2.257  0.00  0.00    +0.149 HD
BRANCH  22  24
ATOM     24  S   UNL     1       2.382   1.314   3.210  0.00  0.00    +0.065 S 
ATOM     25  O   UNL     1       3.371   2.334   3.164  0.00  0.00    -0.153 OA
ATOM     26  O   UNL     1       2.075   0.604   4.402  0.00  0.00    -0.153 OA
BRANCH  24  27
ATOM     27  C   UNL     1       2.846   0.109   2.011  0.00  0.00    +0.142 A 
ATOM     28  C   UNL     1       3.675   0.238   0.947  0.00  0.00    +0.036 A 
ATOM     29  C   UNL     1       3.895  -0.856   0.131  0.00  0.00    +0.010 A 
ATOM     30  C   UNL     1       3.276  -2.026   0.421  0.00  0.00    +0.047 A 
ATOM     31  S   UNL     1       2.352  -1.602   1.888  0.00  0.00    -0.077 S 
ENDBRANCH  24  27
ENDBRANCH  22  24
ENDBRANCH  18  22
ENDBRANCH   1  18
TORSDOF 9
