REMARK  Name = ZINC61856092
REMARK  6 active torsions:
REMARK  status: ('A' for Active; 'I' for Inactive)
REMARK    1  A    between atoms: C_1  and  C_2
REMARK    2  A    between atoms: N_5  and  C_11
REMARK    3  A    between atoms: C_7  and  C_9
REMARK    4  A    between atoms: C_7  and  C_10
REMARK    5  A    between atoms: C_14  and  C_18
REMARK    6  A    between atoms: N_19  and  O_20
REMARK                            x       y       z     vdW  Elec       q    Type
REMARK                         _______ _______ _______ _____ _____    ______ ____
ROOT
ATOM      1  C   UNL     1      -2.092  -2.846  -0.655  0.00  0.00    +0.031 A 
ATOM      2  C   UNL     1      -1.955  -4.225  -0.526  0.00  0.00    +0.024 A 
ATOM      3  C   UNL     1      -2.649  -5.069  -1.365  0.00  0.00    +0.014 A 
ATOM      4  C   UNL     1      -3.491  -4.540  -2.345  0.00  0.00    +0.036 A 
ATOM      5  C   UNL     1      -3.627  -3.156  -2.472  0.00  0.00    +0.053 A 
ATOM      6  C   UNL     1      -2.934  -2.316  -1.626  0.00  0.00    +0.043 A 
ATOM      7 CL   UNL     1      -4.673  -2.493  -3.689  0.00  0.00    -0.083 Cl
ENDROOT
BRANCH   1  11
ATOM      8  C   UNL     1       0.009   1.514  -0.001  0.00  0.00    +0.039 C 
ATOM      9  C   UNL     1       0.018  -0.016   0.000  0.00  0.00    +0.133 C 
ATOM     10  C   UNL     1      -1.423  -0.537   0.006  0.00  0.00    +0.136 C 
ATOM     11  N   UNL     1      -1.389  -1.995   0.196  0.00  0.00    -0.325 N 
ATOM     12  C   UNL     1      -0.591  -2.529   1.311  0.00  0.00    +0.139 C 
ATOM     13  C   UNL     1       0.811  -1.911   1.241  0.00  0.00    +0.080 C 
ATOM     14  O   UNL     1       0.695  -0.488   1.167  0.00  0.00    -0.368 OA
ATOM     15  C   UNL     1       1.601  -2.295   2.493  0.00  0.00    +0.043 C 
ATOM     16  C   UNL     1       1.537  -2.429  -0.002  0.00  0.00    +0.043 C 
ENDBRANCH   1  11
BRANCH   4  17
ATOM     17  C   UNL     1      -4.236  -5.444  -3.248  0.00  0.00    +0.164 C 
ATOM     18  N   UNL     1      -5.021  -4.950  -4.161  0.00  0.00    -0.071 NA
ATOM     19  N   UNL     1      -4.099  -6.816  -3.121  0.00  0.00    -0.340 N 
ATOM     20  H   UNL     1      -3.515  -7.184  -2.440  0.00  0.00    +0.144 HD
ATOM     21  H   UNL     1      -4.588  -7.409  -3.713  0.00  0.00    +0.144 HD
BRANCH  18  22
ATOM     22  O   UNL     1      -5.734  -5.815  -5.025  0.00  0.00    -0.408 OA
ATOM     23  H   UNL     1      -6.290  -5.356  -5.670  0.00  0.00    +0.328 HD
ENDBRANCH  18  22
ENDBRANCH   4  17
TORSDOF 3
