REMARK  Name = ZINC06484089
REMARK  8 active torsions:
REMARK  status: ('A' for Active; 'I' for Inactive)
REMARK    1  A    between atoms: C_1  and  C_2
REMARK    2  A    between atoms: N_4  and  C_11
REMARK    3  A    between atoms: C_13  and  C_22
REMARK    4  A    between atoms: C_15  and  C_20
REMARK    5  A    between atoms: C_17  and  C_18
REMARK    6  A    between atoms: C_17  and  C_19
REMARK    7  A    between atoms: C_20  and  O_21
REMARK    8  A    between atoms: C_22  and  O_23
REMARK                            x       y       z     vdW  Elec       q    Type
REMARK                         _______ _______ _______ _____ _____    ______ ____
ROOT
ATOM      1  C   UNL     1      -0.374   1.288  -2.182  0.00  0.00    +0.103 C 
ATOM      2  C   UNL     1      -1.335   1.338  -0.983  0.00  0.00    +0.044 C 
ATOM      3  C   UNL     1      -2.255   0.401  -1.782  0.00  0.00    +0.029 C 
ATOM      4  C   UNL     1      -1.601   0.969  -3.052  0.00  0.00    -0.008 C 
ATOM      5  C   UNL     1      -1.333  -0.085  -4.128  0.00  0.00    +0.013 C 
ATOM      6  C   UNL     1      -2.305   2.212  -3.601  0.00  0.00    +0.013 C 
ENDROOT
BRANCH   1  10
ATOM      7  C   UNL     1       0.074   6.117  -1.294  0.00  0.00    +0.051 C 
ATOM      8  C   UNL     1       0.457   4.881  -2.066  0.00  0.00    +0.030 A 
ATOM      9  C   UNL     1      -0.110   3.691  -1.777  0.00  0.00    +0.099 A 
ATOM     10  N   UNL     1       0.246   2.579  -2.492  0.00  0.00    -0.296 N 
ATOM     11  C   UNL     1       1.163   2.660  -3.473  0.00  0.00    +0.330 A 
ATOM     12  O   UNL     1       1.467   1.659  -4.093  0.00  0.00    -0.246 OA
ATOM     13  N   UNL     1       1.748   3.833  -3.779  0.00  0.00    -0.275 N 
ATOM     14  H   UNL     1       2.427   3.875  -4.511  0.00  0.00    +0.173 HD
ATOM     15  C   UNL     1       1.421   4.952  -3.101  0.00  0.00    +0.257 A 
ATOM     16  O   UNL     1       1.949   6.014  -3.377  0.00  0.00    -0.267 OA
ENDBRANCH   1  10
BRANCH   3  17
ATOM     17  C   UNL     1      -3.741   0.743  -1.652  0.00  0.00    +0.160 C 
BRANCH  17  18
ATOM     18  O   UNL     1      -4.268   0.136  -0.471  0.00  0.00    -0.395 OA
ATOM     19  H   UNL     1      -5.208   0.311  -0.324  0.00  0.00    +0.209 HD
ENDBRANCH  17  18
ENDBRANCH   3  17
BRANCH   2  20
ATOM     20  C   UNL     1      -0.765   0.702   0.286  0.00  0.00    +0.161 C 
BRANCH  20  21
ATOM     21  O   UNL     1      -1.707   0.838   1.352  0.00  0.00    -0.395 OA
ATOM     22  H   UNL     1      -1.411   0.456   2.190  0.00  0.00    +0.209 HD
ENDBRANCH  20  21
ENDBRANCH   2  20
TORSDOF 5
