REMARK  Name = ZINC20189325
REMARK  5 active torsions:
REMARK  status: ('A' for Active; 'I' for Inactive)
REMARK    1  A    between atoms: C_1  and  C_2
REMARK    2  A    between atoms: N_11  and  S_12
REMARK    3  A    between atoms: S_12  and  C_15
REMARK    4  A    between atoms: C_19  and  C_21
REMARK    5  A    between atoms: C_21  and  N_22
REMARK                            x       y       z     vdW  Elec       q    Type
REMARK                         _______ _______ _______ _____ _____    ______ ____
ROOT
ATOM      1  S   UNL     1      -1.724   3.485   0.045  0.00  0.00    +0.075 S 
ATOM      2  O   UNL     1      -3.022   3.573   0.615  0.00  0.00    -0.150 OA
ATOM      3  O   UNL     1      -0.607   4.179   0.583  0.00  0.00    -0.150 OA
ENDROOT
BRANCH   1  13
ATOM      4  C   UNL     1      -3.168   0.832  -1.216  0.00  0.00    +0.030 C 
ATOM      5  C   UNL     1      -2.281   0.772   0.029  0.00  0.00    +0.099 C 
ATOM      6  C   UNL     1      -1.425  -0.504   0.014  0.00  0.00    +0.061 C 
ATOM      7  C   UNL     1       0.002  -0.004   0.002  0.00  0.00    -0.023 A 
ATOM      8  C   UNL     1       1.202  -0.689  -0.013  0.00  0.00    +0.005 A 
ATOM      9  C   UNL     1       2.397   0.006  -0.021  0.00  0.00    +0.000 A 
ATOM     10  C   UNL     1       2.390   1.389  -0.013  0.00  0.00    +0.002 A 
ATOM     11  C   UNL     1       1.195   2.076   0.002  0.00  0.00    +0.025 A 
ATOM     12  C   UNL     1      -0.017   1.382   0.010  0.00  0.00    +0.055 A 
ATOM     13  N   UNL     1      -1.321   1.879   0.030  0.00  0.00    -0.200 N 
ENDBRANCH   1  13
BRANCH   1  14
ATOM     14  C   UNL     1      -1.875   3.999  -1.634  0.00  0.00    +0.109 A 
ATOM     15  C   UNL     1      -0.773   4.498  -2.305  0.00  0.00    +0.031 A 
ATOM     16  C   UNL     1      -0.889   4.896  -3.623  0.00  0.00    +0.040 A 
ATOM     17  C   UNL     1      -2.112   4.807  -4.268  0.00  0.00    +0.125 A 
ATOM     18  C   UNL     1      -3.215   4.312  -3.593  0.00  0.00    -0.028 A 
ATOM     19  C   UNL     1      -3.095   3.909  -2.277  0.00  0.00    +0.033 A 
ATOM     20  F   UNL     1      -2.227   5.201  -5.555  0.00  0.00    -0.205 F 
BRANCH  18  21
ATOM     21  C   UNL     1      -4.545   4.214  -4.294  0.00  0.00    -0.048 C 
BRANCH  21  22
ATOM     22  N   UNL     1      -5.137   5.553  -4.413  0.00  0.00    +0.381 N 
ATOM     23  H   UNL     1      -6.108   5.481  -4.924  0.00  0.00    -0.090 HD
ATOM     24  H   UNL     1      -4.463   6.201  -4.994  0.00  0.00    -0.090 HD
ATOM     25  H   UNL     1      -5.281   5.981  -3.410  0.00  0.00    -0.090 HD
ENDBRANCH  21  22
ENDBRANCH  18  21
ENDBRANCH   1  14
TORSDOF 4
