REMARK  Name = ZINC52789716
REMARK  9 active torsions:
REMARK  status: ('A' for Active; 'I' for Inactive)
REMARK    1  A    between atoms: C_1  and  C_2
REMARK    2  A    between atoms: C_4  and  C_9
REMARK    3  A    between atoms: C_5  and  C_8
REMARK    4  A    between atoms: N_6  and  C_7
REMARK    5  A    between atoms: C_9  and  N_10
REMARK    6  A    between atoms: N_10  and  C_11
REMARK    7  A    between atoms: C_12  and  C_18
REMARK    8  A    between atoms: N_14  and  C_17
REMARK    9  A    between atoms: C_15  and  C_16
REMARK                            x       y       z     vdW  Elec       q    Type
REMARK                         _______ _______ _______ _____ _____    ______ ____
ROOT
ATOM      1  N   UNL     1      -1.372  -4.241  -1.248  0.00  0.00    -0.337 N 
ATOM      2  H   UNL     1      -2.113  -3.929  -0.705  0.00  0.00    +0.147 HD
ENDROOT
BRANCH   1   3
ATOM      3  C   UNL     1      -1.602  -5.153  -2.296  0.00  0.00    +0.071 A 
ATOM      4  C   UNL     1      -0.626  -5.899  -2.970  0.00  0.00    +0.081 A 
ATOM      5  N   UNL     1      -1.220  -6.632  -3.877  0.00  0.00    -0.175 NA
ATOM      6  N   UNL     1      -2.596  -6.380  -3.815  0.00  0.00    -0.270 N 
ATOM      7  C   UNL     1      -2.810  -5.469  -2.829  0.00  0.00    +0.057 A 
ATOM      8  C   UNL     1      -4.144  -4.909  -2.407  0.00  0.00    +0.067 C 
ATOM      9  C   UNL     1      -3.624  -6.995  -4.659  0.00  0.00    +0.172 C 
ATOM     10  C   UNL     1       0.856  -5.863  -2.698  0.00  0.00    +0.069 C 
ENDBRANCH   1   3
BRANCH   1  11
ATOM     11  C   UNL     1      -0.013  -3.766  -0.976  0.00  0.00    +0.138 C 
BRANCH  11  15
ATOM     12  C   UNL     1      -0.050   0.676   1.521  0.00  0.00    +0.063 C 
ATOM     13  C   UNL     1      -0.067  -0.798   1.206  0.00  0.00    +0.016 A 
ATOM     14  C   UNL     1      -0.010  -1.343  -0.026  0.00  0.00    +0.028 A 
ATOM     15  C   UNL     1      -0.051  -2.743   0.131  0.00  0.00    -0.010 A 
ATOM     16  C   UNL     1      -0.131  -2.999   1.452  0.00  0.00    +0.020 A 
ATOM     17  N   UNL     1      -0.135  -1.810   2.118  0.00  0.00    -0.351 N 
ATOM     18  C   UNL     1      -0.205  -1.645   3.572  0.00  0.00    +0.148 C 
ATOM     19  C   UNL     1      -0.198  -4.366   2.085  0.00  0.00    +0.064 C 
ENDBRANCH  11  15
ENDBRANCH   1  11
TORSDOF 3
