REMARK  Name = ZINC22901802
REMARK  6 active torsions:
REMARK  status: ('A' for Active; 'I' for Inactive)
REMARK    1  A    between atoms: C_3  and  C_6
REMARK    2  A    between atoms: N_8  and  C_9
REMARK    3  A    between atoms: C_9  and  C_10
REMARK    4  A    between atoms: C_10  and  N_11
REMARK    5  A    between atoms: C_12  and  C_14
REMARK    6  A    between atoms: C_14  and  C_15
REMARK                            x       y       z     vdW  Elec       q    Type
REMARK                         _______ _______ _______ _____ _____    ______ ____
ROOT
ATOM      1  N   UNL     1       1.143   1.898   0.001  0.00  0.00    -0.314 N 
ATOM      2  C   UNL     1      -0.014   1.209   0.009  0.00  0.00    +0.215 C 
ATOM      3  O   UNL     1       0.002  -0.004   0.002  0.00  0.00    -0.276 OA
ATOM      4  H   UNL     1       1.129   2.998   0.007  0.00  0.00    +0.149 HD
ENDROOT
BRANCH   1   5
ATOM      5  C   UNL     1       2.422   1.183  -0.015  0.00  0.00    +0.123 C 
BRANCH   5   6
ATOM      6  C   UNL     1       3.571   2.193  -0.020  0.00  0.00    +0.123 C 
BRANCH   6   9
ATOM      7  C   UNL     1       6.008   2.168  -0.044  0.00  0.00    +0.279 C 
ATOM      8  O   UNL     1       5.991   3.385  -0.037  0.00  0.00    -0.267 OA
ATOM      9  N   UNL     1       4.850   1.478  -0.036  0.00  0.00    -0.307 N 
ATOM     10  H   UNL     1       4.865   0.378  -0.042  0.00  0.00    +0.149 HD
BRANCH   7  13
ATOM     11  C   UNL     1       9.457   0.973  -0.082  0.00  0.00    +0.042 A 
ATOM     12  C   UNL     1       8.527   2.024  -0.069  0.00  0.00    +0.054 A 
ATOM     13  C   UNL     1       7.287   1.452  -0.060  0.00  0.00    +0.189 A 
ATOM     14  O   UNL     1       7.447   0.112  -0.062  0.00  0.00    -0.458 OA
ATOM     15  C   UNL     1       8.753  -0.180  -0.081  0.00  0.00    +0.196 A 
ENDBRANCH   7  13
ENDBRANCH   6   9
ENDBRANCH   5   6
ENDBRANCH   1   5
BRANCH   2  16
ATOM     16  C   UNL     1      -1.330   1.944   0.019  0.00  0.00    +0.119 C 
BRANCH  16  17
ATOM     17  C   UNL     1      -2.479   0.934   0.019  0.00  0.00    +0.146 C 
ATOM     18  C   UNL     1      -3.793   1.662  -0.095  0.00  0.00    +0.231 C 
ATOM     19  O   UNL     1      -4.316   1.743  -1.186  0.00  0.00    -0.274 OA
ATOM     20  N   UNL     1      -4.408   2.219   0.944  0.00  0.00    -0.284 N 
ATOM     21  C   UNL     1      -4.026   2.138   2.279  0.00  0.00    +0.048 A 
ATOM     22  C   UNL     1      -4.570   3.027   3.199  0.00  0.00    +0.044 A 
ATOM     23  C   UNL     1      -4.201   2.968   4.529  0.00  0.00    +0.043 A 
ATOM     24  C   UNL     1      -3.292   2.018   4.963  0.00  0.00    +0.021 A 
ATOM     25  C   UNL     1      -2.756   1.117   4.061  0.00  0.00    +0.018 A 
ATOM     26  C   UNL     1      -3.127   1.169   2.728  0.00  0.00    +0.030 A 
ATOM     27  S   UNL     1      -2.473  -0.001   1.579  0.00  0.00    -0.110 S 
ATOM     28 CL   UNL     1      -4.881   4.093   5.664  0.00  0.00    -0.083 Cl
ATOM     29  H   UNL     1      -5.318   2.817   0.788  0.00  0.00    +0.155 HD
ENDBRANCH  16  17
ENDBRANCH   2  16
TORSDOF 6
