REMARK  Name = ZINC36828006
REMARK  10 active torsions:
REMARK  status: ('A' for Active; 'I' for Inactive)
REMARK    1  A    between atoms: C_1  and  C_2
REMARK    2  A    between atoms: C_2  and  C_3
REMARK    3  A    between atoms: C_3  and  C_4
REMARK    4  A    between atoms: C_4  and  C_27
REMARK    5  A    between atoms: N_7  and  C_11
REMARK    6  A    between atoms: C_11  and  C_12
REMARK    7  A    between atoms: N_17  and  C_18
REMARK    8  A    between atoms: C_24  and  C_26
REMARK    9  A    between atoms: C_27  and  C_28
REMARK   10  A    between atoms: C_28  and  C_29
REMARK                            x       y       z     vdW  Elec       q    Type
REMARK                         _______ _______ _______ _____ _____    ______ ____
ROOT
ATOM      1  C   UNL     1      -1.981  -4.011   0.305  0.00  0.00    +0.214 C 
ENDROOT
BRANCH   1   5
ATOM      2  C   UNL     1       0.739  -2.027  -1.265  0.00  0.00    +0.113 C 
ATOM      3  C   UNL     1      -0.672  -2.580  -1.252  0.00  0.00    +0.247 C 
ATOM      4  O   UNL     1      -1.532  -2.413  -2.090  0.00  0.00    -0.273 OA
ATOM      5  N   UNL     1      -0.772  -3.296  -0.114  0.00  0.00    -0.215 N 
ATOM      6  C   UNL     1       0.368  -3.273   0.585  0.00  0.00    +0.310 C 
ATOM      7  O   UNL     1       0.521  -3.845   1.646  0.00  0.00    -0.252 OA
ATOM      8  N   UNL     1       1.325  -2.545  -0.017  0.00  0.00    -0.285 N 
ATOM      9  H   UNL     1       2.226  -2.390   0.308  0.00  0.00    +0.151 HD
BRANCH   2  10
ATOM     10  C   UNL     1       0.718  -0.497  -1.257  0.00  0.00    +0.035 C 
BRANCH  10  12
ATOM     11  C   UNL     1      -0.019   1.526   0.010  0.00  0.00    +0.004 C 
ATOM     12  C   UNL     1       0.002  -0.004   0.002  0.00  0.00    -0.001 C 
ENDBRANCH  10  12
ENDBRANCH   2  10
BRANCH   2  13
ATOM     13  C   UNL     1       1.512  -2.547  -2.479  0.00  0.00    +0.035 C 
BRANCH  13  14
ATOM     14  C   UNL     1       1.518  -4.077  -2.463  0.00  0.00    -0.001 C 
ATOM     15  C   UNL     1       2.291  -4.596  -3.677  0.00  0.00    +0.004 C 
ENDBRANCH  13  14
ENDBRANCH   2  13
ENDBRANCH   1   5
BRANCH   1  16
ATOM     16  C   UNL     1      -1.949  -5.415  -0.242  0.00  0.00    +0.238 C 
ATOM     17  O   UNL     1      -1.010  -5.782  -0.915  0.00  0.00    -0.274 OA
ATOM     18  N   UNL     1      -2.964  -6.262   0.018  0.00  0.00    -0.239 N 
ATOM     19  C   UNL     1      -2.936  -7.518  -0.471  0.00  0.00    +0.306 C 
ATOM     20  O   UNL     1      -1.994  -7.886  -1.146  0.00  0.00    -0.252 OA
ATOM     21  N   UNL     1      -3.951  -8.365  -0.212  0.00  0.00    -0.296 N 
ATOM     22  H   UNL     1      -3.716  -5.968   0.556  0.00  0.00    +0.159 HD
ATOM     23  H   UNL     1      -4.703  -8.071   0.327  0.00  0.00    +0.151 HD
BRANCH  21  24
ATOM     24  C   UNL     1      -3.921  -9.730  -0.743  0.00  0.00    +0.077 C 
ATOM     25  C   UNL     1      -4.475  -9.735  -2.169  0.00  0.00    +0.022 C 
ATOM     26  C   UNL     1      -5.917  -9.224  -2.158  0.00  0.00    +0.002 C 
ATOM     27  C   UNL     1      -6.773 -10.135  -1.275  0.00  0.00    +0.000 C 
ATOM     28  C   UNL     1      -6.219 -10.130   0.151  0.00  0.00    +0.005 C 
ATOM     29  C   UNL     1      -4.776 -10.640   0.140  0.00  0.00    +0.006 C 
ATOM     30  C   UNL     1      -4.222 -10.635   1.566  0.00  0.00    +0.009 C 
ENDBRANCH  21  24
ENDBRANCH   1  16
TORSDOF 7
