REMARK  Name = ZINC63383790
REMARK  10 active torsions:
REMARK  status: ('A' for Active; 'I' for Inactive)
REMARK    1  A    between atoms: C_1  and  C_2
REMARK    2  A    between atoms: C_2  and  C_3
REMARK    3  A    between atoms: C_3  and  C_4
REMARK    4  A    between atoms: C_4  and  C_5
REMARK    5  A    between atoms: C_5  and  C_6
REMARK    6  A    between atoms: C_6  and  N_7
REMARK    7  A    between atoms: C_8  and  C_10
REMARK    8  A    between atoms: C_10  and  C_12
REMARK    9  A    between atoms: C_10  and  N_13
REMARK   10  A    between atoms: C_14  and  C_16
REMARK                            x       y       z     vdW  Elec       q    Type
REMARK                         _______ _______ _______ _____ _____    ______ ____
ROOT
ATOM      1  C   UNL     1      -6.857 -10.137  -0.480  0.00  0.00    +0.167 C 
ATOM      2  C   UNL     1      -5.679 -10.637  -1.339  0.00  0.00    +0.065 C 
ATOM      3  C   UNL     1      -6.271 -11.404  -2.495  0.00  0.00    -0.034 C 
ATOM      4  C   UNL     1      -5.999 -12.624  -2.951  0.00  0.00    -0.001 A 
ATOM      5  C   UNL     1      -4.977 -13.608  -2.560  0.00  0.00    +0.010 A 
ATOM      6  C   UNL     1      -4.990 -14.787  -3.236  0.00  0.00    +0.001 A 
ATOM      7  C   UNL     1      -5.907 -15.081  -4.251  0.00  0.00    +0.002 A 
ATOM      8  C   UNL     1      -6.875 -14.232  -4.680  0.00  0.00    +0.026 A 
ATOM      9  C   UNL     1      -6.957 -12.958  -4.048  0.00  0.00    +0.043 A 
ATOM     10  N   UNL     1      -7.761 -11.960  -4.268  0.00  0.00    -0.375 N 
ATOM     11  C   UNL     1      -7.380 -10.858  -3.383  0.00  0.00    +0.131 C 
ATOM     12  C   UNL     1      -8.527 -10.433  -2.468  0.00  0.00    +0.134 C 
ATOM     13  N   UNL     1      -8.101 -10.647  -1.069  0.00  0.00    -0.276 N 
ATOM     14  C   UNL     1      -9.033 -11.393  -0.446  0.00  0.00    +0.248 C 
ATOM     15  O   UNL     1      -9.045 -11.643   0.743  0.00  0.00    -0.270 OA
ATOM     16  C   UNL     1     -10.031 -11.859  -1.412  0.00  0.00    +0.042 A 
ATOM     17  C   UNL     1      -9.744 -11.271  -2.685  0.00  0.00    -0.013 A 
ATOM     18  C   UNL     1     -10.506 -11.513  -3.806  0.00  0.00    +0.006 A 
ATOM     19  C   UNL     1     -11.603 -12.357  -3.654  0.00  0.00    +0.000 A 
ATOM     20  C   UNL     1     -11.919 -12.928  -2.437  0.00  0.00    +0.001 A 
ATOM     21  C   UNL     1     -11.128 -12.709  -1.252  0.00  0.00    +0.013 A 
ATOM     22  H   UNL     1      -8.489 -11.949  -4.908  0.00  0.00    +0.160 HD
ENDROOT
BRANCH   1  24
ATOM     23  N   UNL     1      -5.824  -7.945   0.015  0.00  0.00    -0.303 N 
ATOM     24  C   UNL     1      -6.877  -8.630  -0.472  0.00  0.00    +0.234 C 
ATOM     25  O   UNL     1      -7.841  -8.034  -0.903  0.00  0.00    -0.274 OA
ATOM     26  H   UNL     1      -5.053  -8.421   0.360  0.00  0.00    +0.149 HD
BRANCH  23  27
ATOM     27  C   UNL     1      -5.844  -6.480   0.023  0.00  0.00    +0.156 C 
ATOM     28  C   UNL     1      -6.560  -5.987   1.282  0.00  0.00    +0.038 C 
BRANCH  27  30
ATOM     29  N   UNL     1      -4.202  -4.630   0.017  0.00  0.00    -0.314 N 
ATOM     30  C   UNL     1      -4.430  -5.958   0.012  0.00  0.00    +0.233 C 
ATOM     31  O   UNL     1      -3.498  -6.734  -0.001  0.00  0.00    -0.274 OA
ATOM     32  H   UNL     1      -4.947  -4.010   0.028  0.00  0.00    +0.149 HD
BRANCH  29  33
ATOM     33  C   UNL     1      -2.827  -4.123   0.007  0.00  0.00    +0.104 C 
BRANCH  33  34
ATOM     34  C   UNL     1      -2.848  -2.593   0.015  0.00  0.00    +0.019 C 
BRANCH  34  35
ATOM     35  C   UNL     1      -1.413  -2.063   0.004  0.00  0.00    +0.002 C 
BRANCH  35  36
ATOM     36  C   UNL     1      -1.433  -0.534   0.013  0.00  0.00    -0.000 C 
BRANCH  36  38
ATOM     37  C   UNL     1      -0.019   1.526   0.010  0.00  0.00    +0.004 C 
ATOM     38  C   UNL     1       0.002  -0.004   0.002  0.00  0.00    -0.003 C 
ENDBRANCH  36  38
ENDBRANCH  35  36
ENDBRANCH  34  35
ENDBRANCH  33  34
ENDBRANCH  29  33
ENDBRANCH  27  30
ENDBRANCH  23  27
ENDBRANCH   1  24
TORSDOF 8
