REMARK  Name = ZINC20816336
REMARK  11 active torsions:
REMARK  status: ('A' for Active; 'I' for Inactive)
REMARK    1  A    between atoms: C_1  and  C_2
REMARK    2  A    between atoms: C_2  and  C_3
REMARK    3  A    between atoms: C_3  and  C_4
REMARK    4  A    between atoms: C_4  and  C_5
REMARK    5  A    between atoms: C_5  and  N_6
REMARK    6  A    between atoms: N_9  and  C_12
REMARK    7  A    between atoms: C_12  and  C_13
REMARK    8  A    between atoms: C_13  and  N_14
REMARK    9  A    between atoms: C_15  and  C_31
REMARK   10  A    between atoms: C_16  and  C_30
REMARK   11  A    between atoms: N_28  and  C_29
REMARK                            x       y       z     vdW  Elec       q    Type
REMARK                         _______ _______ _______ _____ _____    ______ ____
ROOT
ATOM      1  N   UNL     1       1.321  -0.417  -0.013  0.00  0.00    -0.312 N 
ATOM      2  C   UNL     1       0.002  -0.004   0.002  0.00  0.00    +0.038 A 
ATOM      3  C   UNL     1      -0.016   1.326   0.009  0.00  0.00    +0.043 A 
ATOM      4  N   UNL     1       1.292   1.779  -0.001  0.00  0.00    -0.275 N 
ATOM      5  C   UNL     1       2.111   0.702  -0.014  0.00  0.00    +0.218 A 
ATOM      6  N   UNL     1       3.372   1.111  -0.024  0.00  0.00    -0.193 NA
ATOM      7  C   UNL     1       3.416   2.441  -0.018  0.00  0.00    +0.170 A 
ATOM      8  C   UNL     1       2.102   2.904  -0.003  0.00  0.00    +0.157 A 
ATOM      9  C   UNL     1       1.863   4.288   0.006  0.00  0.00    +0.280 A 
ATOM     10  O   UNL     1       0.722   4.716   0.019  0.00  0.00    -0.265 OA
ATOM     11  N   UNL     1       2.910   5.139   0.000  0.00  0.00    -0.273 N 
ATOM     12  H   UNL     1       2.736   6.225   0.007  0.00  0.00    +0.173 HD
ATOM     13  C   UNL     1       4.174   4.684  -0.014  0.00  0.00    +0.331 A 
ATOM     14  O   UNL     1       5.092   5.481  -0.019  0.00  0.00    -0.246 OA
ATOM     15  N   UNL     1       4.450   3.365  -0.024  0.00  0.00    -0.280 N 
ATOM     16  C   UNL     1       5.842   2.908  -0.040  0.00  0.00    +0.155 C 
ATOM     17  C   UNL     1      -1.250   2.191   0.020  0.00  0.00    +0.066 C 
ATOM     18  C   UNL     1      -1.206  -0.904   0.009  0.00  0.00    +0.065 C 
ENDROOT
BRANCH   1  19
ATOM     19  C   UNL     1       1.790  -1.805  -0.025  0.00  0.00    +0.140 C 
BRANCH  19  20
ATOM     20  C   UNL     1       1.940  -2.280  -1.471  0.00  0.00    +0.106 C 
BRANCH  20  24
ATOM     21  N   UNL     1       4.125  -5.810  -2.252  0.00  0.00    +0.381 N 
ATOM     22  C   UNL     1       2.762  -5.710  -2.793  0.00  0.00    -0.063 C 
ATOM     23  C   UNL     1       2.340  -4.240  -2.837  0.00  0.00    +0.066 C 
ATOM     24  N   UNL     1       2.410  -3.672  -1.483  0.00  0.00    -0.304 NA
ATOM     25  C   UNL     1       3.773  -3.772  -0.943  0.00  0.00    +0.066 C 
ATOM     26  C   UNL     1       4.195  -5.242  -0.899  0.00  0.00    -0.063 C 
ATOM     27  H   UNL     1       4.792  -5.224  -2.902  0.00  0.00    -0.082 HD
BRANCH  21  28
ATOM     28  C   UNL     1       4.596  -7.202  -2.264  0.00  0.00    -0.079 C 
BRANCH  28  29
ATOM     29  C   UNL     1       6.089  -7.238  -1.935  0.00  0.00    -0.019 C 
BRANCH  29  30
ATOM     30  C   UNL     1       6.579  -8.687  -1.947  0.00  0.00    -0.002 C 
BRANCH  30  32
ATOM     31  C   UNL     1       8.563 -10.173  -1.630  0.00  0.00    +0.004 C 
ATOM     32  C   UNL     1       8.073  -8.723  -1.618  0.00  0.00    -0.003 C 
ENDBRANCH  30  32
ENDBRANCH  29  30
ENDBRANCH  28  29
ENDBRANCH  21  28
ENDBRANCH  20  24
ENDBRANCH  19  20
ENDBRANCH   1  19
TORSDOF 7
