REMARK  Name = ZINC66929893
REMARK  6 active torsions:
REMARK  status: ('A' for Active; 'I' for Inactive)
REMARK    1  A    between atoms: C_1  and  C_2
REMARK    2  A    between atoms: N_10  and  C_14
REMARK    3  A    between atoms: C_14  and  C_15
REMARK    4  A    between atoms: N_17  and  C_18
REMARK    5  A    between atoms: C_18  and  C_19
REMARK    6  A    between atoms: C_19  and  O_29
REMARK                            x       y       z     vdW  Elec       q    Type
REMARK                         _______ _______ _______ _____ _____    ______ ____
ROOT
ATOM      1  C   UNL     1      -3.942  -3.139   4.131  0.00  0.00    +0.231 C 
ATOM      2  O   UNL     1      -4.369  -3.004   3.004  0.00  0.00    -0.274 OA
ATOM      3  N   UNL     1      -4.779  -3.475   5.132  0.00  0.00    -0.311 N 
ATOM      4  H   UNL     1      -4.437  -3.583   6.034  0.00  0.00    +0.149 HD
ENDROOT
BRANCH   1   5
ATOM      5  C   UNL     1      -2.476  -2.929   4.412  0.00  0.00    +0.213 C 
BRANCH   5  15
ATOM      6  C   UNL     1      -0.777   2.840   0.747  0.00  0.00    +0.007 C 
ATOM      7  C   UNL     1      -0.557   1.338   0.551  0.00  0.00    -0.014 C 
ATOM      8  C   UNL     1      -1.912   0.630   0.482  0.00  0.00    +0.006 C 
ATOM      9  C   UNL     1      -1.691  -0.871   0.274  0.00  0.00    +0.035 C 
ATOM     10  C   UNL     1      -0.865  -1.431   1.426  0.00  0.00    +0.113 C 
ATOM     11  C   UNL     1       0.479  -0.717   1.524  0.00  0.00    +0.035 C 
ATOM     12  C   UNL     1       0.250   0.783   1.727  0.00  0.00    +0.006 C 
ATOM     13  C   UNL     1      -1.623  -1.309   2.728  0.00  0.00    +0.247 C 
ATOM     14  O   UNL     1      -2.003  -0.290   3.263  0.00  0.00    -0.273 OA
ATOM     15  N   UNL     1      -1.787  -2.574   3.169  0.00  0.00    -0.215 N 
ATOM     16  C   UNL     1      -1.241  -3.463   2.330  0.00  0.00    +0.310 C 
ATOM     17  O   UNL     1      -1.260  -4.664   2.513  0.00  0.00    -0.252 OA
ATOM     18  N   UNL     1      -0.667  -2.877   1.262  0.00  0.00    -0.285 N 
ATOM     19  H   UNL     1      -0.214  -3.321   0.529  0.00  0.00    +0.151 HD
ENDBRANCH   5  15
ENDBRANCH   1   5
BRANCH   3  20
ATOM     20  C   UNL     1      -6.204  -3.679   4.859  0.00  0.00    +0.143 C 
BRANCH  20  21
ATOM     21  C   UNL     1      -6.946  -3.917   6.176  0.00  0.00    +0.107 C 
ATOM     22  C   UNL     1      -6.713  -2.729   7.107  0.00  0.00    +0.041 C 
ATOM     23  C   UNL     1      -7.633  -2.881   8.324  0.00  0.00    +0.008 C 
ATOM     24  C   UNL     1      -9.074  -2.654   7.870  0.00  0.00    +0.035 C 
ATOM     25  C   UNL     1      -9.393  -3.511   6.673  0.00  0.00    -0.041 A 
ATOM     26  C   UNL     1      -8.416  -4.088   5.893  0.00  0.00    -0.011 A 
ATOM     27  C   UNL     1      -8.778  -4.862   4.798  0.00  0.00    +0.007 A 
ATOM     28  C   UNL     1     -10.108  -5.061   4.489  0.00  0.00    +0.000 A 
ATOM     29  C   UNL     1     -11.088  -4.486   5.275  0.00  0.00    +0.000 A 
ATOM     30  C   UNL     1     -10.731  -3.714   6.362  0.00  0.00    +0.004 A 
BRANCH  21  31
ATOM     31  O   UNL     1      -6.444  -5.104   6.792  0.00  0.00    -0.382 OA
ATOM     32  H   UNL     1      -6.549  -5.901   6.255  0.00  0.00    +0.211 HD
ENDBRANCH  21  31
ENDBRANCH  20  21
ENDBRANCH   3  20
TORSDOF 5
