REMARK  Name = ZINC14233516
REMARK  8 active torsions:
REMARK  status: ('A' for Active; 'I' for Inactive)
REMARK    1  A    between atoms: C_1  and  C_2
REMARK    2  A    between atoms: C_7  and  N_8
REMARK    3  A    between atoms: C_9  and  C_11
REMARK    4  A    between atoms: C_11  and  C_16
REMARK    5  A    between atoms: C_16  and  C_17
REMARK    6  A    between atoms: N_19  and  C_20
REMARK    7  A    between atoms: C_20  and  C_21
REMARK    8  A    between atoms: C_20  and  C_22
REMARK                            x       y       z     vdW  Elec       q    Type
REMARK                         _______ _______ _______ _____ _____    ______ ____
ROOT
ATOM      1  C   UNL     1       3.615   5.949  -0.214  0.00  0.00    +0.055 C 
ATOM      2  C   UNL     1       4.592   5.838   0.983  0.00  0.00    +0.016 C 
ATOM      3  C   UNL     1       3.912   6.730   2.057  0.00  0.00    +0.001 C 
ATOM      4  C   UNL     1       3.333   7.914   1.256  0.00  0.00    +0.001 C 
ATOM      5  C   UNL     1       3.145   7.418  -0.188  0.00  0.00    +0.016 C 
ENDROOT
BRANCH   1   7
ATOM      6  N   UNL     1       2.649   3.687   0.048  0.00  0.00    -0.285 N 
ATOM      7  C   UNL     1       2.446   5.017  -0.029  0.00  0.00    +0.224 C 
ATOM      8  O   UNL     1       1.321   5.464   0.052  0.00  0.00    -0.275 OA
ATOM      9  H   UNL     1       3.553   3.336   0.087  0.00  0.00    +0.155 HD
BRANCH   6  16
ATOM     10  C   UNL     1       3.003   1.070  -1.011  0.00  0.00    +0.045 C 
ATOM     11  C   UNL     1       1.686   1.526  -0.436  0.00  0.00    -0.029 A 
ATOM     12  C   UNL     1       0.607   0.664  -0.414  0.00  0.00    +0.006 A 
ATOM     13  C   UNL     1      -0.603   1.083   0.107  0.00  0.00    +0.020 A 
ATOM     14  C   UNL     1      -0.734   2.363   0.618  0.00  0.00    +0.043 A 
ATOM     15  C   UNL     1       0.343   3.229   0.598  0.00  0.00    +0.043 A 
ATOM     16  C   UNL     1       1.557   2.812   0.070  0.00  0.00    +0.038 A 
ATOM     17 CL   UNL     1      -2.254   2.883   1.277  0.00  0.00    -0.083 Cl
ENDBRANCH   6  16
ENDBRANCH   1   7
BRANCH   1  18
ATOM     18  C   UNL     1       4.340   5.642  -1.526  0.00  0.00    +0.112 C 
BRANCH  18  19
ATOM     19  C   UNL     1       3.405   5.879  -2.684  0.00  0.00    +0.214 C 
ATOM     20  O   UNL     1       2.315   6.376  -2.492  0.00  0.00    -0.276 OA
ATOM     21  N   UNL     1       3.779   5.539  -3.933  0.00  0.00    -0.313 N 
ATOM     22  H   UNL     1       4.651   5.141  -4.087  0.00  0.00    +0.149 HD
BRANCH  21  23
ATOM     23  C   UNL     1       2.870   5.769  -5.059  0.00  0.00    +0.067 C 
ATOM     24  C   UNL     1       3.031   7.206  -5.559  0.00  0.00    +0.027 C 
ATOM     25  C   UNL     1       3.202   4.794  -6.190  0.00  0.00    +0.027 C 
ENDBRANCH  21  23
ENDBRANCH  18  19
ENDBRANCH   1  18
TORSDOF 5
