REMARK  Name = ZINC39685782
REMARK  14 active torsions:
REMARK  status: ('A' for Active; 'I' for Inactive)
REMARK    1  A    between atoms: C_1  and  C_2
REMARK    2  A    between atoms: C_2  and  C_4
REMARK    3  A    between atoms: C_2  and  O_32
REMARK    4  A    between atoms: C_8  and  C_17
REMARK    5  A    between atoms: N_19  and  C_20
REMARK    6  A    between atoms: C_20  and  C_22
REMARK    7  A    between atoms: C_20  and  C_25
REMARK    8  A    between atoms: C_22  and  C_23
REMARK    9  A    between atoms: C_22  and  C_24
REMARK   10  A    between atoms: N_27  and  C_28
REMARK   11  A    between atoms: C_28  and  C_29
REMARK   12  A    between atoms: C_28  and  C_30
REMARK   13  A    between atoms: C_28  and  C_31
REMARK   14  A    between atoms: O_32  and  C_33
REMARK                            x       y       z     vdW  Elec       q    Type
REMARK                         _______ _______ _______ _____ _____    ______ ____
ROOT
ATOM      1  C   UNL     1      -0.451  -0.451   1.812  0.00  0.00    +0.256 C 
ATOM      2  O   UNL     1       0.692  -0.556   2.205  0.00  0.00    -0.272 OA
ATOM      3  N   UNL     1      -1.418  -0.040   2.656  0.00  0.00    -0.297 N 
ATOM      4  C   UNL     1      -2.860   0.142   2.365  0.00  0.00    +0.121 C 
ATOM      5  C   UNL     1      -3.581  -0.373   3.631  0.00  0.00    +0.100 C 
ATOM      6  C   UNL     1      -2.540  -0.245   4.756  0.00  0.00    -0.004 C 
ATOM      7  C   UNL     1      -1.281   0.325   4.087  0.00  0.00    +0.115 C 
ATOM      8  C   UNL     1      -2.238  -1.615   5.355  0.00  0.00    -0.010 C 
ATOM      9  C   UNL     1      -1.244  -1.454   6.508  0.00  0.00    -0.082 C 
ATOM     10  N   UNL     1      -1.815  -0.567   7.529  0.00  0.00    +0.379 N 
ATOM     11  C   UNL     1      -2.017   0.775   6.970  0.00  0.00    -0.082 C 
ATOM     12  C   UNL     1      -3.043   0.709   5.835  0.00  0.00    -0.010 C 
ATOM     13  H   UNL     1      -2.701  -0.938   7.837  0.00  0.00    -0.086 HD
ATOM     14  H   UNL     1      -1.185  -0.511   8.315  0.00  0.00    -0.086 HD
ENDROOT
BRANCH   5  15
ATOM     15  C   UNL     1      -3.990  -1.813   3.453  0.00  0.00    +0.219 C 
ATOM     16  O   UNL     1      -3.346  -2.540   2.727  0.00  0.00    -0.275 OA
ATOM     17  N   UNL     1      -5.071  -2.292   4.100  0.00  0.00    -0.303 N 
ATOM     18  H   UNL     1      -5.596  -1.705   4.667  0.00  0.00    +0.149 HD
BRANCH  17  19
ATOM     19  C   UNL     1      -5.452  -3.698   3.948  0.00  0.00    +0.161 C 
BRANCH  19  20
ATOM     20  C   UNL     1      -6.943  -3.835   4.119  0.00  0.00    +0.234 C 
ATOM     21  O   UNL     1      -7.590  -2.912   4.565  0.00  0.00    -0.274 OA
ATOM     22  N   UNL     1      -7.557  -4.985   3.776  0.00  0.00    -0.309 N 
ATOM     23  H   UNL     1      -7.032  -5.749   3.492  0.00  0.00    +0.149 HD
BRANCH  22  24
ATOM     24  C   UNL     1      -9.018  -5.080   3.834  0.00  0.00    +0.026 C 
ATOM     25  C   UNL     1      -9.634  -4.039   2.898  0.00  0.00    +0.031 C 
ATOM     26  C   UNL     1      -9.455  -6.480   3.398  0.00  0.00    +0.031 C 
ATOM     27  C   UNL     1      -9.490  -4.822   5.266  0.00  0.00    +0.031 C 
ENDBRANCH  22  24
ENDBRANCH  19  20
BRANCH  19  28
ATOM     28  C   UNL     1      -4.737  -4.537   5.010  0.00  0.00    +0.012 C 
ATOM     29  C   UNL     1      -3.232  -4.528   4.738  0.00  0.00    +0.009 C 
ATOM     30  C   UNL     1      -5.010  -3.947   6.395  0.00  0.00    +0.009 C 
ENDBRANCH  19  28
ENDBRANCH  17  19
ENDBRANCH   5  15
BRANCH   1  32
ATOM     31  C   UNL     1      -1.256   0.489  -0.336  0.00  0.00    +0.062 C 
ATOM     32  C   UNL     1      -0.789  -0.779   0.381  0.00  0.00    +0.256 C 
BRANCH  32  33
ATOM     33  O   UNL     1       0.370  -1.298  -0.275  0.00  0.00    -0.480 OA
BRANCH  33  34
ATOM     34  C   UNL     1       0.162  -2.082  -1.366  0.00  0.00    +0.122 A 
ATOM     35  C   UNL     1       1.238  -2.671  -2.013  0.00  0.00    +0.045 A 
ATOM     36  C   UNL     1       1.024  -3.468  -3.121  0.00  0.00    +0.004 A 
ATOM     37  C   UNL     1      -0.261  -3.679  -3.585  0.00  0.00    +0.000 A 
ATOM     38  C   UNL     1      -1.335  -3.092  -2.942  0.00  0.00    +0.004 A 
ATOM     39  C   UNL     1      -1.127  -2.299  -1.830  0.00  0.00    +0.045 A 
ENDBRANCH  33  34
ENDBRANCH  32  33
ENDBRANCH   1  32
TORSDOF 8
