REMARK  Name = ZINC12330117
REMARK  8 active torsions:
REMARK  status: ('A' for Active; 'I' for Inactive)
REMARK    1  A    between atoms: C_1  and  C_2
REMARK    2  A    between atoms: C_9  and  O_30
REMARK    3  A    between atoms: C_18  and  C_19
REMARK    4  A    between atoms: C_18  and  N_57
REMARK    5  A    between atoms: C_19  and  C_21
REMARK    6  A    between atoms: C_19  and  O_29
REMARK    7  A    between atoms: C_25  and  O_27
REMARK    8  A    between atoms: O_27  and  C_28
REMARK                            x       y       z     vdW  Elec       q    Type
REMARK                         _______ _______ _______ _____ _____    ______ ____
ROOT
ATOM      1  C   UNL     1       0.936  -1.026   5.920  0.00  0.00    +0.045 C 
ATOM      2  C   UNL     1       0.160  -0.863   4.639  0.00  0.00    -0.029 A 
ATOM      3  C   UNL     1       0.817  -0.882   3.426  0.00  0.00    +0.050 A 
ATOM      4  C   UNL     1       0.105  -0.731   2.240  0.00  0.00    +0.127 A 
ATOM      5  C   UNL     1      -1.268  -0.558   2.282  0.00  0.00    +0.024 A 
ATOM      6  C   UNL     1      -1.923  -0.541   3.502  0.00  0.00    +0.030 A 
ATOM      7  C   UNL     1      -1.213  -0.693   4.678  0.00  0.00    +0.044 A 
ATOM      8 CL   UNL     1      -2.042  -0.671   6.202  0.00  0.00    -0.083 Cl
ATOM      9  C   UNL     1      -2.076  -0.382   1.022  0.00  0.00    +0.152 C 
ATOM     10  C   UNL     1      -1.266  -0.872  -0.182  0.00  0.00    +0.084 C 
ATOM     11  C   UNL     1       0.137  -0.260  -0.101  0.00  0.00    +0.110 C 
ATOM     12  O   UNL     1       0.788  -0.761   1.066  0.00  0.00    -0.485 OA
ATOM     13  C   UNL     1       0.027   1.263  -0.022  0.00  0.00    +0.029 C 
ATOM     14  C   UNL     1       1.431   1.873  -0.008  0.00  0.00    -0.075 C 
ATOM     15  C   UNL     1       2.313   0.016  -1.291  0.00  0.00    -0.075 C 
ATOM     16  C   UNL     1       0.936  -0.649  -1.346  0.00  0.00    +0.029 C 
ATOM     17  N   UNL     1       2.136   1.483  -1.247  0.00  0.00    +0.382 N 
ATOM     18  H   UNL     1       1.573   1.775  -2.056  0.00  0.00    -0.082 HD
ENDROOT
BRANCH   9  19
ATOM     19  O   UNL     1      -3.284  -1.138   1.121  0.00  0.00    -0.387 OA
ATOM     20  H   UNL     1      -3.850  -0.880   1.862  0.00  0.00    +0.210 HD
ENDBRANCH   9  19
BRANCH  17  21
ATOM     21  C   UNL     1       3.451   2.153  -1.311  0.00  0.00    -0.042 C 
BRANCH  21  22
ATOM     22  C   UNL     1       4.184   2.026   0.025  0.00  0.00    +0.128 C 
BRANCH  22  23
ATOM     23  C   UNL     1       5.448   2.846  -0.015  0.00  0.00    -0.017 A 
ATOM     24  C   UNL     1       6.575   2.348  -0.642  0.00  0.00    +0.006 A 
ATOM     25  C   UNL     1       7.736   3.099  -0.681  0.00  0.00    +0.004 A 
ATOM     26  C   UNL     1       7.771   4.349  -0.093  0.00  0.00    +0.045 A 
ATOM     27  C   UNL     1       6.642   4.850   0.537  0.00  0.00    +0.120 A 
ATOM     28  C   UNL     1       5.477   4.097   0.570  0.00  0.00    +0.051 A 
BRANCH  27  29
ATOM     29  O   UNL     1       6.674   6.080   1.115  0.00  0.00    -0.495 OA
ATOM     30  C   UNL     1       7.905   6.801   1.036  0.00  0.00    +0.277 C 
ENDBRANCH  27  29
ENDBRANCH  22  23
BRANCH  22  31
ATOM     31  O   UNL     1       4.514   0.655   0.259  0.00  0.00    -0.389 OA
ATOM     32  H   UNL     1       5.085   0.267  -0.418  0.00  0.00    +0.210 HD
ENDBRANCH  22  31
ENDBRANCH  21  22
ENDBRANCH  17  21
TORSDOF 6
