REMARK  Name = ZINC67460867
REMARK  7 active torsions:
REMARK  status: ('A' for Active; 'I' for Inactive)
REMARK    1  A    between atoms: C_1  and  C_2
REMARK    2  A    between atoms: C_2  and  C_4
REMARK    3  A    between atoms: C_2  and  N_14
REMARK    4  A    between atoms: N_17  and  C_18
REMARK    5  A    between atoms: C_18  and  C_19
REMARK    6  A    between atoms: N_24  and  C_25
REMARK    7  A    between atoms: C_25  and  C_26
REMARK                            x       y       z     vdW  Elec       q    Type
REMARK                         _______ _______ _______ _____ _____    ______ ____
ROOT
ATOM      1  N   UNL     1      -3.148  -2.849  -3.445  0.00  0.00    -0.293 N 
ATOM      2  C   UNL     1      -2.110  -1.996  -3.555  0.00  0.00    +0.300 C 
ATOM      3  O   UNL     1      -2.026  -1.040  -2.808  0.00  0.00    -0.253 OA
ATOM      4  N   UNL     1      -1.165  -2.203  -4.494  0.00  0.00    -0.301 N 
ATOM      5  H   UNL     1      -3.214  -3.611  -4.041  0.00  0.00    +0.151 HD
ATOM      6  H   UNL     1      -1.231  -2.965  -5.089  0.00  0.00    +0.150 HD
ENDROOT
BRANCH   1   8
ATOM      7  C   UNL     1      -3.721  -3.237  -1.099  0.00  0.00    +0.033 C 
ATOM      8  C   UNL     1      -4.175  -2.624  -2.425  0.00  0.00    +0.102 C 
BRANCH   8   9
ATOM      9  C   UNL     1      -5.465  -3.270  -2.861  0.00  0.00    -0.027 A 
ATOM     10  C   UNL     1      -5.447  -4.509  -3.475  0.00  0.00    +0.007 A 
ATOM     11  C   UNL     1      -6.625  -5.106  -3.876  0.00  0.00    +0.024 A 
ATOM     12  C   UNL     1      -7.843  -4.462  -3.665  0.00  0.00    +0.037 A 
ATOM     13  C   UNL     1      -7.847  -3.218  -3.047  0.00  0.00    -0.017 A 
ATOM     14  C   UNL     1      -6.671  -2.627  -2.644  0.00  0.00    +0.011 A 
ATOM     15  C   UNL     1      -9.294  -2.790  -2.964  0.00  0.00    +0.133 C 
ATOM     16  C   UNL     1     -10.054  -3.935  -3.600  0.00  0.00    +0.222 C 
ATOM     17  O   UNL     1     -11.256  -4.010  -3.745  0.00  0.00    -0.275 OA
ATOM     18  N   UNL     1      -9.146  -4.852  -3.975  0.00  0.00    -0.285 N 
ATOM     19  H   UNL     1      -9.371  -5.689  -4.411  0.00  0.00    +0.155 HD
ENDBRANCH   8   9
ENDBRANCH   1   8
BRANCH   4  20
ATOM     20  C   UNL     1      -0.036  -1.276  -4.613  0.00  0.00    +0.090 C 
BRANCH  20  21
ATOM     21  C   UNL     1       0.946  -1.801  -5.662  0.00  0.00    -0.051 C 
ATOM     22  C   UNL     1       0.275  -1.812  -7.051  0.00  0.00    -0.016 C 
ATOM     23  C   UNL     1       1.422  -1.371  -7.998  0.00  0.00    -0.020 C 
ATOM     24  C   UNL     1       2.179  -0.346  -7.116  0.00  0.00    -0.078 C 
ATOM     25  N   UNL     1       2.116  -0.907  -5.746  0.00  0.00    +0.383 N 
ATOM     26  H   UNL     1       2.957  -1.429  -5.551  0.00  0.00    -0.081 HD
BRANCH  25  27
ATOM     27  C   UNL     1       1.976   0.183  -4.771  0.00  0.00    -0.075 C 
BRANCH  27  28
ATOM     28  C   UNL     1       3.234   1.053  -4.794  0.00  0.00    -0.028 C 
ATOM     29  C   UNL     1       4.432   0.231  -4.314  0.00  0.00    +0.002 C 
ATOM     30  C   UNL     1       5.690   1.102  -4.338  0.00  0.00    +0.000 C 
ATOM     31  C   UNL     1       5.495   2.306  -3.415  0.00  0.00    +0.000 C 
ATOM     32  C   UNL     1       4.297   3.128  -3.895  0.00  0.00    +0.000 C 
ATOM     33  C   UNL     1       3.039   2.257  -3.871  0.00  0.00    +0.002 C 
ENDBRANCH  27  28
ENDBRANCH  25  27
ENDBRANCH  20  21
ENDBRANCH   4  20
TORSDOF 6
