REMARK  Name = ZINC52098142
REMARK  7 active torsions:
REMARK  status: ('A' for Active; 'I' for Inactive)
REMARK    1  A    between atoms: C_1  and  C_2
REMARK    2  A    between atoms: C_2  and  C_3
REMARK    3  A    between atoms: C_2  and  C_15
REMARK    4  A    between atoms: C_2  and  O_21
REMARK    5  A    between atoms: C_3  and  O_4
REMARK    6  A    between atoms: O_4  and  C_5
REMARK    7  A    between atoms: C_8  and  N_12
REMARK                            x       y       z     vdW  Elec       q    Type
REMARK                         _______ _______ _______ _____ _____    ______ ____
ROOT
ATOM      1  C   UNL     1       0.742  -0.511   1.242  0.00  0.00    +0.268 C 
ENDROOT
BRANCH   1   3
ATOM      2  C   UNL     1      -0.019   1.526   0.010  0.00  0.00    +0.050 C 
ATOM      3  C   UNL     1       0.002  -0.004   0.002  0.00  0.00    +0.122 C 
BRANCH   3   4
ATOM      4  C   UNL     1       0.707  -0.490  -1.238  0.00  0.00    -0.013 A 
ATOM      5  C   UNL     1       2.072  -0.708  -1.216  0.00  0.00    +0.006 A 
ATOM      6  C   UNL     1       2.720  -1.153  -2.353  0.00  0.00    +0.000 A 
ATOM      7  C   UNL     1       2.001  -1.382  -3.512  0.00  0.00    +0.000 A 
ATOM      8  C   UNL     1       0.636  -1.166  -3.534  0.00  0.00    +0.000 A 
ATOM      9  C   UNL     1      -0.011  -0.724  -2.395  0.00  0.00    +0.006 A 
ENDBRANCH   3   4
BRANCH   3  10
ATOM     10  O   UNL     1      -1.339  -0.499   0.012  0.00  0.00    -0.381 OA
ATOM     11  H   UNL     1      -1.402  -1.464   0.008  0.00  0.00    +0.211 HD
ENDBRANCH   3  10
ENDBRANCH   1   3
BRANCH   1  12
ATOM     12  O   UNL     1       0.073  -0.050   2.417  0.00  0.00    -0.489 OA
BRANCH  12  13
ATOM     13  C   UNL     1       0.606  -0.415   3.613  0.00  0.00    +0.122 A 
ATOM     14  C   UNL     1       1.753  -1.195   3.654  0.00  0.00    +0.048 A 
ATOM     15  C   UNL     1       2.293  -1.564   4.870  0.00  0.00    +0.038 A 
ATOM     16  C   UNL     1       1.692  -1.157   6.047  0.00  0.00    +0.145 A 
ATOM     17  C   UNL     1       0.549  -0.379   6.010  0.00  0.00    +0.075 A 
ATOM     18  C   UNL     1       0.008  -0.002   4.795  0.00  0.00    +0.068 A 
ATOM     19 CL   UNL     1      -0.203   0.130   7.490  0.00  0.00    -0.081 Cl
BRANCH  16  20
ATOM     20  N   UNL     1       2.273  -1.555   7.349  0.00  0.00    +0.058 N 
ATOM     21  O   UNL     1       3.272  -2.235   7.383  0.00  0.00    -0.126 OA
ATOM     22  O   UNL     1       1.749  -1.200   8.379  0.00  0.00    -0.126 OA
ENDBRANCH  16  20
ENDBRANCH  12  13
ENDBRANCH   1  12
TORSDOF 6
