REMARK  Name = ZINC62238190
REMARK  4 active torsions:
REMARK  status: ('A' for Active; 'I' for Inactive)
REMARK    1  A    between atoms: C_1  and  C_2
REMARK    2  A    between atoms: C_2  and  C_3
REMARK    3  A    between atoms: C_4  and  C_9
REMARK    4  A    between atoms: C_7  and  N_8
REMARK                            x       y       z     vdW  Elec       q    Type
REMARK                         _______ _______ _______ _____ _____    ______ ____
ROOT
ATOM      1  C   UNL     1      -1.412  -0.526   0.013  0.00  0.00    +0.037 A 
ATOM      2  C   UNL     1      -2.175  -0.811   1.152  0.00  0.00    +0.094 A 
ATOM      3  N   UNL     1      -3.345  -1.241   0.763  0.00  0.00    -0.080 NA
ATOM      4  O   UNL     1      -3.364  -1.242  -0.653  0.00  0.00    -0.339 OA
ATOM      5  C   UNL     1      -2.172  -0.796  -1.081  0.00  0.00    +0.219 A 
ENDROOT
BRANCH   2   6
ATOM      6  C   UNL     1      -1.724  -0.651   2.581  0.00  0.00    +0.067 C 
ATOM      7  C   UNL     1      -2.646   0.337   3.302  0.00  0.00    +0.014 C 
ATOM      8  C   UNL     1      -2.225   0.432   4.771  0.00  0.00    +0.029 C 
ATOM      9  C   UNL     1      -2.267  -0.964   5.398  0.00  0.00    +0.160 C 
ATOM     10  O   UNL     1      -1.411  -1.841   4.661  0.00  0.00    -0.379 OA
ATOM     11  C   UNL     1      -1.783  -2.006   3.291  0.00  0.00    +0.169 C 
ENDBRANCH   2   6
BRANCH   5  12
ATOM     12  N   UNL     1      -1.785  -0.642  -2.400  0.00  0.00    -0.327 N 
ATOM     13  H   UNL     1      -0.897  -0.313  -2.610  0.00  0.00    +0.145 HD
ATOM     14  H   UNL     1      -2.402  -0.863  -3.115  0.00  0.00    +0.145 HD
ENDBRANCH   5  12
BRANCH   1  16
ATOM     15  C   UNL     1      -0.019   1.526   0.010  0.00  0.00    +0.009 C 
ATOM     16  C   UNL     1       0.002  -0.004   0.002  0.00  0.00    +0.039 C 
ENDBRANCH   1  16
TORSDOF 3
