REMARK  Name = ZINC12551629
REMARK  5 active torsions:
REMARK  status: ('A' for Active; 'I' for Inactive)
REMARK    1  A    between atoms: C_1  and  N_2
REMARK    2  A    between atoms: N_11  and  C_24
REMARK    3  A    between atoms: N_14  and  N_15
REMARK    4  A    between atoms: C_16  and  C_17
REMARK    5  A    between atoms: C_24  and  C_25
REMARK                            x       y       z     vdW  Elec       q    Type
REMARK                         _______ _______ _______ _____ _____    ______ ____
ROOT
ATOM      1  C   UNL     1       6.502   3.389  -0.043  0.00  0.00    +0.155 C 
ATOM      2  N   UNL     1       5.775   4.661  -0.029  0.00  0.00    -0.280 N 
ATOM      3  C   UNL     1       4.390   4.667  -0.015  0.00  0.00    +0.170 A 
ATOM      4  C   UNL     1       3.725   5.889  -0.002  0.00  0.00    +0.153 A 
ATOM      5  C   UNL     1       4.474   7.079  -0.003  0.00  0.00    +0.280 A 
ATOM      6  O   UNL     1       3.913   8.160   0.008  0.00  0.00    -0.265 OA
ATOM      7  N   UNL     1       5.822   7.010  -0.016  0.00  0.00    -0.273 N 
ATOM      8  H   UNL     1       6.358   7.854  -0.016  0.00  0.00    +0.173 HD
ATOM      9  C   UNL     1       6.455   5.824  -0.028  0.00  0.00    +0.331 A 
ATOM     10  O   UNL     1       7.670   5.801  -0.040  0.00  0.00    -0.246 OA
ATOM     11  N   UNL     1       2.368   5.596   0.004  0.00  0.00    -0.301 N 
ATOM     12  C   UNL     1       2.261   4.240   0.003  0.00  0.00    +0.218 A 
ATOM     13  N   UNL     1       3.466   3.706  -0.012  0.00  0.00    -0.195 NA
ATOM     14  N   UNL     1       1.078   3.535   0.011  0.00  0.00    -0.206 N 
ATOM     15  H   UNL     1       0.232   4.009   0.021  0.00  0.00    +0.177 HD
ENDROOT
BRANCH  14  16
ATOM     16  N   UNL     1       1.097   2.135   0.003  0.00  0.00    -0.188 NA
ATOM     17  C   UNL     1      -0.018   1.470   0.010  0.00  0.00    +0.139 C 
BRANCH  17  18
ATOM     18  C   UNL     1       0.002  -0.004   0.002  0.00  0.00    +0.013 A 
ATOM     19  C   UNL     1      -1.196  -0.723   0.015  0.00  0.00    +0.011 A 
ATOM     20  C   UNL     1      -1.170  -2.101   0.003  0.00  0.00    +0.001 A 
ATOM     21  C   UNL     1       0.039  -2.774  -0.012  0.00  0.00    +0.001 A 
ATOM     22  C   UNL     1       1.230  -2.071  -0.020  0.00  0.00    +0.020 A 
ATOM     23  C   UNL     1       1.220  -0.690  -0.013  0.00  0.00    +0.050 A 
ATOM     24 CL   UNL     1       2.716   0.192  -0.023  0.00  0.00    -0.083 Cl
ENDBRANCH  17  18
ENDBRANCH  14  16
BRANCH  11  25
ATOM     25  C   UNL     1       1.266   6.560   0.012  0.00  0.00    +0.163 C 
BRANCH  25  26
ATOM     26  C   UNL     1       0.897   6.890   1.436  0.00  0.00    +0.007 A 
ATOM     27  C   UNL     1       1.356   8.057   2.016  0.00  0.00    +0.008 A 
ATOM     28  C   UNL     1       1.018   8.360   3.322  0.00  0.00    +0.000 A 
ATOM     29  C   UNL     1       0.220   7.496   4.049  0.00  0.00    +0.003 A 
ATOM     30  C   UNL     1      -0.241   6.328   3.470  0.00  0.00    +0.039 A 
ATOM     31  C   UNL     1       0.094   6.026   2.161  0.00  0.00    +0.128 A 
ATOM     32  F   UNL     1      -0.360   4.887   1.593  0.00  0.00    -0.205 F 
ENDBRANCH  25  26
ENDBRANCH  11  25
TORSDOF 4
