REMARK  Name = ZINC54419210
REMARK  7 active torsions:
REMARK  status: ('A' for Active; 'I' for Inactive)
REMARK    1  A    between atoms: C_1  and  N_2
REMARK    2  A    between atoms: N_2  and  C_3
REMARK    3  A    between atoms: N_2  and  C_6
REMARK    4  A    between atoms: C_3  and  C_4
REMARK    5  A    between atoms: C_4  and  N_5
REMARK    6  A    between atoms: C_6  and  C_7
REMARK    7  A    between atoms: N_9  and  C_10
REMARK                            x       y       z     vdW  Elec       q    Type
REMARK                         _______ _______ _______ _____ _____    ______ ____
ROOT
ATOM      1  C   UNL     1      -3.016   0.293  -0.719  0.00  0.00    +0.231 C 
ATOM      2  O   UNL     1      -3.271   1.467  -0.885  0.00  0.00    -0.274 OA
ATOM      3  N   UNL     1      -3.214  -0.588  -1.719  0.00  0.00    -0.283 N 
ATOM      4  H   UNL     1      -2.942  -1.513  -1.612  0.00  0.00    +0.155 HD
ENDROOT
BRANCH   3   5
ATOM      5  C   UNL     1      -3.812  -0.168  -2.914  0.00  0.00    +0.062 A 
ATOM      6  C   UNL     1      -3.025   0.284  -3.965  0.00  0.00    +0.041 A 
ATOM      7  C   UNL     1      -3.618   0.698  -5.143  0.00  0.00    +0.032 A 
ATOM      8  C   UNL     1      -4.995   0.661  -5.276  0.00  0.00    +0.020 A 
ATOM      9  C   UNL     1      -5.782   0.212  -4.230  0.00  0.00    +0.032 A 
ATOM     10  C   UNL     1      -5.194  -0.208  -3.052  0.00  0.00    +0.041 A 
ATOM     11 BR   UNL     1      -6.270  -0.830  -1.627  0.00  0.00    -0.048 Br
ATOM     12 BR   UNL     1      -5.802   1.228  -6.889  0.00  0.00    -0.050 Br
ATOM     13 BR   UNL     1      -1.143   0.335  -3.785  0.00  0.00    -0.048 Br
ENDBRANCH   3   5
BRANCH   1  14
ATOM     14  C   UNL     1      -2.477  -0.180   0.606  0.00  0.00    +0.180 C 
BRANCH  14  16
ATOM     15  C   UNL     1      -3.672   1.514   1.857  0.00  0.00    +0.105 C 
ATOM     16  N   UNL     1      -2.353   0.963   1.521  0.00  0.00    -0.299 NA
BRANCH  16  17
ATOM     17  C   UNL     1      -1.614   0.588   2.734  0.00  0.00    +0.065 C 
BRANCH  17  18
ATOM     18  C   UNL     1      -1.288   1.846   3.542  0.00  0.00    -0.071 C 
BRANCH  18  19
ATOM     19  N   UNL     1      -0.549   1.472   4.755  0.00  0.00    +0.379 N 
ATOM     20  H   UNL     1      -1.114   0.850   5.314  0.00  0.00    -0.090 HD
ATOM     21  H   UNL     1       0.308   1.007   4.497  0.00  0.00    -0.090 HD
ATOM     22  H   UNL     1      -0.334   2.302   5.287  0.00  0.00    -0.090 HD
ENDBRANCH  18  19
ENDBRANCH  17  18
ENDBRANCH  16  17
ENDBRANCH  14  16
ENDBRANCH   1  14
TORSDOF 6
