REMARK  Name = ZINC21790395
REMARK  7 active torsions:
REMARK  status: ('A' for Active; 'I' for Inactive)
REMARK    1  A    between atoms: C_1  and  C_2
REMARK    2  A    between atoms: C_4  and  C_21
REMARK    3  A    between atoms: C_6  and  N_8
REMARK    4  A    between atoms: N_8  and  S_9
REMARK    5  A    between atoms: S_9  and  C_12
REMARK    6  A    between atoms: C_17  and  C_18
REMARK    7  A    between atoms: C_18  and  N_20
REMARK                            x       y       z     vdW  Elec       q    Type
REMARK                         _______ _______ _______ _____ _____    ______ ____
ROOT
ATOM      1  S   UNL     1       0.165   1.355  -0.015  0.00  0.00    +0.095 S 
ATOM      2  O   UNL     1       0.229  -0.064  -0.001  0.00  0.00    -0.148 OA
ATOM      3  O   UNL     1       1.326   2.171   0.048  0.00  0.00    -0.148 OA
ENDROOT
BRANCH   1   4
ATOM      4  C   UNL     1      -0.857   1.827   1.340  0.00  0.00    +0.120 A 
ATOM      5  C   UNL     1      -0.428   2.795   2.225  0.00  0.00    +0.029 A 
ATOM      6  C   UNL     1      -1.232   3.171   3.287  0.00  0.00    +0.002 A 
ATOM      7  C   UNL     1      -2.465   2.572   3.476  0.00  0.00    +0.001 A 
ATOM      8  C   UNL     1      -2.904   1.599   2.602  0.00  0.00    +0.012 A 
ATOM      9  C   UNL     1      -2.100   1.218   1.525  0.00  0.00    +0.030 A 
BRANCH   9  10
ATOM     10  C   UNL     1      -2.563   0.177   0.586  0.00  0.00    +0.079 C 
ATOM     11  S   UNL     1      -3.401   0.621  -0.839  0.00  0.00    -0.035 S 
BRANCH  10  12
ATOM     12  N   UNL     1      -2.325  -1.123   0.851  0.00  0.00    -0.352 N 
ATOM     13  H   UNL     1      -2.669  -1.898   0.151  0.00  0.00    +0.143 HD
ATOM     14  H   UNL     1      -1.786  -1.408   1.766  0.00  0.00    +0.143 HD
ENDBRANCH  10  12
ENDBRANCH   9  10
ENDBRANCH   1   4
BRANCH   1  15
ATOM     15  N   UNL     1      -0.636   1.778  -1.402  0.00  0.00    -0.058 NA
BRANCH  15  21
ATOM     16  C   UNL     1      -0.759   6.316   0.132  0.00  0.00    +0.066 C 
ATOM     17  C   UNL     1      -0.936   5.297  -0.964  0.00  0.00    +0.044 A 
ATOM     18  C   UNL     1      -1.327   5.693  -2.234  0.00  0.00    +0.046 A 
ATOM     19  C   UNL     1      -1.478   4.723  -3.213  0.00  0.00    +0.044 A 
ATOM     20  N   UNL     1      -1.245   3.457  -2.909  0.00  0.00    -0.217 NA
ATOM     21  C   UNL     1      -0.871   3.112  -1.686  0.00  0.00    +0.258 A 
ATOM     22  N   UNL     1      -0.724   4.013  -0.725  0.00  0.00    -0.217 NA
ATOM     23  C   UNL     1      -1.901   5.107  -4.607  0.00  0.00    +0.066 C 
ENDBRANCH  15  21
ENDBRANCH   1  15
TORSDOF 5
