REMARK  Name = ZINC14573470
REMARK  8 active torsions:
REMARK  status: ('A' for Active; 'I' for Inactive)
REMARK    1  A    between atoms: C_1  and  C_2
REMARK    2  A    between atoms: C_5  and  C_28
REMARK    3  A    between atoms: C_6  and  C_8
REMARK    4  A    between atoms: C_8  and  C_10
REMARK    5  A    between atoms: C_8  and  N_11
REMARK    6  A    between atoms: C_12  and  C_14
REMARK    7  A    between atoms: C_14  and  N_15
REMARK    8  A    between atoms: C_21  and  C_24
REMARK                            x       y       z     vdW  Elec       q    Type
REMARK                         _______ _______ _______ _____ _____    ______ ____
ROOT
ATOM      1  C   UNL     1      -2.482   0.853   0.018  0.00  0.00    +0.213 C 
ENDROOT
BRANCH   1   2
ATOM      2  N   UNL     1      -3.608   1.789   0.029  0.00  0.00    -0.215 N 
ATOM      3  C   UNL     1      -4.197   2.280  -1.081  0.00  0.00    +0.247 C 
ATOM      4  O   UNL     1      -3.906   2.040  -2.234  0.00  0.00    -0.273 OA
ATOM      5  C   UNL     1      -5.295   3.193  -0.587  0.00  0.00    +0.113 C 
ATOM      6  C   UNL     1      -6.655   2.692  -1.061  0.00  0.00    +0.035 C 
ATOM      7  C   UNL     1      -7.756   3.612  -0.526  0.00  0.00    +0.006 C 
ATOM      8  C   UNL     1      -7.515   5.038  -1.028  0.00  0.00    -0.014 C 
ATOM      9  C   UNL     1      -6.158   5.535  -0.523  0.00  0.00    +0.006 C 
ATOM     10  C   UNL     1      -5.051   4.622  -1.058  0.00  0.00    +0.035 C 
ATOM     11  C   UNL     1      -8.621   5.956  -0.504  0.00  0.00    +0.007 C 
ATOM     12  N   UNL     1      -5.197   3.108   0.876  0.00  0.00    -0.285 N 
ATOM     13  C   UNL     1      -4.185   2.260   1.141  0.00  0.00    +0.310 C 
ATOM     14  O   UNL     1      -3.833   1.958   2.265  0.00  0.00    -0.252 OA
ATOM     15  H   UNL     1      -5.754   3.569   1.523  0.00  0.00    +0.151 HD
ENDBRANCH   1   2
BRANCH   1  17
ATOM     16  N   UNL     1      -0.011   0.966   0.007  0.00  0.00    -0.307 N 
ATOM     17  C   UNL     1      -1.187   1.624   0.017  0.00  0.00    +0.231 C 
ATOM     18  O   UNL     1      -1.204   2.837   0.023  0.00  0.00    -0.274 OA
ATOM     19  H   UNL     1       0.002  -0.004   0.002  0.00  0.00    +0.149 HD
BRANCH  16  20
ATOM     20  C   UNL     1       1.248   1.716  -0.001  0.00  0.00    +0.100 C 
ATOM     21  C   UNL     1       1.608   2.092  -1.439  0.00  0.00    +0.033 C 
BRANCH  20  27
ATOM     22  C   UNL     1       3.135  -2.799   1.046  0.00  0.00    +0.044 C 
ATOM     23  C   UNL     1       3.247  -1.297   1.086  0.00  0.00    -0.050 A 
ATOM     24  C   UNL     1       4.354  -0.701   1.660  0.00  0.00    +0.003 A 
ATOM     25  C   UNL     1       4.457   0.677   1.696  0.00  0.00    +0.004 A 
ATOM     26  C   UNL     1       3.451   1.459   1.159  0.00  0.00    -0.046 A 
ATOM     27  C   UNL     1       2.344   0.863   0.585  0.00  0.00    -0.024 A 
ATOM     28  C   UNL     1       2.239  -0.515   0.553  0.00  0.00    +0.009 A 
ATOM     29  C   UNL     1       3.562   2.962   1.198  0.00  0.00    +0.044 C 
ENDBRANCH  20  27
ENDBRANCH  16  20
ENDBRANCH   1  17
TORSDOF 4
