REMARK  Name = ZINC19354080
REMARK  4 active torsions:
REMARK  status: ('A' for Active; 'I' for Inactive)
REMARK    1  A    between atoms: C_2  and  C_3
REMARK    2  A    between atoms: C_3  and  O_4
REMARK    3  A    between atoms: O_4  and  C_5
REMARK    4  A    between atoms: C_8  and  C_11
REMARK                            x       y       z     vdW  Elec       q    Type
REMARK                         _______ _______ _______ _____ _____    ______ ____
ROOT
ATOM      1  C   UNL     1       1.255   1.720  -0.001  0.00  0.00    +0.217 C 
ATOM      2  N   UNL     1      -0.011   0.966   0.007  0.00  0.00    -0.337 N 
ATOM      3  C   UNL     1      -1.206   1.635   0.017  0.00  0.00    +0.159 C 
ATOM      4  N   UNL     1      -1.336   2.830  -0.527  0.00  0.00    -0.259 N 
ATOM      5  C   UNL     1      -0.234   3.422  -1.047  0.00  0.00    +0.205 A 
ATOM      6  N   UNL     1       1.031   2.909  -0.830  0.00  0.00    -0.286 N 
ATOM      7  C   UNL     1       1.927   3.706  -1.504  0.00  0.00    +0.076 A 
ATOM      8  C   UNL     1       3.306   3.693  -1.664  0.00  0.00    +0.077 A 
ATOM      9  C   UNL     1       3.920   4.667  -2.428  0.00  0.00    +0.164 A 
ATOM     10  C   UNL     1       3.164   5.663  -3.041  0.00  0.00    +0.164 A 
ATOM     11  C   UNL     1       1.793   5.691  -2.892  0.00  0.00    +0.079 A 
ATOM     12  C   UNL     1       1.160   4.712  -2.121  0.00  0.00    +0.095 A 
ATOM     13  N   UNL     1      -0.144   4.486  -1.802  0.00  0.00    -0.214 NA
ATOM     14  O   UNL     1       3.790   6.616  -3.793  0.00  0.00    -0.488 OA
ATOM     15  C   UNL     1       4.378   6.162  -5.014  0.00  0.00    +0.232 C 
ATOM     16  C   UNL     1       5.771   5.605  -4.768  0.00  0.00    +0.082 C 
ATOM     17  C   UNL     1       5.749   4.355  -3.901  0.00  0.00    +0.232 C 
ATOM     18  O   UNL     1       5.276   4.658  -2.587  0.00  0.00    -0.488 OA
ATOM     19  N   UNL     1      -2.294   1.052   0.608  0.00  0.00    -0.332 N 
ATOM     20  H   UNL     1      -3.260   1.578   0.623  0.00  0.00    +0.145 HD
ATOM     21  H   UNL     1      -2.320   3.320  -0.550  0.00  0.00    +0.158 HD
ATOM     22  H   UNL     1      -2.203   0.057   1.070  0.00  0.00    +0.145 HD
ATOM     23  H   UNL     1       0.004  -0.134   0.006  0.00  0.00    +0.164 HD
ENDROOT
BRANCH   1  27
ATOM     24  C   UNL     1       2.288   2.886   3.979  0.00  0.00    +0.121 A 
ATOM     25  C   UNL     1       3.273   2.448   3.105  0.00  0.00    +0.046 A 
ATOM     26  C   UNL     1       2.936   2.072   1.819  0.00  0.00    +0.011 A 
ATOM     27  C   UNL     1       1.619   2.131   1.403  0.00  0.00    -0.004 A 
ATOM     28  C   UNL     1       0.637   2.573   2.269  0.00  0.00    +0.011 A 
ATOM     29  C   UNL     1       0.967   2.946   3.558  0.00  0.00    +0.046 A 
BRANCH  24  30
ATOM     30  O   UNL     1       2.616   3.257   5.244  0.00  0.00    -0.488 OA
BRANCH  30  31
ATOM     31  C   UNL     1       1.551   3.698   6.088  0.00  0.00    +0.256 C 
BRANCH  31  33
ATOM     32  C   UNL     1       1.716   5.170   8.029  0.00  0.00    +0.007 C 
ATOM     33  C   UNL     1       2.101   4.064   7.442  0.00  0.00    +0.006 C 
ENDBRANCH  31  33
ENDBRANCH  30  31
ENDBRANCH  24  30
ENDBRANCH   1  27
TORSDOF 4
