REMARK  Name = ZINC40106824
REMARK  8 active torsions:
REMARK  status: ('A' for Active; 'I' for Inactive)
REMARK    1  A    between atoms: C_1  and  C_2
REMARK    2  A    between atoms: C_3  and  C_12
REMARK    3  A    between atoms: C_12  and  C_13
REMARK    4  A    between atoms: C_13  and  C_14
REMARK    5  A    between atoms: N_16  and  C_17
REMARK    6  A    between atoms: C_17  and  C_18
REMARK    7  A    between atoms: C_26  and  C_33
REMARK    8  A    between atoms: C_29  and  C_32
REMARK                            x       y       z     vdW  Elec       q    Type
REMARK                         _______ _______ _______ _____ _____    ______ ____
ROOT
ATOM      1  C   UNL     1      -4.334   0.863  -1.403  0.00  0.00    +0.214 C 
ATOM      2  O   UNL     1      -4.809   1.243  -0.353  0.00  0.00    -0.276 OA
ATOM      3  N   UNL     1      -4.977   1.107  -2.561  0.00  0.00    -0.311 N 
ATOM      4  H   UNL     1      -4.597   0.803  -3.400  0.00  0.00    +0.149 HD
ENDROOT
BRANCH   1   5
ATOM      5  C   UNL     1      -3.024   0.118  -1.410  0.00  0.00    +0.100 C 
BRANCH   5   6
ATOM      6  C   UNL     1      -2.510  -0.025   0.024  0.00  0.00    +0.051 C 
BRANCH   6   9
ATOM      7  C   UNL     1      -0.024   1.411   0.007  0.00  0.00    +0.064 C 
ATOM      8  C   UNL     1      -0.030  -0.096   0.009  0.00  0.00    +0.026 A 
ATOM      9  C   UNL     1      -1.200  -0.770   0.016  0.00  0.00    +0.036 A 
ATOM     10  C   UNL     1      -1.181  -2.185   0.018  0.00  0.00    +0.257 A 
ATOM     11  O   UNL     1      -2.223  -2.815   0.024  0.00  0.00    -0.267 OA
ATOM     12  N   UNL     1       0.004  -2.830   0.011  0.00  0.00    -0.275 N 
ATOM     13  H   UNL     1       0.025  -3.800   0.011  0.00  0.00    +0.173 HD
ATOM     14  C   UNL     1       1.155  -2.134   0.004  0.00  0.00    +0.327 A 
ATOM     15  O   UNL     1       2.216  -2.729  -0.002  0.00  0.00    -0.247 OA
ATOM     16  N   UNL     1       1.150  -0.789  -0.003  0.00  0.00    -0.311 N 
ATOM     17  H   UNL     1       1.991  -0.305  -0.012  0.00  0.00    +0.170 HD
ENDBRANCH   6   9
ENDBRANCH   5   6
ENDBRANCH   1   5
BRANCH   3  18
ATOM     18  C   UNL     1      -6.251   1.832  -2.554  0.00  0.00    +0.141 C 
BRANCH  18  19
ATOM     19  C   UNL     1      -6.757   1.972  -3.966  0.00  0.00    -0.014 A 
ATOM     20  C   UNL     1      -6.398   3.072  -4.734  0.00  0.00    +0.010 A 
ATOM     21  C   UNL     1      -6.885   3.162  -6.026  0.00  0.00    +0.042 A 
ATOM     22  C   UNL     1      -7.713   2.153  -6.509  0.00  0.00    +0.099 A 
ATOM     23  N   UNL     1      -8.032   1.120  -5.745  0.00  0.00    -0.349 N 
ATOM     24  C   UNL     1      -7.578   1.005  -4.512  0.00  0.00    +0.089 A 
ATOM     25  N   UNL     1      -8.209   2.232  -7.805  0.00  0.00    -0.312 N 
ATOM     26  C   UNL     1      -7.978   3.425  -8.634  0.00  0.00    +0.137 C 
ATOM     27  C   UNL     1      -9.324   3.883  -9.209  0.00  0.00    +0.133 C 
ATOM     28  O   UNL     1      -9.961   2.777  -9.852  0.00  0.00    -0.371 OA
ATOM     29  C   UNL     1     -10.277   1.692  -8.975  0.00  0.00    +0.133 C 
ATOM     30  C   UNL     1      -8.976   1.121  -8.391  0.00  0.00    +0.137 C 
ATOM     31  C   UNL     1     -11.009   0.600  -9.757  0.00  0.00    +0.039 C 
ATOM     32  C   UNL     1      -9.091   5.002 -10.225  0.00  0.00    +0.039 C 
ATOM     33  H   UNL     1      -8.611   0.428  -6.103  0.00  0.00    +0.167 HD
ENDBRANCH  18  19
ENDBRANCH   3  18
TORSDOF 5
