REMARK  Name = ZINC62778569
REMARK  3 active torsions:
REMARK  status: ('A' for Active; 'I' for Inactive)
REMARK    1  A    between atoms: C_6  and  C_7
REMARK    2  A    between atoms: C_7  and  C_9
REMARK    3  A    between atoms: C_7  and  O_15
REMARK                            x       y       z     vdW  Elec       q    Type
REMARK                         _______ _______ _______ _____ _____    ______ ____
ROOT
ATOM      1  C   UNL     1      -0.017   1.378   0.010  0.00  0.00    +0.007 A 
ATOM      2  C   UNL     1       1.171   2.083   0.002  0.00  0.00    +0.004 A 
ATOM      3  C   UNL     1       2.381   1.411  -0.014  0.00  0.00    -0.044 A 
ATOM      4  C   UNL     1       2.400   0.028  -0.021  0.00  0.00    -0.044 A 
ATOM      5  C   UNL     1       1.208  -0.677  -0.014  0.00  0.00    +0.010 A 
ATOM      6  C   UNL     1       0.002  -0.004   0.002  0.00  0.00    -0.014 A 
ATOM      7  C   UNL     1       3.831  -0.464  -0.038  0.00  0.00    +0.036 C 
ATOM      8  C   UNL     1       4.671   0.753  -0.480  0.00  0.00    +0.009 C 
ATOM      9  C   UNL     1       3.799   1.942  -0.025  0.00  0.00    +0.036 C 
ENDROOT
BRANCH   6  10
ATOM     10  C   UNL     1      -1.292  -0.776   0.011  0.00  0.00    +0.178 C 
BRANCH  10  11
ATOM     11  C   UNL     1      -1.801  -0.919  -1.400  0.00  0.00    +0.022 A 
ATOM     12  C   UNL     1      -1.676  -2.015  -2.184  0.00  0.00    +0.111 A 
ATOM     13  N   UNL     1      -2.261  -1.742  -3.369  0.00  0.00    -0.284 N 
ATOM     14  H   UNL     1      -2.324  -2.345  -4.127  0.00  0.00    +0.188 HD
ATOM     15  N   UNL     1      -2.762  -0.435  -3.312  0.00  0.00    -0.182 NA
ATOM     16  C   UNL     1      -2.491   0.055  -2.129  0.00  0.00    +0.140 A 
ENDBRANCH  10  11
BRANCH  10  17
ATOM     17  O   UNL     1      -2.259  -0.076   0.797  0.00  0.00    -0.382 OA
ATOM     18  H   UNL     1      -2.459   0.813   0.474  0.00  0.00    +0.211 HD
ENDBRANCH  10  17
ENDBRANCH   6  10
TORSDOF 3
