REMARK  Name = ZINC20009360
REMARK  4 active torsions:
REMARK  status: ('A' for Active; 'I' for Inactive)
REMARK    1  A    between atoms: C_1  and  C_2
REMARK    2  A    between atoms: C_5  and  N_19
REMARK    3  A    between atoms: C_6  and  C_8
REMARK    4  A    between atoms: C_10  and  C_13
REMARK                            x       y       z     vdW  Elec       q    Type
REMARK                         _______ _______ _______ _____ _____    ______ ____
ROOT
ATOM      1  C   UNL     1       0.002  -0.004   0.002  0.00  0.00    +0.260 A 
ATOM      2  N   UNL     1      -0.016   1.318   0.009  0.00  0.00    -0.191 NA
ATOM      3  C   UNL     1       1.272   1.695  -0.001  0.00  0.00    +0.175 A 
ATOM      4  N   UNL     1       1.998   0.617  -0.014  0.00  0.00    -0.061 NA
ATOM      5  O   UNL     1       1.294  -0.370  -0.012  0.00  0.00    -0.333 OA
ENDROOT
BRANCH   1  11
ATOM      6  C   UNL     1      -4.943  -0.640   0.048  0.00  0.00    +0.044 C 
ATOM      7  C   UNL     1      -3.550  -1.215   0.031  0.00  0.00    -0.050 A 
ATOM      8  C   UNL     1      -3.372  -2.588   0.021  0.00  0.00    +0.005 A 
ATOM      9  C   UNL     1      -2.101  -3.128   0.005  0.00  0.00    +0.024 A 
ATOM     10  C   UNL     1      -0.991  -2.293  -0.006  0.00  0.00    +0.037 A 
ATOM     11  C   UNL     1      -1.169  -0.901   0.009  0.00  0.00    +0.060 A 
ATOM     12  C   UNL     1      -2.461  -0.371   0.025  0.00  0.00    +0.018 A 
BRANCH  10  13
ATOM     13  N   UNL     1       0.290  -2.834  -0.028  0.00  0.00    -0.357 N 
ATOM     14  H   UNL     1       1.167  -2.171  -0.037  0.00  0.00    +0.142 HD
ATOM     15  H   UNL     1       0.426  -3.926  -0.036  0.00  0.00    +0.142 HD
ENDBRANCH  10  13
ENDBRANCH   1  11
BRANCH   3  16
ATOM     16  C   UNL     1       1.784   3.112   0.002  0.00  0.00    +0.060 C 
ATOM     17  C   UNL     1       2.624   3.354  -1.254  0.00  0.00    +0.011 C 
ATOM     18  C   UNL     1       3.144   4.793  -1.252  0.00  0.00    +0.001 C 
ATOM     19  C   UNL     1       4.007   5.021  -0.009  0.00  0.00    +0.000 C 
ATOM     20  C   UNL     1       3.168   4.779   1.247  0.00  0.00    +0.001 C 
ATOM     21  C   UNL     1       2.648   3.340   1.244  0.00  0.00    +0.011 C 
ENDBRANCH   3  16
TORSDOF 3
