REMARK  Name = ZINC39607200
REMARK  8 active torsions:
REMARK  status: ('A' for Active; 'I' for Inactive)
REMARK    1  A    between atoms: C_1  and  C_2
REMARK    2  A    between atoms: C_9  and  C_14
REMARK    3  A    between atoms: C_14  and  O_16
REMARK    4  A    between atoms: O_16  and  C_17
REMARK    5  A    between atoms: C_17  and  C_18
REMARK    6  A    between atoms: N_20  and  C_21
REMARK    7  A    between atoms: C_26  and  C_27
REMARK    8  A    between atoms: C_27  and  C_29
REMARK                            x       y       z     vdW  Elec       q    Type
REMARK                         _______ _______ _______ _____ _____    ______ ____
ROOT
ATOM      1  C   UNL     1      -0.493  -8.658   2.241  0.00  0.00    +0.328 C 
ENDROOT
BRANCH   1   2
ATOM      2  C   UNL     1       0.567  -9.545   2.841  0.00  0.00    +0.255 C 
ATOM      3  O   UNL     1       1.615  -9.065   3.221  0.00  0.00    -0.272 OA
ATOM      4  N   UNL     1       0.352 -10.870   2.955  0.00  0.00    -0.282 N 
ATOM      5  H   UNL     1      -0.509 -11.245   2.711  0.00  0.00    +0.155 HD
BRANCH   4   6
ATOM      6  C   UNL     1       1.366 -11.703   3.424  0.00  0.00    +0.048 A 
ATOM      7  C   UNL     1       2.239 -11.252   4.401  0.00  0.00    +0.073 A 
ATOM      8  C   UNL     1       3.249 -12.079   4.868  0.00  0.00    +0.168 A 
ATOM      9  C   UNL     1       3.392 -13.373   4.357  0.00  0.00    +0.167 A 
ATOM     10  C   UNL     1       2.531 -13.833   3.385  0.00  0.00    +0.062 A 
ATOM     11  C   UNL     1       1.503 -13.005   2.911  0.00  0.00    +0.042 A 
ATOM     12  O   UNL     1       4.452 -13.970   4.979  0.00  0.00    -0.453 OA
ATOM     13  C   UNL     1       5.203 -12.895   5.574  0.00  0.00    +0.466 C 
ATOM     14  O   UNL     1       4.216 -11.874   5.806  0.00  0.00    -0.453 OA
BRANCH  11  15
ATOM     15  C   UNL     1       0.582 -13.492   1.882  0.00  0.00    +0.162 C 
ATOM     16  O   UNL     1      -0.242 -12.742   1.401  0.00  0.00    -0.292 OA
ATOM     17  C   UNL     1       0.656 -14.925   1.420  0.00  0.00    +0.091 C 
ENDBRANCH  11  15
ENDBRANCH   4   6
ENDBRANCH   1   2
BRANCH   1  18
ATOM     18  O   UNL     1      -0.033  -7.305   2.229  0.00  0.00    -0.452 OA
BRANCH  18  19
ATOM     19  C   UNL     1      -0.869  -6.379   1.721  0.00  0.00    +0.340 C 
ATOM     20  O   UNL     1      -1.960  -6.710   1.299  0.00  0.00    -0.245 OA
BRANCH  19  28
ATOM     21  C   UNL     1      -0.123   1.527   0.076  0.00  0.00    +0.029 C 
ATOM     22  C   UNL     1      -0.097  -0.003   0.061  0.00  0.00    +0.134 C 
ATOM     23  C   UNL     1      -1.505  -0.532   0.100  0.00  0.00    +0.230 C 
ATOM     24  O   UNL     1      -2.393   0.172  -0.332  0.00  0.00    -0.274 OA
ATOM     25  N   UNL     1      -1.829  -1.728   0.581  0.00  0.00    -0.284 N 
ATOM     26  C   UNL     1      -0.950  -2.672   1.106  0.00  0.00    +0.048 A 
ATOM     27  C   UNL     1      -1.329  -4.004   1.149  0.00  0.00    +0.039 A 
ATOM     28  C   UNL     1      -0.461  -4.964   1.677  0.00  0.00    +0.061 A 
ATOM     29  C   UNL     1       0.794  -4.583   2.163  0.00  0.00    +0.016 A 
ATOM     30  C   UNL     1       1.173  -3.260   2.118  0.00  0.00    +0.017 A 
ATOM     31  C   UNL     1       0.310  -2.307   1.592  0.00  0.00    +0.030 A 
ATOM     32  S   UNL     1       0.801  -0.611   1.522  0.00  0.00    -0.111 S 
ATOM     33  H   UNL     1      -2.769  -1.967   0.565  0.00  0.00    +0.155 HD
ENDBRANCH  19  28
ENDBRANCH  18  19
ENDBRANCH   1  18
TORSDOF 6
