REMARK  Name = ZINC36629385
REMARK  8 active torsions:
REMARK  status: ('A' for Active; 'I' for Inactive)
REMARK    1  A    between atoms: C_1  and  C_2
REMARK    2  A    between atoms: C_2  and  C_3
REMARK    3  A    between atoms: C_2  and  N_4
REMARK    4  A    between atoms: C_10  and  N_15
REMARK    5  A    between atoms: C_11  and  C_12
REMARK    6  A    between atoms: C_16  and  C_18
REMARK    7  A    between atoms: C_18  and  O_19
REMARK    8  A    between atoms: O_19  and  C_20
REMARK                            x       y       z     vdW  Elec       q    Type
REMARK                         _______ _______ _______ _____ _____    ______ ____
ROOT
ATOM      1  N   UNL     1       0.639  -0.222  -1.304  0.00  0.00    +0.384 N 
ATOM      2  C   UNL     1       0.580  -1.649  -1.645  0.00  0.00    -0.073 C 
ATOM      3  C   UNL     1       0.948  -1.856  -3.118  0.00  0.00    +0.018 C 
ATOM      4  C   UNL     1       2.274  -1.153  -3.371  0.00  0.00    -0.027 A 
ATOM      5  C   UNL     1       2.731  -0.228  -2.497  0.00  0.00    -0.021 A 
ATOM      6  S   UNL     1       4.270   0.309  -3.178  0.00  0.00    -0.079 S 
ATOM      7  C   UNL     1       4.318  -0.641  -4.562  0.00  0.00    +0.084 A 
ATOM      8  C   UNL     1       3.145  -1.381  -4.507  0.00  0.00    +0.068 A 
ATOM      9  C   UNL     1       2.046   0.215  -1.242  0.00  0.00    -0.035 C 
ATOM     10  H   UNL     1       0.152   0.312  -2.008  0.00  0.00    -0.081 HD
ENDROOT
BRANCH   8  11
ATOM     11  C   UNL     1       2.802  -2.349  -5.553  0.00  0.00    +0.244 C 
ATOM     12  O   UNL     1       2.157  -1.995  -6.522  0.00  0.00    -0.270 OA
ATOM     13  N   UNL     1       3.199  -3.632  -5.439  0.00  0.00    -0.325 N 
ATOM     14  H   UNL     1       3.713  -3.914  -4.666  0.00  0.00    +0.145 HD
ATOM     15  H   UNL     1       2.972  -4.273  -6.131  0.00  0.00    +0.145 HD
ENDBRANCH   8  11
BRANCH   7  16
ATOM     16  N   UNL     1       5.303  -0.679  -5.537  0.00  0.00    -0.277 N 
ATOM     17  C   UNL     1       6.387   0.116  -5.430  0.00  0.00    +0.255 C 
ATOM     18  O   UNL     1       6.500   0.863  -4.482  0.00  0.00    -0.272 OA
ATOM     19  H   UNL     1       5.213  -1.276  -6.296  0.00  0.00    +0.155 HD
BRANCH  17  20
ATOM     20  C   UNL     1       7.458   0.075  -6.490  0.00  0.00    +0.324 C 
BRANCH  20  21
ATOM     21  O   UNL     1       8.495   1.000  -6.155  0.00  0.00    -0.483 OA
BRANCH  21  22
ATOM     22  C   UNL     1       9.544   1.088  -7.013  0.00  0.00    +0.122 A 
ATOM     23  C   UNL     1       9.563   0.293  -8.164  0.00  0.00    +0.046 A 
ATOM     24  C   UNL     1      10.600   0.359  -9.041  0.00  0.00    +0.012 A 
ATOM     25  C   UNL     1      11.669   1.237  -8.793  0.00  0.00    -0.018 A 
ATOM     26  C   UNL     1      12.756   1.330  -9.679  0.00  0.00    +0.008 A 
ATOM     27  C   UNL     1      13.774   2.191  -9.408  0.00  0.00    +0.001 A 
ATOM     28  C   UNL     1      13.758   2.985  -8.263  0.00  0.00    +0.001 A 
ATOM     29  C   UNL     1      12.722   2.921  -7.382  0.00  0.00    +0.008 A 
ATOM     30  C   UNL     1      11.652   2.044  -7.628  0.00  0.00    -0.014 A 
ATOM     31  C   UNL     1      10.564   1.956  -6.744  0.00  0.00    +0.054 A 
ENDBRANCH  21  22
ENDBRANCH  20  21
ENDBRANCH  17  20
ENDBRANCH   7  16
BRANCH   1  33
ATOM     32  C   UNL     1       0.156   1.464   0.406  0.00  0.00    -0.014 C 
ATOM     33  C   UNL     1       0.002  -0.004   0.002  0.00  0.00    -0.074 C 
ATOM     34  C   UNL     1      -1.484  -0.355  -0.091  0.00  0.00    -0.014 C 
ENDBRANCH   1  33
TORSDOF 6
