REMARK  Name = ZINC21284532
REMARK  6 active torsions:
REMARK  status: ('A' for Active; 'I' for Inactive)
REMARK    1  A    between atoms: C_1  and  C_2
REMARK    2  A    between atoms: C_8  and  N_10
REMARK    3  A    between atoms: C_14  and  C_16
REMARK    4  A    between atoms: C_16  and  N_17
REMARK    5  A    between atoms: C_20  and  C_24
REMARK    6  A    between atoms: C_20  and  C_25
REMARK                            x       y       z     vdW  Elec       q    Type
REMARK                         _______ _______ _______ _____ _____    ______ ____
ROOT
ATOM      1  C   UNL     1       2.013  -4.576   3.796  0.00  0.00    +0.214 C 
ENDROOT
BRANCH   1   2
ATOM      2  N   UNL     1       3.158  -5.053   4.575  0.00  0.00    -0.215 N 
ATOM      3  C   UNL     1       3.119  -5.313   5.896  0.00  0.00    +0.251 C 
ATOM      4  O   UNL     1       2.167  -5.199   6.638  0.00  0.00    -0.272 OA
ATOM      5  C   UNL     1       4.515  -5.776   6.264  0.00  0.00    +0.135 C 
ATOM      6  N   UNL     1       5.247  -5.718   4.987  0.00  0.00    -0.281 N 
ATOM      7  C   UNL     1       4.370  -5.290   4.061  0.00  0.00    +0.310 C 
ATOM      8  O   UNL     1       4.649  -5.132   2.888  0.00  0.00    -0.252 OA
ATOM      9  C   UNL     1       4.483  -7.209   6.801  0.00  0.00    +0.047 C 
ATOM     10  H   UNL     1       6.309  -6.001   4.948  0.00  0.00    +0.152 HD
BRANCH   5  11
ATOM     11  C   UNL     1       5.135  -4.844   7.273  0.00  0.00    -0.015 A 
ATOM     12  C   UNL     1       4.332  -4.163   8.169  0.00  0.00    +0.007 A 
ATOM     13  C   UNL     1       4.900  -3.312   9.099  0.00  0.00    +0.020 A 
ATOM     14  C   UNL     1       6.271  -3.134   9.125  0.00  0.00    +0.041 A 
ATOM     15  C   UNL     1       7.074  -3.811   8.224  0.00  0.00    +0.020 A 
ATOM     16  C   UNL     1       6.505  -4.666   7.299  0.00  0.00    +0.007 A 
ATOM     17 CL   UNL     1       6.985  -2.060  10.288  0.00  0.00    -0.084 Cl
ENDBRANCH   5  11
ENDBRANCH   1   2
BRANCH   1  22
ATOM     18  N   UNL     1       0.031  -0.392   2.498  0.00  0.00    -0.296 N 
ATOM     19  C   UNL     1       1.002  -1.057   3.155  0.00  0.00    +0.306 C 
ATOM     20  O   UNL     1       1.862  -0.441   3.754  0.00  0.00    -0.252 OA
ATOM     21  N   UNL     1       1.021  -2.405   3.147  0.00  0.00    -0.239 N 
ATOM     22  C   UNL     1       1.992  -3.069   3.804  0.00  0.00    +0.238 C 
ATOM     23  O   UNL     1       2.850  -2.454   4.402  0.00  0.00    -0.274 OA
ATOM     24  H   UNL     1      -0.747  -0.950   1.956  0.00  0.00    +0.151 HD
ATOM     25  H   UNL     1       0.243  -2.962   2.605  0.00  0.00    +0.159 HD
BRANCH  18  32
ATOM     26  C   UNL     1      -0.013   1.086   0.008  0.00  0.00    +0.009 C 
ATOM     27  C   UNL     1      -0.729   1.579   1.267  0.00  0.00    +0.006 C 
ATOM     28  C   UNL     1      -2.164   1.050   1.278  0.00  0.00    +0.005 C 
ATOM     29  C   UNL     1      -2.880   1.543   2.537  0.00  0.00    +0.000 C 
ATOM     30  C   UNL     1      -2.140   1.036   3.776  0.00  0.00    +0.002 C 
ATOM     31  C   UNL     1      -0.705   1.566   3.765  0.00  0.00    +0.022 C 
ATOM     32  C   UNL     1       0.011   1.072   2.506  0.00  0.00    +0.077 C 
ENDBRANCH  18  32
ENDBRANCH   1  22
TORSDOF 4
