REMARK  Name = ZINC14120851
REMARK  6 active torsions:
REMARK  status: ('A' for Active; 'I' for Inactive)
REMARK    1  A    between atoms: C_1  and  C_2
REMARK    2  A    between atoms: C_2  and  C_4
REMARK    3  A    between atoms: C_2  and  S_19
REMARK    4  A    between atoms: C_16  and  C_17
REMARK    5  A    between atoms: C_16  and  C_18
REMARK    6  A    between atoms: S_19  and  C_20
REMARK                            x       y       z     vdW  Elec       q    Type
REMARK                         _______ _______ _______ _____ _____    ______ ____
ROOT
ATOM      1  C   UNL     1      -1.238  -1.129  -0.057  0.00  0.00    +0.234 C 
ATOM      2  O   UNL     1      -1.651  -1.197   1.081  0.00  0.00    -0.274 OA
ATOM      3  N   UNL     1      -2.105  -1.104  -1.088  0.00  0.00    -0.255 N 
ATOM      4  C   UNL     1      -1.652  -1.031  -2.414  0.00  0.00    +0.059 A 
ATOM      5  C   UNL     1      -0.459  -0.404  -2.728  0.00  0.00    +0.025 A 
ATOM      6  C   UNL     1      -0.041  -0.344  -4.045  0.00  0.00    +0.002 A 
ATOM      7  C   UNL     1      -0.812  -0.908  -5.046  0.00  0.00    +0.002 A 
ATOM      8  C   UNL     1      -2.005  -1.536  -4.739  0.00  0.00    +0.025 A 
ATOM      9  C   UNL     1      -2.430  -1.603  -3.422  0.00  0.00    +0.055 A 
ATOM     10  N   UNL     1      -3.628  -2.245  -3.088  0.00  0.00    -0.282 N 
ATOM     11  C   UNL     1      -4.183  -2.078  -1.873  0.00  0.00    +0.241 C 
ATOM     12  O   UNL     1      -5.198  -2.679  -1.590  0.00  0.00    -0.273 OA
ATOM     13  C   UNL     1      -3.557  -1.160  -0.860  0.00  0.00    +0.113 C 
ATOM     14  C   UNL     1      -3.834  -1.689   0.549  0.00  0.00    +0.042 C 
ATOM     15  C   UNL     1      -4.152   0.242  -1.009  0.00  0.00    +0.042 C 
ATOM     16  H   UNL     1      -4.064  -2.816  -3.740  0.00  0.00    +0.155 HD
ENDROOT
BRANCH   1  18
ATOM     17  C   UNL     1       0.745   0.359  -0.117  0.00  0.00    +0.029 C 
ATOM     18  C   UNL     1       0.245  -1.073  -0.319  0.00  0.00    +0.137 C 
BRANCH  18  19
ATOM     19  S   UNL     1       1.105  -2.180   0.832  0.00  0.00    -0.072 S 
BRANCH  19  20
ATOM     20  C   UNL     1       2.786  -2.117   0.309  0.00  0.00    +0.211 A 
ATOM     21  N   UNL     1       3.247  -1.404  -0.690  0.00  0.00    -0.144 NA
ATOM     22  H   UNL     1       5.253  -1.259  -1.397  0.00  0.00    +0.192 HD
ATOM     23  N   UNL     1       4.629  -1.643  -0.760  0.00  0.00    -0.246 N 
ATOM     24  C   UNL     1       4.918  -2.510   0.232  0.00  0.00    +0.209 A 
ATOM     25  N   UNL     1       3.801  -2.784   0.871  0.00  0.00    -0.188 NA
ATOM     26  N   UNL     1       6.170  -3.019   0.528  0.00  0.00    -0.328 N 
ATOM     27  H   UNL     1       6.939  -2.754  -0.001  0.00  0.00    +0.145 HD
ATOM     28  H   UNL     1       6.279  -3.640   1.264  0.00  0.00    +0.145 HD
ENDBRANCH  19  20
ENDBRANCH  18  19
ENDBRANCH   1  18
TORSDOF 3
