REMARK  Name = ZINC24945331
REMARK  2 active torsions:
REMARK  status: ('A' for Active; 'I' for Inactive)
REMARK    1  A    between atoms: C_7  and  C_13
REMARK    2  A    between atoms: N_15  and  C_16
REMARK                            x       y       z     vdW  Elec       q    Type
REMARK                         _______ _______ _______ _____ _____    ______ ____
ROOT
ATOM      1  C   UNL     1      -1.261  -0.769   0.016  0.00  0.00    +0.269 C 
ATOM      2  O   UNL     1      -1.236  -1.984   0.005  0.00  0.00    -0.268 OA
ATOM      3  N   UNL     1      -2.441  -0.118   0.026  0.00  0.00    -0.279 N 
ATOM      4  H   UNL     1      -2.465   0.978   0.110  0.00  0.00    +0.155 HD
ENDROOT
BRANCH   1  11
ATOM      5  C   UNL     1       2.651  -2.676  -0.014  0.00  0.00    +0.001 A 
ATOM      6  C   UNL     1       3.800  -1.897  -0.011  0.00  0.00    +0.001 A 
ATOM      7  C   UNL     1       3.718  -0.520   0.002  0.00  0.00    +0.014 A 
ATOM      8  C   UNL     1       2.467   0.088   0.012  0.00  0.00    +0.050 A 
ATOM      9  C   UNL     1       1.296  -0.706   0.008  0.00  0.00    +0.020 A 
ATOM     10  C   UNL     1       1.402  -2.093  -0.005  0.00  0.00    +0.011 A 
ATOM     11  C   UNL     1       0.002  -0.005   0.018  0.00  0.00    +0.154 A 
ATOM     12  N   UNL     1      -0.015   1.306   0.030  0.00  0.00    -0.166 NA
ATOM     13  N   UNL     1       1.033   2.040   0.034  0.00  0.00    -0.242 N 
ATOM     14  H   UNL     1       0.937   3.136   0.044  0.00  0.00    +0.192 HD
ATOM     15  C   UNL     1       2.288   1.546   0.025  0.00  0.00    +0.272 A 
ATOM     16  O   UNL     1       3.251   2.292   0.029  0.00  0.00    -0.266 OA
ENDBRANCH   1  11
BRANCH   3  17
ATOM     17  C   UNL     1      -3.638  -0.839  -0.072  0.00  0.00    +0.051 A 
ATOM     18  C   UNL     1      -3.744  -2.093   0.514  0.00  0.00    +0.073 A 
ATOM     19  C   UNL     1      -4.931  -2.803   0.422  0.00  0.00    +0.164 A 
ATOM     20  C   UNL     1      -6.011  -2.262  -0.266  0.00  0.00    +0.163 A 
ATOM     21  C   UNL     1      -5.901  -1.012  -0.855  0.00  0.00    +0.066 A 
ATOM     22  C   UNL     1      -4.719  -0.301  -0.760  0.00  0.00    +0.043 A 
ATOM     23 BR   UNL     1      -4.573   1.403  -1.567  0.00  0.00    -0.048 Br
ATOM     24  O   UNL     1      -7.185  -2.946  -0.367  0.00  0.00    -0.485 OA
ATOM     25  C   UNL     1      -7.139  -4.349  -0.085  0.00  0.00    +0.270 C 
ATOM     26  C   UNL     1      -6.337  -4.553   1.207  0.00  0.00    +0.270 C 
ATOM     27  O   UNL     1      -5.019  -4.031   1.003  0.00  0.00    -0.485 OA
ENDBRANCH   3  17
TORSDOF 2
