REMARK  Name = ZINC22066316
REMARK  10 active torsions:
REMARK  status: ('A' for Active; 'I' for Inactive)
REMARK    1  A    between atoms: C_3  and  O_34
REMARK    2  A    between atoms: C_6  and  C_7
REMARK    3  A    between atoms: C_8  and  C_9
REMARK    4  A    between atoms: C_11  and  O_33
REMARK    5  A    between atoms: C_13  and  O_15
REMARK    6  A    between atoms: O_15  and  C_16
REMARK    7  A    between atoms: C_18  and  O_32
REMARK    8  A    between atoms: C_20  and  O_31
REMARK    9  A    between atoms: C_22  and  O_30
REMARK   10  A    between atoms: C_24  and  C_27
REMARK                            x       y       z     vdW  Elec       q    Type
REMARK                         _______ _______ _______ _____ _____    ______ ____
ROOT
ATOM      1  C   UNL     1      -7.046   1.601  -2.353  0.00  0.00    -0.018 A 
ATOM      2  C   UNL     1      -6.503   2.493  -3.282  0.00  0.00    +0.053 A 
ATOM      3  C   UNL     1      -5.193   2.918  -3.146  0.00  0.00    +0.121 A 
ATOM      4  C   UNL     1      -4.421   2.464  -2.086  0.00  0.00    +0.091 A 
ATOM      5  C   UNL     1      -4.954   1.574  -1.164  0.00  0.00    +0.128 A 
ATOM      6  C   UNL     1      -6.263   1.143  -1.291  0.00  0.00    +0.054 A 
ENDROOT
BRANCH   1   8
ATOM      7  C   UNL     1      -9.192   1.588  -3.515  0.00  0.00    +0.008 C 
ATOM      8  C   UNL     1      -8.441   1.146  -2.494  0.00  0.00    +0.009 C 
BRANCH   7  14
ATOM      9  C   UNL     1     -11.128   0.237  -2.729  0.00  0.00    +0.011 A 
ATOM     10  C   UNL     1     -12.434  -0.182  -2.862  0.00  0.00    +0.046 A 
ATOM     11  C   UNL     1     -13.209   0.276  -3.920  0.00  0.00    +0.117 A 
ATOM     12  C   UNL     1     -12.673   1.163  -4.846  0.00  0.00    +0.046 A 
ATOM     13  C   UNL     1     -11.370   1.591  -4.718  0.00  0.00    +0.011 A 
ATOM     14  C   UNL     1     -10.586   1.133  -3.656  0.00  0.00    -0.025 A 
BRANCH  11  15
ATOM     15  O   UNL     1     -14.494  -0.144  -4.049  0.00  0.00    -0.507 OA
ATOM     16  H   UNL     1     -15.110   0.218  -4.886  0.00  0.00    +0.292 HD
ENDBRANCH  11  15
ENDBRANCH   7  14
ENDBRANCH   1   8
BRANCH   3  17
ATOM     17  O   UNL     1      -4.663   3.785  -4.048  0.00  0.00    -0.507 OA
ATOM     18  H   UNL     1      -3.622   4.123  -3.941  0.00  0.00    +0.292 HD
ENDBRANCH   3  17
BRANCH   5  19
ATOM     19  O   UNL     1      -4.191   1.130  -0.130  0.00  0.00    -0.461 OA
BRANCH  19  20
ATOM     20  C   UNL     1      -2.849   1.615  -0.059  0.00  0.00    +0.340 C 
ATOM     21  C   UNL     1      -2.190   1.107   1.226  0.00  0.00    +0.214 C 
ATOM     22  C   UNL     1      -0.732   1.581   1.266  0.00  0.00    +0.180 C 
ATOM     23  C   UNL     1      -0.013   1.086   0.008  0.00  0.00    +0.186 C 
ATOM     24  C   UNL     1      -0.756   1.594  -1.230  0.00  0.00    +0.266 C 
ATOM     25  O   UNL     1      -2.111   1.144  -1.189  0.00  0.00    -0.322 OA
BRANCH  24  26
ATOM     26  C   UNL     1      -0.086   1.062  -2.471  0.00  0.00    +0.387 C 
ATOM     27  O   UNL     1      -0.678   0.297  -3.196  0.00  0.00    -0.243 OA
ATOM     28  O   UNL     1       1.166   1.439  -2.772  0.00  0.00    -0.243 OA
ENDBRANCH  24  26
BRANCH  23  29
ATOM     29  O   UNL     1       1.327   1.582  -0.002  0.00  0.00    -0.386 OA
ATOM     30  H   UNL     1       2.001   1.328  -0.834  0.00  0.00    +0.210 HD
ENDBRANCH  23  29
BRANCH  22  31
ATOM     31  O   UNL     1      -0.087   1.051   2.426  0.00  0.00    -0.386 OA
ATOM     32  H   UNL     1       0.969   1.285   2.623  0.00  0.00    +0.210 HD
ENDBRANCH  22  31
BRANCH  21  33
ATOM     33  O   UNL     1      -2.229  -0.321   1.251  0.00  0.00    -0.383 OA
ATOM     34  H   UNL     1      -1.800  -0.868   2.103  0.00  0.00    +0.210 HD
ENDBRANCH  21  33
ENDBRANCH  19  20
ENDBRANCH   5  19
TORSDOF 10
