REMARK  Name = ZINC66129660
REMARK  5 active torsions:
REMARK  status: ('A' for Active; 'I' for Inactive)
REMARK    1  A    between atoms: C_1  and  C_2
REMARK    2  A    between atoms: C_2  and  C_3
REMARK    3  A    between atoms: C_3  and  C_4
REMARK    4  A    between atoms: C_4  and  N_5
REMARK    5  A    between atoms: C_6  and  C_17
REMARK                            x       y       z     vdW  Elec       q    Type
REMARK                         _______ _______ _______ _____ _____    ______ ____
ROOT
ATOM      1  N   UNL     1       1.425  -2.500  -2.470  0.00  0.00    -0.275 N 
ATOM      2  C   UNL     1       0.652  -2.737  -3.690  0.00  0.00    +0.195 C 
ATOM      3  N   UNL     1       1.479  -2.479  -4.875  0.00  0.00    -0.321 N 
ATOM      4  C   UNL     1       2.780  -2.970  -4.896  0.00  0.00    +0.041 A 
ATOM      5  C   UNL     1       3.410  -3.323  -6.077  0.00  0.00    +0.024 A 
ATOM      6  C   UNL     1       4.704  -3.808  -6.042  0.00  0.00    +0.002 A 
ATOM      7  C   UNL     1       5.373  -3.945  -4.836  0.00  0.00    +0.001 A 
ATOM      8  C   UNL     1       4.759  -3.596  -3.651  0.00  0.00    +0.015 A 
ATOM      9  C   UNL     1       3.457  -3.104  -3.671  0.00  0.00    +0.058 A 
ATOM     10  C   UNL     1       2.758  -2.703  -2.437  0.00  0.00    +0.250 C 
ATOM     11  O   UNL     1       3.376  -2.560  -1.400  0.00  0.00    -0.270 OA
ATOM     12  H   UNL     1       1.126  -1.977  -5.626  0.00  0.00    +0.148 HD
ENDROOT
BRANCH   2  13
ATOM     13  C   UNL     1       0.185  -4.170  -3.713  0.00  0.00    +0.016 A 
ATOM     14  C   UNL     1      -0.008  -4.965  -2.649  0.00  0.00    +0.090 A 
ATOM     15  N   UNL     1      -0.434  -6.199  -3.059  0.00  0.00    -0.360 N 
ATOM     16  H   UNL     1      -0.639  -6.941  -2.470  0.00  0.00    +0.165 HD
ATOM     17  C   UNL     1      -0.527  -6.229  -4.432  0.00  0.00    +0.047 A 
ATOM     18  C   UNL     1      -0.149  -4.958  -4.902  0.00  0.00    +0.006 A 
ATOM     19  C   UNL     1      -0.154  -4.692  -6.273  0.00  0.00    +0.010 A 
ATOM     20  C   UNL     1      -0.529  -5.669  -7.152  0.00  0.00    +0.001 A 
ATOM     21  C   UNL     1      -0.906  -6.923  -6.693  0.00  0.00    +0.002 A 
ATOM     22  C   UNL     1      -0.900  -7.210  -5.345  0.00  0.00    +0.026 A 
ENDBRANCH   2  13
BRANCH   1  23
ATOM     23  C   UNL     1       0.739  -2.027  -1.265  0.00  0.00    +0.110 C 
BRANCH  23  24
ATOM     24  C   UNL     1       0.718  -0.497  -1.257  0.00  0.00    +0.019 C 
BRANCH  24  26
ATOM     25  C   UNL     1      -0.019   1.526   0.010  0.00  0.00    +0.004 C 
ATOM     26  C   UNL     1       0.002  -0.004   0.002  0.00  0.00    -0.002 C 
ENDBRANCH  24  26
ENDBRANCH  23  24
ENDBRANCH   1  23
TORSDOF 4
