REMARK  Name = ZINC00822990
REMARK  10 active torsions:
REMARK  status: ('A' for Active; 'I' for Inactive)
REMARK    1  A    between atoms: C_1  and  C_2
REMARK    2  A    between atoms: C_7  and  C_15
REMARK    3  A    between atoms: C_9  and  C_13
REMARK    4  A    between atoms: C_10  and  N_12
REMARK    5  A    between atoms: C_18  and  O_25
REMARK    6  A    between atoms: C_19  and  O_23
REMARK    7  A    between atoms: C_20  and  O_21
REMARK    8  A    between atoms: O_21  and  C_22
REMARK    9  A    between atoms: O_23  and  C_24
REMARK   10  A    between atoms: O_25  and  C_26
REMARK                            x       y       z     vdW  Elec       q    Type
REMARK                         _______ _______ _______ _____ _____    ______ ____
ROOT
ATOM      1  C   UNL     1      -0.019   1.526   0.010  0.00  0.00    +0.008 C 
ATOM      2  C   UNL     1       0.002  -0.004   0.002  0.00  0.00    +0.001 C 
ATOM      3  C   UNL     1      -1.432  -0.538   0.023  0.00  0.00    +0.078 C 
ATOM      4  C   UNL     1      -1.411  -2.048   0.057  0.00  0.00    +0.115 C 
ATOM      5  C   UNL     1      -0.407  -2.708   0.663  0.00  0.00    +0.046 C 
ATOM      6  C   UNL     1      -0.394  -4.217   0.703  0.00  0.00    +0.105 C 
ATOM      7  C   UNL     1      -1.764  -4.758   0.408  0.00  0.00    +0.098 C 
ATOM      8  C   UNL     1      -2.697  -3.979  -0.191  0.00  0.00    +0.198 C 
ATOM      9  O   UNL     1      -2.423  -2.709  -0.536  0.00  0.00    -0.445 OA
ATOM     10  C   UNL     1       0.659  -2.019   1.272  0.00  0.00    +0.164 C 
ATOM     11  O   UNL     1       1.538  -2.649   1.826  0.00  0.00    -0.292 OA
ATOM     12  C   UNL     1       0.734  -0.516   1.247  0.00  0.00    +0.083 C 
ENDROOT
BRANCH   6  13
ATOM     13  C   UNL     1       0.576  -4.735  -0.328  0.00  0.00    +0.011 A 
ATOM     14  C   UNL     1       0.391  -4.430  -1.664  0.00  0.00    +0.012 A 
ATOM     15  C   UNL     1       1.278  -4.902  -2.613  0.00  0.00    +0.050 A 
ATOM     16  C   UNL     1       2.357  -5.684  -2.229  0.00  0.00    +0.165 A 
ATOM     17  C   UNL     1       2.546  -5.992  -0.887  0.00  0.00    +0.204 A 
ATOM     18  C   UNL     1       1.655  -5.511   0.065  0.00  0.00    +0.169 A 
BRANCH  18  19
ATOM     19  O   UNL     1       1.839  -5.805   1.380  0.00  0.00    -0.491 OA
ATOM     20  C   UNL     1       1.221  -6.997   1.871  0.00  0.00    +0.277 C 
ENDBRANCH  18  19
BRANCH  17  21
ATOM     21  O   UNL     1       3.604  -6.759  -0.506  0.00  0.00    -0.488 OA
ATOM     22  C   UNL     1       4.817  -6.077  -0.184  0.00  0.00    +0.277 C 
ENDBRANCH  17  21
BRANCH  16  23
ATOM     23  O   UNL     1       3.228  -6.149  -3.164  0.00  0.00    -0.491 OA
ATOM     24  C   UNL     1       2.971  -5.794  -4.524  0.00  0.00    +0.277 C 
ENDBRANCH  16  23
ENDBRANCH   6  13
BRANCH   8  25
ATOM     25  N   UNL     1      -3.943  -4.494  -0.450  0.00  0.00    -0.328 N 
ATOM     26  H   UNL     1      -4.150  -5.410  -0.204  0.00  0.00    +0.145 HD
ATOM     27  H   UNL     1      -4.617  -3.943  -0.878  0.00  0.00    +0.145 HD
ENDBRANCH   8  25
BRANCH   7  28
ATOM     28  C   UNL     1      -2.087  -6.108   0.762  0.00  0.00    +0.101 C 
ATOM     29  N   UNL     1      -2.343  -7.178   1.043  0.00  0.00    -0.191 NA
ENDBRANCH   7  28
TORSDOF 6
