REMARK  Name = ZINC23915054
REMARK  11 active torsions:
REMARK  status: ('A' for Active; 'I' for Inactive)
REMARK    1  A    between atoms: C_1  and  C_2
REMARK    2  A    between atoms: C_5  and  S_8
REMARK    3  A    between atoms: S_8  and  N_11
REMARK    4  A    between atoms: N_11  and  C_12
REMARK    5  A    between atoms: C_12  and  C_14
REMARK    6  A    between atoms: C_12  and  C_18
REMARK    7  A    between atoms: C_14  and  C_15
REMARK    8  A    between atoms: C_15  and  C_16
REMARK    9  A    between atoms: C_15  and  C_17
REMARK   10  A    between atoms: N_20  and  N_21
REMARK   11  A    between atoms: C_22  and  C_24
REMARK                            x       y       z     vdW  Elec       q    Type
REMARK                         _______ _______ _______ _____ _____    ______ ____
ROOT
ATOM      1  C   UNL     1      -0.615   1.521  -1.297  0.00  0.00    +0.164 C 
ENDROOT
BRANCH   1   2
ATOM      2  C   UNL     1       0.207   1.330  -2.546  0.00  0.00    +0.248 C 
ATOM      3  O   UNL     1      -0.294   0.829  -3.531  0.00  0.00    -0.273 OA
ATOM      4  N   UNL     1       1.498   1.715  -2.569  0.00  0.00    -0.233 N 
ATOM      5  H   UNL     1       1.973   2.101  -1.655  0.00  0.00    +0.173 HD
BRANCH   4   6
ATOM      6  N   UNL     1       2.236   1.624  -3.757  0.00  0.00    -0.229 N 
ATOM      7  C   UNL     1       3.527   2.009  -3.780  0.00  0.00    +0.276 C 
ATOM      8  O   UNL     1       4.052   2.436  -2.769  0.00  0.00    -0.267 OA
ATOM      9  H   UNL     1       1.760   1.237  -4.671  0.00  0.00    +0.173 HD
BRANCH   7  10
ATOM     10  C   UNL     1       4.299   1.913  -5.023  0.00  0.00    +0.104 A 
ATOM     11  C   UNL     1       5.619   2.274  -5.193  0.00  0.00    +0.047 A 
ATOM     12  C   UNL     1       5.948   2.014  -6.527  0.00  0.00    +0.036 A 
ATOM     13  C   UNL     1       4.845   1.518  -7.138  0.00  0.00    +0.098 A 
ATOM     14  N   UNL     1       3.836   1.452  -6.234  0.00  0.00    -0.356 N 
ATOM     15  H   UNL     1       2.795   1.110  -6.332  0.00  0.00    +0.166 HD
ATOM     16 BR   UNL     1       7.631   2.309  -7.337  0.00  0.00    -0.049 Br
ENDBRANCH   7  10
ENDBRANCH   4   6
ENDBRANCH   1   2
BRANCH   1  17
ATOM     17  N   UNL     1      -2.033   1.339  -1.613  0.00  0.00    -0.178 NA
ATOM     18  H   UNL     1      -2.331   0.715  -2.469  0.00  0.00    +0.149 HD
BRANCH  17  19
ATOM     19  S   UNL     1      -3.177   2.260  -0.847  0.00  0.00    +0.059 S 
ATOM     20  O   UNL     1      -4.436   1.870  -1.380  0.00  0.00    -0.153 OA
ATOM     21  O   UNL     1      -2.886   2.196   0.542  0.00  0.00    -0.153 OA
BRANCH  19  26
ATOM     22  C   UNL     1      -2.285   7.983  -2.537  0.00  0.00    +0.044 C 
ATOM     23  C   UNL     1      -2.508   6.553  -2.115  0.00  0.00    -0.050 A 
ATOM     24  C   UNL     1      -3.355   5.741  -2.845  0.00  0.00    +0.005 A 
ATOM     25  C   UNL     1      -3.559   4.430  -2.458  0.00  0.00    +0.029 A 
ATOM     26  C   UNL     1      -2.917   3.931  -1.341  0.00  0.00    +0.105 A 
ATOM     27  C   UNL     1      -2.074   4.745  -0.607  0.00  0.00    +0.029 A 
ATOM     28  C   UNL     1      -1.866   6.055  -0.997  0.00  0.00    +0.005 A 
ENDBRANCH  19  26
ENDBRANCH  17  19
ENDBRANCH   1  17
BRANCH   1  29
ATOM     29  C   UNL     1      -0.190   0.494  -0.245  0.00  0.00    +0.033 C 
BRANCH  29  30
ATOM     30  C   UNL     1       1.250   0.774   0.189  0.00  0.00    -0.015 C 
ATOM     31  C   UNL     1       1.307   2.106   0.940  0.00  0.00    +0.007 C 
ATOM     32  C   UNL     1       1.734  -0.350   1.107  0.00  0.00    +0.007 C 
ENDBRANCH  29  30
ENDBRANCH   1  29
TORSDOF 8
