REMARK  Name = ZINC37730330
REMARK  5 active torsions:
REMARK  status: ('A' for Active; 'I' for Inactive)
REMARK    1  A    between atoms: C_1  and  C_2
REMARK    2  A    between atoms: C_3  and  S_8
REMARK    3  A    between atoms: S_8  and  N_11
REMARK    4  A    between atoms: N_11  and  C_12
REMARK    5  A    between atoms: C_17  and  N_18
REMARK                            x       y       z     vdW  Elec       q    Type
REMARK                         _______ _______ _______ _____ _____    ______ ____
ROOT
ATOM      1  C   UNL     1      -1.777   2.040  -2.739  0.00  0.00    +0.072 A 
ATOM      2  C   UNL     1      -0.715   2.898  -2.499  0.00  0.00    +0.075 A 
ATOM      3  C   UNL     1      -0.951   4.192  -2.059  0.00  0.00    +0.164 A 
ATOM      4  C   UNL     1      -2.254   4.631  -1.861  0.00  0.00    +0.164 A 
ATOM      5  C   UNL     1      -3.318   3.774  -2.100  0.00  0.00    +0.074 A 
ATOM      6  C   UNL     1      -3.084   2.482  -2.544  0.00  0.00    +0.051 A 
ATOM      7  O   UNL     1      -2.504   5.902  -1.438  0.00  0.00    -0.485 OA
ATOM      8  C   UNL     1      -1.408   6.613  -0.852  0.00  0.00    +0.270 C 
ATOM      9  C   UNL     1      -0.177   6.420  -1.748  0.00  0.00    +0.270 C 
ATOM     10  O   UNL     1       0.106   5.019  -1.825  0.00  0.00    -0.485 OA
ENDROOT
BRANCH   6  11
ATOM     11  N   UNL     1      -4.161   1.618  -2.790  0.00  0.00    -0.356 N 
ATOM     12  H   UNL     1      -3.997   0.713  -3.097  0.00  0.00    +0.142 HD
ATOM     13  H   UNL     1      -5.071   1.926  -2.654  0.00  0.00    +0.142 HD
ENDBRANCH   6  11
BRANCH   1  14
ATOM     14  N   UNL     1      -1.537   0.732  -3.184  0.00  0.00    -0.214 N 
ATOM     15  H   UNL     1      -2.148   0.312  -3.809  0.00  0.00    +0.174 HD
BRANCH  14  16
ATOM     16  S   UNL     1      -0.209  -0.096  -2.642  0.00  0.00    +0.076 S 
ATOM     17  O   UNL     1      -0.266  -1.387  -3.235  0.00  0.00    -0.150 OA
ATOM     18  O   UNL     1      -0.157   0.095  -1.235  0.00  0.00    -0.150 OA
BRANCH  16  21
ATOM     19  C   UNL     1       0.725   0.246  -5.773  0.00  0.00    +0.067 C 
ATOM     20  C   UNL     1       1.526   0.801  -4.624  0.00  0.00    +0.060 A 
ATOM     21  C   UNL     1       1.212   0.703  -3.311  0.00  0.00    +0.148 A 
ATOM     22  C   UNL     1       2.214   1.348  -2.580  0.00  0.00    +0.163 A 
ATOM     23  N   UNL     1       3.099   1.817  -3.422  0.00  0.00    -0.180 NA
ATOM     24  N   UNL     1       2.689   1.479  -4.719  0.00  0.00    -0.280 N 
ATOM     25  H   UNL     1       3.157   1.697  -5.540  0.00  0.00    +0.189 HD
ENDBRANCH  16  21
ENDBRANCH  14  16
ENDBRANCH   1  14
TORSDOF 4
