REMARK  Name = ZINC00039675
REMARK  1 active torsions:
REMARK  status: ('A' for Active; 'I' for Inactive)
REMARK    1  A    between atoms: C_6  and  N_7
REMARK                            x       y       z     vdW  Elec       q    Type
REMARK                         _______ _______ _______ _____ _____    ______ ____
ROOT
ATOM      1  N   UNL     1      -1.191   1.869   0.018  0.00  0.00    -0.269 N 
ATOM      2  C   UNL     1      -1.125   3.079   0.609  0.00  0.00    +0.311 C 
ATOM      3  O   UNL     1      -2.109   3.544   1.150  0.00  0.00    -0.252 OA
ATOM      4  N   UNL     1       0.032   3.769   0.606  0.00  0.00    -0.224 N 
ATOM      5  C   UNL     1       0.099   4.976   1.202  0.00  0.00    +0.305 C 
ATOM      6  O   UNL     1      -0.885   5.442   1.743  0.00  0.00    -0.253 OA
ATOM      7  N   UNL     1       1.256   5.666   1.198  0.00  0.00    -0.313 N 
ATOM      8  H   UNL     1      -0.426   1.527  -0.471  0.00  0.00    +0.156 HD
ATOM      9  H   UNL     1       0.817   3.397   0.174  0.00  0.00    +0.161 HD
ATOM     10  H   UNL     1       2.041   5.295   0.766  0.00  0.00    +0.146 HD
ATOM     11  H   UNL     1       1.304   6.535   1.627  0.00  0.00    +0.146 HD
ENDROOT
BRANCH   1  17
ATOM     12  C   UNL     1      -2.286  -0.277   0.192  0.00  0.00    +0.024 A 
ATOM     13  C   UNL     1      -3.442  -1.025   0.288  0.00  0.00    +0.016 A 
ATOM     14  C   UNL     1      -4.675  -0.399   0.291  0.00  0.00    +0.013 A 
ATOM     15  C   UNL     1      -4.754   0.980   0.204  0.00  0.00    +0.016 A 
ATOM     16  C   UNL     1      -3.600   1.734   0.113  0.00  0.00    +0.024 A 
ATOM     17  C   UNL     1      -2.361   1.107   0.110  0.00  0.00    +0.035 A 
ATOM     18  I   UNL     1      -6.428  -1.539   0.428  0.00  0.00    -0.044 I 
ENDBRANCH   1  17
TORSDOF 1
