REMARK  Name = ZINC14251832
REMARK  4 active torsions:
REMARK  status: ('A' for Active; 'I' for Inactive)
REMARK    1  A    between atoms: N_12  and  C_13
REMARK    2  A    between atoms: C_13  and  C_14
REMARK    3  A    between atoms: C_14  and  C_15
REMARK    4  A    between atoms: N_17  and  N_18
REMARK                            x       y       z     vdW  Elec       q    Type
REMARK                         _______ _______ _______ _____ _____    ______ ____
ROOT
ATOM      1  C   UNL     1      -1.576   2.734   1.152  0.00  0.00    +0.231 C 
ATOM      2  O   UNL     1      -0.915   2.621   2.163  0.00  0.00    -0.274 OA
ATOM      3  N   UNL     1      -1.186   2.116   0.019  0.00  0.00    -0.224 N 
ATOM      4  H   UNL     1      -1.714   2.207  -0.789  0.00  0.00    +0.174 HD
ENDROOT
BRANCH   3   5
ATOM      5  N   UNL     1      -0.016   1.345   0.009  0.00  0.00    -0.137 N 
ATOM      6  C   UNL     1       0.002  -0.004   0.002  0.00  0.00    +0.263 C 
ATOM      7  O   UNL     1      -0.953  -0.751   0.007  0.00  0.00    -0.271 OA
ATOM      8  C   UNL     1       1.464  -0.388  -0.014  0.00  0.00    +0.114 C 
ATOM      9  C   UNL     1       1.792  -1.178  -1.276  0.00  0.00    +0.035 C 
ATOM     10  C   UNL     1       3.281  -1.532  -1.287  0.00  0.00    +0.003 C 
ATOM     11  C   UNL     1       3.616  -2.361  -0.045  0.00  0.00    +0.000 C 
ATOM     12  C   UNL     1       3.305  -1.546   1.212  0.00  0.00    +0.003 C 
ATOM     13  C   UNL     1       1.816  -1.192   1.233  0.00  0.00    +0.035 C 
ATOM     14  N   UNL     1       2.171   0.899  -0.014  0.00  0.00    -0.284 N 
ATOM     15  C   UNL     1       1.222   1.855   0.000  0.00  0.00    +0.326 C 
ATOM     16  O   UNL     1       1.462   3.046   0.004  0.00  0.00    -0.251 OA
ATOM     17  H   UNL     1       3.131   1.035  -0.023  0.00  0.00    +0.151 HD
ENDBRANCH   3   5
BRANCH   1  18
ATOM     18  C   UNL     1      -2.834   3.564   1.163  0.00  0.00    +0.116 C 
BRANCH  18  19
ATOM     19  C   UNL     1      -3.047   4.149   2.560  0.00  0.00    +0.112 C 
BRANCH  19  31
ATOM     20  C   UNL     1      -7.911   7.477   2.982  0.00  0.00    +0.001 A 
ATOM     21  C   UNL     1      -8.124   8.017   4.238  0.00  0.00    +0.002 A 
ATOM     22  C   UNL     1      -7.222   7.749   5.258  0.00  0.00    +0.030 A 
ATOM     23  C   UNL     1      -6.138   6.959   5.010  0.00  0.00    +0.123 A 
ATOM     24  C   UNL     1      -5.893   6.403   3.747  0.00  0.00    +0.043 A 
ATOM     25  C   UNL     1      -6.818   6.679   2.729  0.00  0.00    +0.013 A 
ATOM     26  C   UNL     1      -4.669   5.586   3.729  0.00  0.00    +0.150 C 
ATOM     27  N   UNL     1      -3.969   5.471   4.812  0.00  0.00    -0.113 NA
ATOM     28  S   UNL     1      -4.773   6.369   5.973  0.00  0.00    +0.101 S 
ATOM     29  O   UNL     1      -5.285   5.464   6.942  0.00  0.00    -0.146 OA
ATOM     30  O   UNL     1      -3.957   7.486   6.299  0.00  0.00    -0.146 OA
ATOM     31  N   UNL     1      -4.270   4.955   2.571  0.00  0.00    -0.327 N 
ATOM     32  H   UNL     1      -4.798   5.045   1.762  0.00  0.00    +0.148 HD
ENDBRANCH  19  31
ENDBRANCH  18  19
ENDBRANCH   1  18
TORSDOF 4
