REMARK  Name = ZINC66846518
REMARK  6 active torsions:
REMARK  status: ('A' for Active; 'I' for Inactive)
REMARK    1  A    between atoms: C_1  and  C_2
REMARK    2  A    between atoms: C_2  and  C_4
REMARK    3  A    between atoms: C_2  and  N_14
REMARK    4  A    between atoms: N_10  and  C_11
REMARK    5  A    between atoms: N_10  and  C_12
REMARK    6  A    between atoms: C_18  and  C_21
REMARK                            x       y       z     vdW  Elec       q    Type
REMARK                         _______ _______ _______ _____ _____    ______ ____
ROOT
ATOM      1  C   UNL     1      -1.329  -0.744   0.147  0.00  0.00    +0.032 C 
ATOM      2  C   UNL     1       0.002  -0.004   0.002  0.00  0.00    +0.122 C 
ENDROOT
BRANCH   2   3
ATOM      3  C   UNL     1       0.643  -0.375  -1.310  0.00  0.00    +0.153 A 
ATOM      4  N   UNL     1       1.179  -1.573  -1.467  0.00  0.00    -0.198 NA
ATOM      5  C   UNL     1       1.746  -1.904  -2.624  0.00  0.00    +0.217 A 
ATOM      6  N   UNL     1       1.772  -1.030  -3.624  0.00  0.00    -0.181 NA
ATOM      7  C   UNL     1       1.231   0.173  -3.463  0.00  0.00    +0.222 A 
ATOM      8  N   UNL     1       0.662   0.496  -2.304  0.00  0.00    -0.198 NA
ATOM      9  N   UNL     1       1.255   1.085  -4.499  0.00  0.00    -0.306 N 
ATOM     10  C   UNL     1       1.877   0.728  -5.776  0.00  0.00    +0.132 C 
ATOM     11  C   UNL     1       0.659   2.412  -4.320  0.00  0.00    +0.132 C 
ATOM     12  N   UNL     1       2.307  -3.155  -2.786  0.00  0.00    -0.327 N 
ATOM     13  H   UNL     1       2.288  -3.793  -2.056  0.00  0.00    +0.145 HD
ATOM     14  H   UNL     1       2.719  -3.396  -3.630  0.00  0.00    +0.145 HD
ENDBRANCH   2   3
BRANCH   2  15
ATOM     15  N   UNL     1       0.894  -0.381   1.106  0.00  0.00    -0.288 NA
ATOM     16  C   UNL     1       0.302  -0.029   2.405  0.00  0.00    +0.113 C 
ATOM     17  C   UNL     1       1.236  -0.492   3.527  0.00  0.00    +0.176 C 
ATOM     18  O   UNL     1       2.525   0.098   3.342  0.00  0.00    -0.369 OA
ATOM     19  C   UNL     1       3.131  -0.224   2.088  0.00  0.00    +0.165 C 
ATOM     20  C   UNL     1       2.217   0.242   0.951  0.00  0.00    +0.121 C 
BRANCH  19  21
ATOM     21  C   UNL     1       4.464   0.471   1.979  0.00  0.00    +0.018 A 
ATOM     22  C   UNL     1       4.704   1.623   2.704  0.00  0.00    +0.009 A 
ATOM     23  C   UNL     1       5.926   2.261   2.606  0.00  0.00    +0.001 A 
ATOM     24  C   UNL     1       6.910   1.748   1.781  0.00  0.00    +0.003 A 
ATOM     25  C   UNL     1       6.673   0.596   1.056  0.00  0.00    +0.039 A 
ATOM     26  C   UNL     1       5.450  -0.047   1.158  0.00  0.00    +0.129 A 
ATOM     27  F   UNL     1       5.219  -1.176   0.453  0.00  0.00    -0.205 F 
ENDBRANCH  19  21
ENDBRANCH   2  15
TORSDOF 3
