REMARK  Name = ZINC37364024
REMARK  3 active torsions:
REMARK  status: ('A' for Active; 'I' for Inactive)
REMARK    1  A    between atoms: C_6  and  C_7
REMARK    2  A    between atoms: C_7  and  C_9
REMARK    3  A    between atoms: C_7  and  N_12
REMARK                            x       y       z     vdW  Elec       q    Type
REMARK                         _______ _______ _______ _____ _____    ______ ____
ROOT
ATOM      1  C   UNL     1      -1.291  -0.778   0.015  0.00  0.00    +0.078 C 
ENDROOT
BRANCH   1   7
ATOM      2  C   UNL     1      -0.017   1.378   0.010  0.00  0.00    +0.006 A 
ATOM      3  C   UNL     1       1.164   2.091   0.002  0.00  0.00    +0.046 A 
ATOM      4  C   UNL     1       2.386   1.424  -0.015  0.00  0.00    +0.124 A 
ATOM      5  C   UNL     1       2.392   0.035  -0.030  0.00  0.00    -0.002 A 
ATOM      6  C   UNL     1       1.212  -0.675  -0.018  0.00  0.00    +0.010 A 
ATOM      7  C   UNL     1       0.002  -0.004   0.002  0.00  0.00    -0.050 A 
ATOM      8  C   UNL     1       3.844  -0.403  -0.071  0.00  0.00    +0.080 C 
ATOM      9  C   UNL     1       4.562   0.907  -0.473  0.00  0.00    +0.234 C 
ATOM     10  O   UNL     1       3.653   1.923  -0.013  0.00  0.00    -0.491 OA
ENDBRANCH   1   7
BRANCH   1  11
ATOM     11  N   UNL     1      -2.244  -0.124   0.922  0.00  0.00    +0.391 N 
ATOM     12  C   UNL     1      -3.493  -0.921   1.014  0.00  0.00    -0.077 C 
ATOM     13  C   UNL     1      -4.113  -0.455   2.356  0.00  0.00    -0.020 C 
ATOM     14  C   UNL     1      -2.875  -0.268   3.262  0.00  0.00    -0.020 C 
ATOM     15  C   UNL     1      -1.693  -0.077   2.294  0.00  0.00    -0.077 C 
ATOM     16  H   UNL     1      -2.449   0.809   0.598  0.00  0.00    -0.080 HD
ENDBRANCH   1  11
BRANCH   1  17
ATOM     17  C   UNL     1      -1.868  -0.817  -1.376  0.00  0.00    +0.347 C 
ATOM     18  O   UNL     1      -1.322  -1.476  -2.244  0.00  0.00    -0.248 OA
ATOM     19  O   UNL     1      -2.880  -0.188  -1.635  0.00  0.00    -0.248 OA
ENDBRANCH   1  17
TORSDOF 3
