REMARK  Name = ZINC31934133
REMARK  4 active torsions:
REMARK  status: ('A' for Active; 'I' for Inactive)
REMARK    1  A    between atoms: C_3  and  C_10
REMARK    2  A    between atoms: C_5  and  C_7
REMARK    3  A    between atoms: C_7  and  N_9
REMARK    4  A    between atoms: C_10  and  N_11
REMARK                            x       y       z     vdW  Elec       q    Type
REMARK                         _______ _______ _______ _____ _____    ______ ____
ROOT
ATOM      1  N   UNL     1      -0.698   1.558   1.213  0.00  0.00    -0.326 N 
ATOM      2  C   UNL     1      -0.393   2.674   1.930  0.00  0.00    +0.200 A 
ATOM      3  N   UNL     1      -1.205   2.792   2.940  0.00  0.00    -0.236 NA
ATOM      4  C   UNL     1      -2.087   1.760   2.941  0.00  0.00    +0.093 A 
ATOM      5  C   UNL     1      -1.779   0.957   1.830  0.00  0.00    +0.073 A 
ATOM      6  C   UNL     1      -2.527  -0.182   1.569  0.00  0.00    +0.077 A 
ATOM      7  C   UNL     1      -3.579  -0.525   2.400  0.00  0.00    +0.164 A 
ATOM      8  C   UNL     1      -3.890   0.269   3.503  0.00  0.00    +0.164 A 
ATOM      9  C   UNL     1      -3.148   1.401   3.777  0.00  0.00    +0.079 A 
ATOM     10  O   UNL     1      -4.920  -0.063   4.331  0.00  0.00    -0.485 OA
ATOM     11  C   UNL     1      -5.877  -1.000   3.823  0.00  0.00    +0.270 C 
ATOM     12  C   UNL     1      -5.113  -2.166   3.182  0.00  0.00    +0.270 C 
ATOM     13  O   UNL     1      -4.304  -1.644   2.122  0.00  0.00    -0.485 OA
ENDROOT
BRANCH   1  14
ATOM     14  C   UNL     1      -0.013   1.086   0.008  0.00  0.00    +0.158 C 
BRANCH  14  17
ATOM     15  C   UNL     1      -2.429   1.276  -2.892  0.00  0.00    +0.001 A 
ATOM     16  C   UNL     1      -1.750   0.823  -1.774  0.00  0.00    +0.005 A 
ATOM     17  C   UNL     1      -0.742   1.585  -1.213  0.00  0.00    -0.027 A 
ATOM     18  C   UNL     1      -0.397   2.799  -1.772  0.00  0.00    +0.015 A 
ATOM     19  C   UNL     1      -1.074   3.260  -2.903  0.00  0.00    +0.003 A 
ATOM     20  C   UNL     1      -2.095   2.487  -3.461  0.00  0.00    +0.010 A 
BRANCH  19  21
ATOM     21  C   UNL     1      -0.711   4.557  -3.506  0.00  0.00    +0.077 C 
ATOM     22  S   UNL     1       0.921   5.075  -3.506  0.00  0.00    -0.035 S 
BRANCH  21  23
ATOM     23  N   UNL     1      -1.664   5.334  -4.058  0.00  0.00    -0.352 N 
ATOM     24  H   UNL     1      -1.393   6.300  -4.508  0.00  0.00    +0.143 HD
ATOM     25  H   UNL     1      -2.712   5.001  -4.059  0.00  0.00    +0.143 HD
ENDBRANCH  21  23
ENDBRANCH  19  21
ENDBRANCH  14  17
ENDBRANCH   1  14
TORSDOF 4
