REMARK  Name = ZINC08583686
REMARK  11 active torsions:
REMARK  status: ('A' for Active; 'I' for Inactive)
REMARK    1  A    between atoms: C_1  and  C_2
REMARK    2  A    between atoms: C_3  and  C_23
REMARK    3  A    between atoms: C_4  and  C_16
REMARK    4  A    between atoms: C_9  and  C_11
REMARK    5  A    between atoms: C_11  and  C_12
REMARK    6  A    between atoms: C_12  and  C_13
REMARK    7  A    between atoms: C_13  and  O_14
REMARK    8  A    between atoms: C_19  and  O_22
REMARK    9  A    between atoms: N_25  and  C_26
REMARK   10  A    between atoms: C_29  and  O_32
REMARK   11  A    between atoms: O_32  and  C_33
REMARK                            x       y       z     vdW  Elec       q    Type
REMARK                         _______ _______ _______ _____ _____    ______ ____
ROOT
ATOM      1  C   UNL     1      -0.018   1.502   0.016  0.00  0.00    +0.061 C 
ATOM      2  C   UNL     1       0.002  -0.004  -0.004  0.00  0.00    +0.018 C 
ATOM      3  C   UNL     1      -1.163  -0.668  -0.004  0.00  0.00    +0.060 C 
ATOM      4  C   UNL     1      -1.253  -2.170  -0.035  0.00  0.00    +0.177 C 
ATOM      5  N   UNL     1       0.065  -2.742   0.227  0.00  0.00    -0.221 N 
ATOM      6  C   UNL     1       1.211  -2.018   0.224  0.00  0.00    +0.219 A 
ATOM      7  N   UNL     1       2.200  -2.828   0.485  0.00  0.00    -0.198 NA
ATOM      8  C   UNL     1       1.728  -4.066   0.664  0.00  0.00    +0.153 A 
ATOM      9  N   UNL     1       0.426  -4.057   0.516  0.00  0.00    -0.153 NA
ATOM     10  N   UNL     1       1.213  -0.652  -0.027  0.00  0.00    -0.287 N 
ATOM     11  H   UNL     1       2.037  -0.173  -0.209  0.00  0.00    +0.155 HD
ENDROOT
BRANCH   4  12
ATOM     12  C   UNL     1      -1.734  -2.616  -1.392  0.00  0.00    -0.018 A 
ATOM     13  C   UNL     1      -0.998  -2.306  -2.521  0.00  0.00    +0.009 A 
ATOM     14  C   UNL     1      -1.436  -2.714  -3.766  0.00  0.00    +0.046 A 
ATOM     15  C   UNL     1      -2.615  -3.435  -3.883  0.00  0.00    +0.117 A 
ATOM     16  C   UNL     1      -3.352  -3.745  -2.749  0.00  0.00    +0.046 A 
ATOM     17  C   UNL     1      -2.906  -3.340  -1.506  0.00  0.00    +0.009 A 
BRANCH  15  18
ATOM     18  O   UNL     1      -3.049  -3.837  -5.107  0.00  0.00    -0.507 OA
ATOM     19  H   UNL     1      -2.722  -4.707  -5.374  0.00  0.00    +0.292 HD
ENDBRANCH  15  18
ENDBRANCH   4  12
BRANCH   3  20
ATOM     20  C   UNL     1      -2.364   0.079   0.028  0.00  0.00    +0.248 C 
ATOM     21  O   UNL     1      -2.324   1.296   0.055  0.00  0.00    -0.270 OA
ATOM     22  N   UNL     1      -3.553  -0.556   0.029  0.00  0.00    -0.282 N 
ATOM     23  H   UNL     1      -3.587  -1.522  -0.059  0.00  0.00    +0.155 HD
BRANCH  22  24
ATOM     24  C   UNL     1      -4.739   0.177   0.158  0.00  0.00    +0.034 A 
ATOM     25  C   UNL     1      -4.843   1.436  -0.420  0.00  0.00    +0.027 A 
ATOM     26  C   UNL     1      -6.013   2.159  -0.293  0.00  0.00    +0.047 A 
ATOM     27  C   UNL     1      -7.083   1.628   0.411  0.00  0.00    +0.120 A 
ATOM     28  C   UNL     1      -6.980   0.371   0.988  0.00  0.00    +0.047 A 
ATOM     29  C   UNL     1      -5.814  -0.356   0.857  0.00  0.00    +0.027 A 
BRANCH  27  30
ATOM     30  O   UNL     1      -8.235   2.341   0.536  0.00  0.00    -0.495 OA
ATOM     31  C   UNL     1      -9.297   1.734   1.275  0.00  0.00    +0.277 C 
ENDBRANCH  27  30
ENDBRANCH  22  24
ENDBRANCH   3  20
BRANCH   8  32
ATOM     32  C   UNL     1       2.562  -5.280   0.986  0.00  0.00    +0.080 C 
BRANCH  32  33
ATOM     33  C   UNL     1       2.684  -5.426   2.504  0.00  0.00    +0.035 C 
BRANCH  33  34
ATOM     34  C   UNL     1       3.531  -6.659   2.831  0.00  0.00    +0.156 C 
BRANCH  34  35
ATOM     35  O   UNL     1       3.645  -6.796   4.249  0.00  0.00    -0.395 OA
ATOM     36  H   UNL     1       4.170  -7.558   4.529  0.00  0.00    +0.209 HD
ENDBRANCH  34  35
ENDBRANCH  33  34
ENDBRANCH  32  33
ENDBRANCH   8  32
TORSDOF 9
