REMARK  Name = ZINC07065115
REMARK  11 active torsions:
REMARK  status: ('A' for Active; 'I' for Inactive)
REMARK    1  A    between atoms: C_1  and  C_2
REMARK    2  A    between atoms: C_2  and  N_3
REMARK    3  A    between atoms: N_3  and  C_4
REMARK    4  A    between atoms: N_3  and  C_6
REMARK    5  A    between atoms: C_4  and  C_5
REMARK    6  A    between atoms: C_9  and  C_13
REMARK    7  A    between atoms: C_10  and  O_12
REMARK    8  A    between atoms: N_14  and  N_15
REMARK    9  A    between atoms: C_19  and  S_20
REMARK   10  A    between atoms: S_20  and  C_21
REMARK   11  A    between atoms: C_21  and  C_22
REMARK                            x       y       z     vdW  Elec       q    Type
REMARK                         _______ _______ _______ _____ _____    ______ ____
ROOT
ATOM      1  C   UNL     1      -1.300   2.115   0.020  0.00  0.00    +0.145 C 
ATOM      2  N   UNL     1      -1.315   3.414   0.027  0.00  0.00    -0.171 NA
ENDROOT
BRANCH   1   6
ATOM      3  C   UNL     1       2.402   0.033  -0.021  0.00  0.00    +0.033 A 
ATOM      4  C   UNL     1       1.204  -0.675  -0.013  0.00  0.00    +0.024 A 
ATOM      5  C   UNL     1       0.002  -0.004   0.002  0.00  0.00    +0.015 A 
ATOM      6  C   UNL     1      -0.017   1.394   0.010  0.00  0.00    +0.036 A 
ATOM      7  C   UNL     1       1.191   2.107   0.002  0.00  0.00    +0.127 A 
ATOM      8  C   UNL     1       2.393   1.423  -0.013  0.00  0.00    +0.069 A 
BRANCH   7   9
ATOM      9  O   UNL     1       1.181   3.465   0.009  0.00  0.00    -0.506 OA
ATOM     10  H   UNL     1       1.186   3.853   0.894  0.00  0.00    +0.292 HD
ENDBRANCH   7   9
BRANCH   3  11
ATOM     11  N   UNL     1       3.615  -0.653  -0.036  0.00  0.00    -0.330 N 
BRANCH  11  13
ATOM     12  C   UNL     1       3.618  -2.620  -1.490  0.00  0.00    +0.024 C 
ATOM     13  C   UNL     1       3.627  -2.118  -0.045  0.00  0.00    +0.102 C 
ENDBRANCH  11  13
BRANCH  11  14
ATOM     14  C   UNL     1       4.877   0.090  -0.044  0.00  0.00    +0.102 C 
ATOM     15  C   UNL     1       5.331   0.340   1.395  0.00  0.00    +0.024 C 
ENDBRANCH  11  14
ENDBRANCH   3  11
ENDBRANCH   1   6
BRANCH   2  16
ATOM     16  N   UNL     1      -2.537   4.100   0.036  0.00  0.00    -0.194 N 
ATOM     17  C   UNL     1      -3.792   3.554   0.033  0.00  0.00    +0.249 A 
ATOM     18  N   UNL     1      -4.644   4.542   0.048  0.00  0.00    -0.135 NA
ATOM     19  N   UNL     1      -4.020   5.665   0.051  0.00  0.00    -0.121 NA
ATOM     20  C   UNL     1      -2.723   5.455   0.045  0.00  0.00    +0.212 A 
BRANCH  20  21
ATOM     21  S   UNL     1      -1.463   6.687   0.046  0.00  0.00    -0.080 S 
BRANCH  21  22
ATOM     22  C   UNL     1      -2.483   8.181   0.059  0.00  0.00    +0.112 C 
BRANCH  22  23
ATOM     23  C   UNL     1      -1.593   9.398   0.061  0.00  0.00    -0.037 A 
ATOM     24  C   UNL     1      -1.185   9.952   1.260  0.00  0.00    +0.006 A 
ATOM     25  C   UNL     1      -0.364  11.064   1.263  0.00  0.00    +0.020 A 
ATOM     26  C   UNL     1       0.039  11.629   0.066  0.00  0.00    +0.041 A 
ATOM     27  C   UNL     1      -0.375  11.077  -1.133  0.00  0.00    +0.020 A 
ATOM     28  C   UNL     1      -1.191   9.962  -1.135  0.00  0.00    +0.006 A 
ATOM     29 CL   UNL     1       1.065  13.030   0.069  0.00  0.00    -0.084 Cl
ENDBRANCH  22  23
ENDBRANCH  21  22
ENDBRANCH  20  21
ENDBRANCH   2  16
TORSDOF 9
