REMARK  Name = ZINC04991713
REMARK  5 active torsions:
REMARK  status: ('A' for Active; 'I' for Inactive)
REMARK    1  A    between atoms: C_1  and  N_2
REMARK    2  A    between atoms: C_11  and  C_12
REMARK    3  A    between atoms: N_13  and  N_14
REMARK    4  A    between atoms: C_17  and  C_27
REMARK    5  A    between atoms: C_19  and  C_21
REMARK                            x       y       z     vdW  Elec       q    Type
REMARK                         _______ _______ _______ _____ _____    ______ ____
ROOT
ATOM      1  N   UNL     1      -5.263  -0.066  -2.085  0.00  0.00    -0.205 N 
ATOM      2  C   UNL     1      -6.164  -1.107  -1.916  0.00  0.00    +0.236 A 
ATOM      3  N   UNL     1      -5.796  -2.169  -1.217  0.00  0.00    -0.213 NA
ATOM      4  C   UNL     1      -6.635  -3.187  -1.029  0.00  0.00    +0.077 A 
ATOM      5  C   UNL     1      -7.912  -3.125  -1.589  0.00  0.00    +0.057 A 
ATOM      6  C   UNL     1      -8.259  -1.990  -2.322  0.00  0.00    +0.077 A 
ATOM      7  N   UNL     1      -7.366  -1.012  -2.462  0.00  0.00    -0.213 NA
ATOM      8  H   UNL     1      -5.518   0.717  -2.598  0.00  0.00    +0.177 HD
ENDROOT
BRANCH   6   9
ATOM      9  C   UNL     1      -9.603  -1.876  -2.938  0.00  0.00    +0.001 A 
ATOM     10  C   UNL     1     -10.530  -2.907  -2.792  0.00  0.00    +0.010 A 
ATOM     11  C   UNL     1     -11.781  -2.792  -3.364  0.00  0.00    +0.001 A 
ATOM     12  C   UNL     1     -12.112  -1.662  -4.089  0.00  0.00    +0.000 A 
ATOM     13  C   UNL     1     -11.195  -0.638  -4.242  0.00  0.00    +0.001 A 
ATOM     14  C   UNL     1      -9.943  -0.739  -3.670  0.00  0.00    +0.010 A 
ENDBRANCH   6   9
BRANCH   4  15
ATOM     15  C   UNL     1      -6.215  -4.370  -0.240  0.00  0.00    +0.001 A 
ATOM     16  C   UNL     1      -7.099  -5.431  -0.047  0.00  0.00    +0.010 A 
ATOM     17  C   UNL     1      -6.702  -6.532   0.683  0.00  0.00    +0.001 A 
ATOM     18  C   UNL     1      -5.433  -6.580   1.233  0.00  0.00    +0.000 A 
ATOM     19  C   UNL     1      -4.554  -5.528   1.049  0.00  0.00    +0.001 A 
ATOM     20  C   UNL     1      -4.938  -4.424   0.316  0.00  0.00    +0.010 A 
ENDBRANCH   4  15
BRANCH   1  22
ATOM     21  C   UNL     1      -3.141   0.829  -1.674  0.00  0.00    +0.171 C 
ATOM     22  N   UNL     1      -3.986  -0.146  -1.515  0.00  0.00    -0.185 NA
BRANCH  21  31
ATOM     23  C   UNL     1      -0.658   2.737  -2.260  0.00  0.00    +0.131 C 
ATOM     24  N   UNL     1      -0.826   1.747  -1.194  0.00  0.00    -0.310 N 
ATOM     25  C   UNL     1      -0.019   1.559   0.011  0.00  0.00    +0.124 C 
ATOM     26  C   UNL     1       1.413   1.976  -0.001  0.00  0.00    -0.002 C 
ATOM     27  C   UNL     1       2.209   1.306   0.856  0.00  0.00    -0.003 C 
ATOM     28  C   UNL     1       1.639   0.257   1.726  0.00  0.00    -0.002 C 
ATOM     29  C   UNL     1       0.543  -0.420   1.324  0.00  0.00    -0.001 C 
ATOM     30  C   UNL     1       0.002  -0.004   0.002  0.00  0.00    +0.128 C 
ATOM     31  C   UNL     1      -1.802   0.746  -1.077  0.00  0.00    +0.116 C 
ATOM     32  N   UNL     1      -1.363  -0.271  -0.367  0.00  0.00    -0.363 N 
ATOM     33  H   UNL     1      -1.902  -1.110  -0.120  0.00  0.00    +0.162 HD
ENDBRANCH  21  31
ENDBRANCH   1  22
TORSDOF 4
