REMARK  Name = ZINC08990393
REMARK  7 active torsions:
REMARK  status: ('A' for Active; 'I' for Inactive)
REMARK    1  A    between atoms: C_1  and  C_2
REMARK    2  A    between atoms: C_3  and  C_29
REMARK    3  A    between atoms: N_6  and  C_21
REMARK    4  A    between atoms: C_10  and  N_11
REMARK    5  A    between atoms: N_11  and  C_12
REMARK    6  A    between atoms: C_15  and  O_19
REMARK    7  A    between atoms: O_19  and  C_20
REMARK                            x       y       z     vdW  Elec       q    Type
REMARK                         _______ _______ _______ _____ _____    ______ ____
ROOT
ATOM      1  C   UNL     1       3.574   3.202   0.188  0.00  0.00    +0.046 C 
ATOM      2  C   UNL     1       3.571   1.695   0.183  0.00  0.00    -0.015 C 
ATOM      3  C   UNL     1       4.760   0.986   0.276  0.00  0.00    +0.118 C 
ATOM      4  C   UNL     1       4.731  -0.477   0.263  0.00  0.00    +0.264 C 
ATOM      5  O   UNL     1       5.775  -1.100   0.339  0.00  0.00    -0.269 OA
ATOM      6  N   UNL     1       3.567  -1.142   0.169  0.00  0.00    -0.229 N 
ATOM      7  C   UNL     1       2.393  -0.490   0.083  0.00  0.00    +0.255 C 
ATOM      8  O   UNL     1       1.356  -1.120  -0.002  0.00  0.00    -0.269 OA
ATOM      9  C   UNL     1       2.358   0.978   0.090  0.00  0.00    +0.055 C 
ATOM     10  C   UNL     1       1.145   1.654   0.000  0.00  0.00    +0.085 C 
ENDROOT
BRANCH   6  11
ATOM     11  C   UNL     1       3.576  -2.607   0.160  0.00  0.00    +0.107 C 
ATOM     12  C   UNL     1       4.396  -3.114  -1.038  0.00  0.00    +0.047 C 
ATOM     13  C   UNL     1       4.680  -4.627  -0.881  0.00  0.00    +0.168 C 
ATOM     14  S   UNL     1       4.677  -4.851   0.945  0.00  0.00    -0.029 S 
ATOM     15  O   UNL     1       3.614  -5.725   1.302  0.00  0.00    -0.174 OA
ATOM     16  O   UNL     1       5.998  -5.144   1.377  0.00  0.00    -0.174 OA
ATOM     17  C   UNL     1       4.243  -3.137   1.461  0.00  0.00    +0.188 C 
ENDBRANCH   6  11
BRANCH  10  18
ATOM     18  N   UNL     1      -0.012   0.969   0.041  0.00  0.00    -0.320 N 
ATOM     19  H   UNL     1      -0.001  -0.001   0.054  0.00  0.00    +0.152 HD
BRANCH  18  20
ATOM     20  C   UNL     1      -1.231   1.654   0.060  0.00  0.00    +0.033 A 
ATOM     21  C   UNL     1      -1.247   3.043   0.048  0.00  0.00    +0.027 A 
ATOM     22  C   UNL     1      -2.451   3.720   0.061  0.00  0.00    +0.049 A 
ATOM     23  C   UNL     1      -3.644   3.013   0.098  0.00  0.00    +0.138 A 
ATOM     24  C   UNL     1      -3.629   1.625   0.116  0.00  0.00    +0.084 A 
ATOM     25  C   UNL     1      -2.425   0.946   0.097  0.00  0.00    +0.047 A 
ATOM     26 CL   UNL     1      -5.123   0.741   0.162  0.00  0.00    -0.080 Cl
BRANCH  23  27
ATOM     27  O   UNL     1      -4.829   3.680   0.117  0.00  0.00    -0.494 OA
ATOM     28  C   UNL     1      -4.770   5.108   0.097  0.00  0.00    +0.277 C 
ENDBRANCH  23  27
ENDBRANCH  18  20
ENDBRANCH  10  18
BRANCH   3  29
ATOM     29  C   UNL     1       6.008   1.681   0.377  0.00  0.00    +0.105 C 
ATOM     30  N   UNL     1       6.998   2.233   0.457  0.00  0.00    -0.191 NA
ENDBRANCH   3  29
TORSDOF 5
