REMARK  Name = ZINC05438319
REMARK  8 active torsions:
REMARK  status: ('A' for Active; 'I' for Inactive)
REMARK    1  A    between atoms: C_1  and  O_2
REMARK    2  A    between atoms: O_2  and  C_3
REMARK    3  A    between atoms: C_13  and  O_36
REMARK    4  A    between atoms: C_16  and  O_17
REMARK    5  A    between atoms: C_18  and  O_35
REMARK    6  A    between atoms: C_21  and  C_23
REMARK    7  A    between atoms: C_21  and  O_34
REMARK    8  A    between atoms: C_26  and  C_28
REMARK                            x       y       z     vdW  Elec       q    Type
REMARK                         _______ _______ _______ _____ _____    ______ ____
ROOT
ATOM      1  C   UNL     1       3.569   3.242   4.882  0.00  0.00    +0.132 A 
ATOM      2  C   UNL     1       2.820   3.209   6.055  0.00  0.00    +0.046 A 
ATOM      3  C   UNL     1       1.567   2.631   6.067  0.00  0.00    +0.004 A 
ATOM      4  C   UNL     1       1.036   2.075   4.913  0.00  0.00    +0.012 A 
ATOM      5  C   UNL     1       1.767   2.097   3.732  0.00  0.00    +0.037 A 
ATOM      6  C   UNL     1       3.047   2.686   3.713  0.00  0.00    +0.075 A 
ATOM      7  C   UNL     1       3.822   2.710   2.457  0.00  0.00    +0.202 C 
ATOM      8  O   UNL     1       5.008   2.978   2.471  0.00  0.00    -0.286 OA
ATOM      9  C   UNL     1       3.141   2.404   1.185  0.00  0.00    +0.078 A 
ATOM     10  C   UNL     1       1.857   1.820   1.202  0.00  0.00    +0.078 A 
ATOM     11  C   UNL     1       1.220   1.531  -0.001  0.00  0.00    +0.132 A 
ATOM     12  C   UNL     1       1.841   1.829  -1.223  0.00  0.00    +0.007 A 
ATOM     13  C   UNL     1       3.089   2.397  -1.240  0.00  0.00    +0.030 A 
ATOM     14  C   UNL     1       3.745   2.690  -0.035  0.00  0.00    +0.134 A 
ATOM     15  C   UNL     1       3.813   2.726  -2.520  0.00  0.00    +0.152 C 
ATOM     16  C   UNL     1       2.838   2.771  -3.694  0.00  0.00    +0.077 C 
ATOM     17  C   UNL     1       2.015   1.477  -3.687  0.00  0.00    +0.115 C 
ATOM     18  C   UNL     1       1.078   1.510  -2.483  0.00  0.00    +0.080 C 
ATOM     19  C   UNL     1       1.214   1.510   2.492  0.00  0.00    +0.198 C 
ATOM     20  O   UNL     1       0.239   0.784   2.537  0.00  0.00    -0.286 OA
ENDROOT
BRANCH  17  21
ATOM     21  C   UNL     1       1.208   1.382  -4.956  0.00  0.00    +0.081 A 
ATOM     22  C   UNL     1       1.395   0.336  -5.806  0.00  0.00    +0.073 A 
ATOM     23  S   UNL     1       0.211   0.735  -7.085  0.00  0.00    -0.075 S 
ATOM     24  C   UNL     1      -0.394   2.252  -6.356  0.00  0.00    +0.109 A 
ATOM     25  N   UNL     1       0.329   2.311  -5.247  0.00  0.00    -0.241 NA
BRANCH  24  26
ATOM     26  C   UNL     1      -1.423   3.188  -6.856  0.00  0.00    +0.010 A 
ATOM     27  C   UNL     1      -1.768   4.333  -6.129  0.00  0.00    +0.030 A 
ATOM     28  C   UNL     1      -2.730   5.183  -6.635  0.00  0.00    +0.111 A 
ATOM     29  N   UNL     1      -3.329   4.921  -7.781  0.00  0.00    -0.263 NA
ATOM     30  C   UNL     1      -3.039   3.850  -8.495  0.00  0.00    +0.111 A 
ATOM     31  C   UNL     1      -2.085   2.950  -8.066  0.00  0.00    +0.030 A 
ENDBRANCH  24  26
ENDBRANCH  17  21
BRANCH   1  33
ATOM     32  C   UNL     1       5.268   4.359   6.110  0.00  0.00    +0.277 C 
ATOM     33  O   UNL     1       4.800   3.811   4.876  0.00  0.00    -0.494 OA
ENDBRANCH   1  33
BRANCH  14  34
ATOM     34  O   UNL     1       4.978   3.256  -0.060  0.00  0.00    -0.506 OA
ATOM     35  H   UNL     1       4.967   4.223  -0.062  0.00  0.00    +0.292 HD
ENDBRANCH  14  34
BRANCH  17  36
ATOM     36  O   UNL     1       2.890   0.351  -3.587  0.00  0.00    -0.382 OA
ATOM     37  H   UNL     1       2.434  -0.501  -3.578  0.00  0.00    +0.211 HD
ENDBRANCH  17  36
BRANCH  15  38
ATOM     38  O   UNL     1       4.805   1.728  -2.770  0.00  0.00    -0.387 OA
ATOM     39  H   UNL     1       5.472   1.653  -2.073  0.00  0.00    +0.210 HD
ENDBRANCH  15  38
BRANCH  11  40
ATOM     40  O   UNL     1      -0.011   0.963   0.007  0.00  0.00    -0.506 OA
ATOM     41  H   UNL     1       0.002  -0.004   0.002  0.00  0.00    +0.292 HD
ENDBRANCH  11  40
TORSDOF 7
