REMARK  Name = ZINC16991072
REMARK  7 active torsions:
REMARK  status: ('A' for Active; 'I' for Inactive)
REMARK    1  A    between atoms: C_1  and  C_2
REMARK    2  A    between atoms: C_2  and  C_3
REMARK    3  A    between atoms: C_3  and  O_28
REMARK    4  A    between atoms: C_13  and  O_26
REMARK    5  A    between atoms: C_21  and  C_25
REMARK    6  A    between atoms: C_22  and  O_24
REMARK    7  A    between atoms: O_26  and  C_27
REMARK                            x       y       z     vdW  Elec       q    Type
REMARK                         _______ _______ _______ _____ _____    ______ ____
ROOT
ATOM      1  C   UNL     1       1.474  -1.511  10.865  0.00  0.00    +0.092 C 
ATOM      2  C   UNL     1       0.516  -0.516  10.154  0.00  0.00    +0.041 C 
ATOM      3  C   UNL     1       1.220  -0.255   8.818  0.00  0.00    +0.004 C 
ATOM      4  C   UNL     1       0.331   0.194   7.675  0.00  0.00    +0.001 C 
ATOM      5  C   UNL     1      -0.298   1.558   7.962  0.00  0.00    +0.009 C 
ATOM      6  C   UNL     1      -1.316   1.853   6.861  0.00  0.00    +0.036 C 
ATOM      7  C   UNL     1      -0.729   1.612   5.495  0.00  0.00    -0.040 A 
ATOM      8  C   UNL     1      -1.411   2.130   4.401  0.00  0.00    +0.049 A 
ATOM      9  C   UNL     1      -0.936   1.930   3.116  0.00  0.00    +0.120 A 
ATOM     10  C   UNL     1       0.237   1.217   2.920  0.00  0.00    +0.046 A 
ATOM     11  C   UNL     1       0.918   0.711   4.006  0.00  0.00    +0.008 A 
ATOM     12  C   UNL     1       0.440   0.907   5.295  0.00  0.00    -0.041 A 
ATOM     13  C   UNL     1       1.229   0.341   6.440  0.00  0.00    +0.023 C 
ATOM     14  C   UNL     1       1.874  -0.990   6.077  0.00  0.00    +0.009 C 
ATOM     15  C   UNL     1       2.665  -1.555   7.273  0.00  0.00    +0.010 C 
ATOM     16  C   UNL     1       1.707  -1.681   8.438  0.00  0.00    -0.000 C 
ATOM     17  C   UNL     1       2.279  -2.218   9.745  0.00  0.00    +0.152 C 
ATOM     18  C   UNL     1       0.508  -2.539   8.027  0.00  0.00    +0.014 C 
ENDROOT
BRANCH   1  20
ATOM     19  C   UNL     1      -0.246  -1.815  12.652  0.00  0.00    +0.007 C 
ATOM     20  C   UNL     1       0.667  -2.539  11.661  0.00  0.00    +0.034 C 
ENDBRANCH   1  20
BRANCH  17  21
ATOM     21  O   UNL     1       2.096  -3.633   9.822  0.00  0.00    -0.388 OA
ATOM     22  H   UNL     1       2.441  -4.030  10.633  0.00  0.00    +0.210 HD
ENDBRANCH  17  21
BRANCH   9  23
ATOM     23  O   UNL     1      -1.615   2.435   2.052  0.00  0.00    -0.495 OA
ATOM     24  C   UNL     1      -1.062   2.193   0.757  0.00  0.00    +0.277 C 
ENDBRANCH   9  23
BRANCH   1  25
ATOM     25  O   UNL     1       2.359  -0.803  11.735  0.00  0.00    -0.386 OA
ATOM     26  H   UNL     1       1.911  -0.320  12.443  0.00  0.00    +0.210 HD
ENDBRANCH   1  25
TORSDOF 4
