REMARK  Name = ZINC59914502
REMARK  14 active torsions:
REMARK  status: ('A' for Active; 'I' for Inactive)
REMARK    1  A    between atoms: C_1  and  C_2
REMARK    2  A    between atoms: C_5  and  C_8
REMARK    3  A    between atoms: C_8  and  N_9
REMARK    4  A    between atoms: C_10  and  C_12
REMARK    5  A    between atoms: C_12  and  S_13
REMARK    6  A    between atoms: S_13  and  C_14
REMARK    7  A    between atoms: N_18  and  N_19
REMARK    8  A    between atoms: N_20  and  N_21
REMARK    9  A    between atoms: C_22  and  C_23
REMARK   10  A    between atoms: C_24  and  C_32
REMARK   11  A    between atoms: N_26  and  C_29
REMARK   12  A    between atoms: C_27  and  C_28
REMARK   13  A    between atoms: C_29  and  C_30
REMARK   14  A    between atoms: C_30  and  O_31
REMARK                            x       y       z     vdW  Elec       q    Type
REMARK                         _______ _______ _______ _____ _____    ______ ____
ROOT
ATOM      1  C   UNL     1       4.876  -8.769  -0.073  0.00  0.00    +0.210 A 
ATOM      2  N   UNL     1       5.869  -7.913  -0.068  0.00  0.00    -0.119 NA
ATOM      3  N   UNL     1       7.067  -8.640  -0.081  0.00  0.00    -0.109 NA
ATOM      4  C   UNL     1       6.766  -9.916  -0.093  0.00  0.00    +0.254 A 
ATOM      5  N   UNL     1       5.404 -10.029  -0.082  0.00  0.00    -0.211 N 
ATOM      6  N   UNL     1       7.672 -10.967  -0.108  0.00  0.00    -0.204 N 
ATOM      7  H   UNL     1       7.352 -11.883  -0.117  0.00  0.00    +0.177 HD
ENDROOT
BRANCH   5   8
ATOM      8  N   UNL     1       4.695 -11.197  -0.084  0.00  0.00    -0.294 N 
ATOM      9  H   UNL     1       4.502 -11.501  -1.026  0.00  0.00    +0.163 HD
ATOM     10  H   UNL     1       5.178 -11.914   0.436  0.00  0.00    +0.163 HD
ENDBRANCH   5   8
BRANCH   6  11
ATOM     11  N   UNL     1       9.048 -10.706  -0.111  0.00  0.00    -0.187 NA
ATOM     12  C   UNL     1       9.895 -11.689  -0.125  0.00  0.00    +0.141 C 
BRANCH  12  13
ATOM     13  C   UNL     1      11.345 -11.414  -0.128  0.00  0.00    +0.038 A 
ATOM     14  C   UNL     1      11.956 -10.142  -0.110  0.00  0.00    +0.069 A 
ATOM     15  N   UNL     1      13.250 -10.312  -0.119  0.00  0.00    -0.176 NA
ATOM     16  N   UNL     1      13.526 -11.684  -0.143  0.00  0.00    -0.266 N 
ATOM     17  C   UNL     1      12.354 -12.352  -0.142  0.00  0.00    +0.045 A 
ATOM     18  C   UNL     1      12.181 -13.849  -0.158  0.00  0.00    +0.066 C 
ATOM     19  C   UNL     1      11.238  -8.817  -0.085  0.00  0.00    +0.068 C 
BRANCH  16  20
ATOM     20  C   UNL     1      14.859 -12.290  -0.160  0.00  0.00    +0.171 C 
BRANCH  20  21
ATOM     21  C   UNL     1      15.331 -12.525   1.276  0.00  0.00    +0.179 C 
BRANCH  21  22
ATOM     22  O   UNL     1      16.631 -13.117   1.260  0.00  0.00    -0.393 OA
ATOM     23  H   UNL     1      16.994 -13.295   2.139  0.00  0.00    +0.209 HD
ENDBRANCH  21  22
ENDBRANCH  20  21
ENDBRANCH  16  20
ENDBRANCH  12  13
ENDBRANCH   6  11
BRANCH   1  24
ATOM     24  S   UNL     1       3.161  -8.365  -0.061  0.00  0.00    -0.075 S 
BRANCH  24  25
ATOM     25  C   UNL     1       3.137  -6.551  -0.051  0.00  0.00    +0.173 C 
BRANCH  25  27
ATOM     26  N   UNL     1       1.447  -4.746  -0.032  0.00  0.00    -0.311 N 
ATOM     27  C   UNL     1       1.710  -6.067  -0.040  0.00  0.00    +0.224 C 
ATOM     28  O   UNL     1       0.799  -6.867  -0.040  0.00  0.00    -0.275 OA
ATOM     29  H   UNL     1       2.176  -4.106  -0.032  0.00  0.00    +0.149 HD
BRANCH  26  30
ATOM     30  C   UNL     1       0.059  -4.275  -0.021  0.00  0.00    +0.139 C 
BRANCH  30  35
ATOM     31  C   UNL     1      -0.018   1.503   0.010  0.00  0.00    +0.044 C 
ATOM     32  C   UNL     1       0.002  -0.004   0.002  0.00  0.00    -0.050 A 
ATOM     33  C   UNL     1       0.006  -0.689  -1.199  0.00  0.00    +0.003 A 
ATOM     34  C   UNL     1       0.025  -2.071  -1.206  0.00  0.00    +0.005 A 
ATOM     35  C   UNL     1       0.040  -2.768  -0.013  0.00  0.00    -0.030 A 
ATOM     36  C   UNL     1       0.037  -2.084   1.188  0.00  0.00    +0.005 A 
ATOM     37  C   UNL     1       0.023  -0.702   1.195  0.00  0.00    +0.003 A 
ENDBRANCH  30  35
ENDBRANCH  26  30
ENDBRANCH  25  27
ENDBRANCH  24  25
ENDBRANCH   1  24
TORSDOF 11
