REMARK  Name = ZINC64613219
REMARK  4 active torsions:
REMARK  status: ('A' for Active; 'I' for Inactive)
REMARK    1  A    between atoms: C_1  and  C_2
REMARK    2  A    between atoms: C_7  and  C_8
REMARK    3  A    between atoms: C_11  and  C_14
REMARK    4  A    between atoms: C_17  and  C_20
REMARK                            x       y       z     vdW  Elec       q    Type
REMARK                         _______ _______ _______ _____ _____    ______ ____
ROOT
ATOM      1  C   UNL     1       0.242   0.024   2.481  0.00  0.00    +0.168 C 
ATOM      2  N   UNL     1       0.137   1.307   2.602  0.00  0.00    -0.067 NA
ATOM      3  O   UNL     1       0.292   1.702   3.952  0.00  0.00    -0.367 OA
ATOM      4  C   UNL     1       0.515   0.501   4.707  0.00  0.00    +0.322 C 
ATOM      5  N   UNL     1       0.469  -0.577   3.706  0.00  0.00    -0.287 N 
ATOM      6  H   UNL     1       0.579  -1.526   3.873  0.00  0.00    +0.151 HD
ENDROOT
BRANCH   1  13
ATOM      7  C   UNL     1      -0.502   1.454   0.079  0.00  0.00    +0.044 C 
ATOM      8  C   UNL     1      -0.230  -0.027   0.035  0.00  0.00    -0.040 A 
ATOM      9  C   UNL     1      -0.329  -0.714  -1.158  0.00  0.00    +0.004 A 
ATOM     10  C   UNL     1      -0.079  -2.073  -1.200  0.00  0.00    +0.000 A 
ATOM     11  C   UNL     1       0.272  -2.754  -0.048  0.00  0.00    +0.001 A 
ATOM     12  C   UNL     1       0.373  -2.079   1.151  0.00  0.00    +0.012 A 
ATOM     13  C   UNL     1       0.128  -0.707   1.199  0.00  0.00    +0.021 A 
ENDBRANCH   1  13
BRANCH   4  14
ATOM     14  C   UNL     1      -0.592   0.310   5.745  0.00  0.00    +0.215 C 
ATOM     15  C   UNL     1      -0.643   1.491   6.697  0.00  0.00    +0.037 C 
ATOM     16  C   UNL     1      -1.873   2.006   6.507  0.00  0.00    +0.091 C 
ATOM     17  N   UNL     1      -2.549   1.286   5.573  0.00  0.00    -0.154 NA
ATOM     18  N   UNL     1      -1.917   0.333   5.103  0.00  0.00    -0.174 NA
BRANCH  16  19
ATOM     19  C   UNL     1      -2.415   3.191   7.217  0.00  0.00    +0.003 A 
ATOM     20  C   UNL     1      -1.633   3.860   8.156  0.00  0.00    +0.010 A 
ATOM     21  C   UNL     1      -2.141   4.962   8.815  0.00  0.00    +0.002 A 
ATOM     22  C   UNL     1      -3.424   5.402   8.544  0.00  0.00    +0.020 A 
ATOM     23  C   UNL     1      -4.206   4.741   7.612  0.00  0.00    +0.042 A 
ATOM     24  C   UNL     1      -3.704   3.641   6.943  0.00  0.00    +0.030 A 
ATOM     25 CL   UNL     1      -5.815   5.299   7.279  0.00  0.00    -0.084 Cl
ENDBRANCH  16  19
ENDBRANCH   4  14
TORSDOF 3
