REMARK  Name = ZINC49601565
REMARK  17 active torsions:
REMARK  status: ('A' for Active; 'I' for Inactive)
REMARK    1  A    between atoms: C_1  and  C_2
REMARK    2  A    between atoms: C_3  and  O_33
REMARK    3  A    between atoms: C_4  and  C_32
REMARK    4  A    between atoms: C_8  and  C_9
REMARK    5  A    between atoms: C_9  and  C_10
REMARK    6  A    between atoms: C_9  and  C_11
REMARK    7  A    between atoms: C_9  and  O_31
REMARK    8  A    between atoms: C_12  and  C_13
REMARK    9  A    between atoms: C_12  and  C_14
REMARK   10  A    between atoms: C_14  and  C_16
REMARK   11  A    between atoms: C_14  and  O_30
REMARK   12  A    between atoms: C_16  and  C_29
REMARK   13  A    between atoms: C_17  and  C_18
REMARK   14  A    between atoms: C_18  and  C_28
REMARK   15  A    between atoms: C_21  and  C_27
REMARK   16  A    between atoms: C_23  and  C_26
REMARK   17  A    between atoms: O_33  and  C_34
REMARK                            x       y       z     vdW  Elec       q    Type
REMARK                         _______ _______ _______ _____ _____    ______ ____
ROOT
ATOM      1  C   UNL     1      -1.323   0.553   3.462  0.00  0.00    +0.016 C 
ATOM      2  C   UNL     1      -1.936   0.163   4.552  0.00  0.00    -0.041 C 
ATOM      3  C   UNL     1      -1.137  -0.270   5.753  0.00  0.00    +0.042 C 
ENDROOT
BRANCH   1   4
ATOM      4  C   UNL     1       0.178   0.454   3.366  0.00  0.00    +0.139 C 
ATOM      5  C   UNL     1       0.818   1.513   4.267  0.00  0.00    +0.054 C 
BRANCH   4  13
ATOM      6  C   UNL     1       2.481  -0.875   2.361  0.00  0.00    +0.051 C 
ATOM      7  C   UNL     1       1.698   0.051   1.467  0.00  0.00    +0.033 A 
ATOM      8  C   UNL     1       2.103   0.256   0.129  0.00  0.00    +0.136 A 
ATOM      9  C   UNL     1       1.363   1.112  -0.665  0.00  0.00    +0.076 A 
ATOM     10  C   UNL     1       0.241   1.744  -0.115  0.00  0.00    +0.343 A 
ATOM     11  O   UNL     1      -0.427   2.503  -0.798  0.00  0.00    -0.245 OA
ATOM     12  O   UNL     1      -0.103   1.516   1.164  0.00  0.00    -0.423 OA
ATOM     13  C   UNL     1       0.607   0.683   1.939  0.00  0.00    +0.150 A 
ATOM     14  C   UNL     1       1.757   1.362  -2.098  0.00  0.00    +0.055 C 
BRANCH   8  15
ATOM     15  O   UNL     1       3.195  -0.374  -0.365  0.00  0.00    -0.494 OA
ATOM     16  C   UNL     1       3.136  -1.799  -0.457  0.00  0.00    +0.277 C 
ENDBRANCH   8  15
ENDBRANCH   4  13
BRANCH   4  17
ATOM     17  O   UNL     1       0.598  -0.846   3.787  0.00  0.00    -0.377 OA
ATOM     18  H   UNL     1       0.278  -1.564   3.223  0.00  0.00    +0.211 HD
ENDBRANCH   4  17
ENDBRANCH   1   4
BRANCH   2  19
ATOM     19  C   UNL     1      -3.442   0.148   4.604  0.00  0.00    +0.166 C 
BRANCH  19  20
ATOM     20  C   UNL     1      -3.920   1.152   5.621  0.00  0.00    -0.042 C 
ATOM     21  C   UNL     1      -4.615   2.194   5.236  0.00  0.00    +0.012 C 
ATOM     22  C   UNL     1      -3.599   0.957   7.080  0.00  0.00    +0.042 C 
BRANCH  21  23
ATOM     23  C   UNL     1      -4.911   3.304   6.212  0.00  0.00    +0.114 C 
ATOM     24  C   UNL     1      -4.573   4.675   5.585  0.00  0.00    +0.189 C 
ATOM     25  C   UNL     1      -3.994   5.493   6.761  0.00  0.00    +0.122 C 
ATOM     26  O   UNL     1      -5.251   5.828   6.089  0.00  0.00    -0.359 OA
ATOM     27  C   UNL     1      -4.051   4.519   7.960  0.00  0.00    +0.151 C 
ATOM     28  O   UNL     1      -4.048   3.203   7.366  0.00  0.00    -0.361 OA
ATOM     29  C   UNL     1      -2.824   4.705   8.855  0.00  0.00    +0.041 C 
ATOM     30  C   UNL     1      -2.774   6.405   6.619  0.00  0.00    +0.047 C 
ATOM     31  C   UNL     1      -6.379   3.258   6.640  0.00  0.00    +0.049 C 
ENDBRANCH  21  23
ENDBRANCH  19  20
BRANCH  19  32
ATOM     32  O   UNL     1      -3.893  -1.157   4.974  0.00  0.00    -0.383 OA
ATOM     33  H   UNL     1      -3.575  -1.452   5.838  0.00  0.00    +0.211 HD
ENDBRANCH  19  32
ENDBRANCH   2  19
TORSDOF 8
