REMARK  Name = ZINC48856703
REMARK  3 active torsions:
REMARK  status: ('A' for Active; 'I' for Inactive)
REMARK    1  A    between atoms: C_1  and  C_2
REMARK    2  A    between atoms: C_7  and  N_10
REMARK    3  A    between atoms: N_13  and  N_14
REMARK                            x       y       z     vdW  Elec       q    Type
REMARK                         _______ _______ _______ _____ _____    ______ ____
ROOT
ATOM      1  N   UNL     1       1.471  -2.526   2.420  0.00  0.00    -0.295 N 
ATOM      2  C   UNL     1       2.056  -3.740   2.406  0.00  0.00    +0.316 C 
ATOM      3  O   UNL     1       1.996  -4.433   1.409  0.00  0.00    -0.251 OA
ATOM      4  N   UNL     1       2.708  -4.187   3.498  0.00  0.00    -0.219 N 
ATOM      5  H   UNL     1       1.520  -1.974   3.216  0.00  0.00    +0.151 HD
ATOM      6  H   UNL     1       3.129  -5.060   3.488  0.00  0.00    +0.174 HD
ENDROOT
BRANCH   4   7
ATOM      7  N   UNL     1       2.778  -3.389   4.647  0.00  0.00    -0.246 N 
ATOM      8  C   UNL     1       3.450  -3.849   5.774  0.00  0.00    +0.157 A 
ATOM      9  C   UNL     1       3.517  -3.060   6.923  0.00  0.00    +0.050 A 
ATOM     10  C   UNL     1       4.198  -3.564   8.018  0.00  0.00    +0.045 A 
ATOM     11  C   UNL     1       4.774  -4.824   7.906  0.00  0.00    +0.152 A 
ATOM     12  N   UNL     1       4.662  -5.502   6.780  0.00  0.00    -0.136 NA
ATOM     13  N   UNL     1       4.027  -5.042   5.764  0.00  0.00    -0.132 NA
ATOM     14 CL   UNL     1       5.640  -5.505   9.247  0.00  0.00    -0.060 Cl
ATOM     15  H   UNL     1       2.357  -2.515   4.657  0.00  0.00    +0.172 HD
ENDBRANCH   4   7
BRANCH   1  21
ATOM     16  C   UNL     1      -0.019   1.526   0.010  0.00  0.00    +0.007 C 
ATOM     17  C   UNL     1       0.002  -0.004   0.002  0.00  0.00    -0.012 C 
ATOM     18  C   UNL     1      -1.433  -0.534   0.013  0.00  0.00    +0.003 C 
ATOM     19  C   UNL     1      -1.413  -2.063   0.004  0.00  0.00    +0.002 C 
ATOM     20  C   UNL     1      -0.673  -2.570   1.244  0.00  0.00    +0.022 C 
ATOM     21  C   UNL     1       0.763  -2.041   1.233  0.00  0.00    +0.075 C 
ATOM     22  C   UNL     1       0.742  -0.511   1.242  0.00  0.00    +0.025 C 
ENDBRANCH   1  21
TORSDOF 2
