REMARK  Name = ZINC08283390
REMARK  9 active torsions:
REMARK  status: ('A' for Active; 'I' for Inactive)
REMARK    1  A    between atoms: C_1  and  C_2
REMARK    2  A    between atoms: C_5  and  C_8
REMARK    3  A    between atoms: C_11  and  S_14
REMARK    4  A    between atoms: N_12  and  N_13
REMARK    5  A    between atoms: S_14  and  C_15
REMARK    6  A    between atoms: C_15  and  C_17
REMARK    7  A    between atoms: C_15  and  C_18
REMARK    8  A    between atoms: N_20  and  C_21
REMARK    9  A    between atoms: C_27  and  C_29
REMARK                            x       y       z     vdW  Elec       q    Type
REMARK                         _______ _______ _______ _____ _____    ______ ____
ROOT
ATOM      1  C   UNL     1      -0.812   1.217   9.510  0.00  0.00    +0.182 A 
ATOM      2  N   UNL     1      -1.760   1.533   8.658  0.00  0.00    -0.127 NA
ATOM      3  N   UNL     1      -1.438   1.140   7.478  0.00  0.00    -0.121 NA
ATOM      4  C   UNL     1      -0.269   0.540   7.505  0.00  0.00    +0.209 A 
ATOM      5  N   UNL     1       0.172   0.571   8.797  0.00  0.00    -0.224 N 
ENDROOT
BRANCH   1  10
ATOM      6  C   UNL     1      -0.780   2.320  15.157  0.00  0.00    +0.044 C 
ATOM      7  C   UNL     1      -0.789   2.032  13.678  0.00  0.00    -0.050 A 
ATOM      8  C   UNL     1       0.391   1.702  13.034  0.00  0.00    +0.004 A 
ATOM      9  C   UNL     1       0.390   1.435  11.681  0.00  0.00    +0.012 A 
ATOM     10  C   UNL     1      -0.804   1.500  10.961  0.00  0.00    +0.021 A 
ATOM     11  C   UNL     1      -1.989   1.840  11.615  0.00  0.00    +0.012 A 
ATOM     12  C   UNL     1      -1.976   2.098  12.970  0.00  0.00    +0.004 A 
ENDBRANCH   1  10
BRANCH   5  13
ATOM     13  N   UNL     1       1.345   0.065   9.281  0.00  0.00    -0.295 N 
ATOM     14  H   UNL     1       2.054   0.781   9.331  0.00  0.00    +0.163 HD
ATOM     15  H   UNL     1       1.207  -0.370  10.181  0.00  0.00    +0.163 HD
ENDBRANCH   5  13
BRANCH   4  16
ATOM     16  S   UNL     1       0.576  -0.166   6.129  0.00  0.00    -0.072 S 
BRANCH  16  17
ATOM     17  C   UNL     1      -0.618   0.185   4.814  0.00  0.00    +0.137 C 
ATOM     18  C   UNL     1      -0.735   1.698   4.622  0.00  0.00    +0.029 C 
BRANCH  17  19
ATOM     19  C   UNL     1      -0.151  -0.451   3.530  0.00  0.00    +0.226 C 
ATOM     20  O   UNL     1       1.015  -0.756   3.393  0.00  0.00    -0.275 OA
ATOM     21  N   UNL     1      -1.029  -0.679   2.533  0.00  0.00    -0.311 N 
ATOM     22  H   UNL     1      -1.961  -0.435   2.643  0.00  0.00    +0.149 HD
BRANCH  21  23
ATOM     23  C   UNL     1      -0.575  -1.297   1.285  0.00  0.00    +0.076 C 
ATOM     24  C   UNL     1      -0.577  -2.819   1.438  0.00  0.00    +0.022 C 
ATOM     25  C   UNL     1      -0.103  -3.464   0.134  0.00  0.00    +0.002 C 
ATOM     26  C   UNL     1      -1.045  -3.065  -1.004  0.00  0.00    +0.000 C 
ATOM     27  C   UNL     1      -1.042  -1.543  -1.157  0.00  0.00    +0.005 C 
ATOM     28  C   UNL     1      -1.516  -0.898   0.146  0.00  0.00    +0.006 C 
ATOM     29  C   UNL     1      -1.514   0.625  -0.007  0.00  0.00    +0.009 C 
ENDBRANCH  21  23
ENDBRANCH  17  19
ENDBRANCH  16  17
ENDBRANCH   4  16
TORSDOF 6
