REMARK  Name = ZINC11034664
REMARK  4 active torsions:
REMARK  status: ('A' for Active; 'I' for Inactive)
REMARK    1  A    between atoms: C_1  and  C_2
REMARK    2  A    between atoms: C_5  and  C_7
REMARK    3  A    between atoms: C_8  and  C_13
REMARK    4  A    between atoms: N_24  and  C_25
REMARK                            x       y       z     vdW  Elec       q    Type
REMARK                         _______ _______ _______ _____ _____    ______ ____
ROOT
ATOM      1  C   UNL     1       2.469   0.988  -0.464  0.00  0.00    +0.196 C 
ATOM      2  N   UNL     1       3.423   1.889  -1.121  0.00  0.00    -0.321 N 
ATOM      3  C   UNL     1       3.693   3.120  -0.534  0.00  0.00    +0.041 A 
ATOM      4  C   UNL     1       4.914   3.753  -0.698  0.00  0.00    +0.024 A 
ATOM      5  C   UNL     1       5.133   4.981  -0.104  0.00  0.00    +0.002 A 
ATOM      6  C   UNL     1       4.140   5.585   0.652  0.00  0.00    +0.001 A 
ATOM      7  C   UNL     1       2.920   4.966   0.828  0.00  0.00    +0.015 A 
ATOM      8  C   UNL     1       2.688   3.725   0.239  0.00  0.00    +0.058 A 
ATOM      9  C   UNL     1       1.409   3.014   0.412  0.00  0.00    +0.250 C 
ATOM     10  O   UNL     1       0.462   3.575   0.928  0.00  0.00    -0.270 OA
ATOM     11  N   UNL     1       1.300   1.736  -0.001  0.00  0.00    -0.272 N 
ATOM     12  H   UNL     1       3.858   1.630  -1.948  0.00  0.00    +0.148 HD
ENDROOT
BRANCH   1  14
ATOM     13  C   UNL     1       4.497  -0.044   0.796  0.00  0.00    +0.134 A 
ATOM     14  C   UNL     1       3.140   0.330   0.714  0.00  0.00    +0.039 A 
ATOM     15  C   UNL     1       2.549  -0.002   1.882  0.00  0.00    +0.112 A 
ATOM     16  N   UNL     1       3.481  -0.572   2.676  0.00  0.00    -0.284 N 
ATOM     17  H   UNL     1       3.330  -0.923   3.600  0.00  0.00    +0.188 HD
ATOM     18  N   UNL     1       4.697  -0.586   1.980  0.00  0.00    -0.170 NA
BRANCH  13  23
ATOM     19  C   UNL     1       6.634   0.264  -3.737  0.00  0.00    +0.086 C 
ATOM     20  C   UNL     1       6.455   0.277  -2.240  0.00  0.00    +0.103 A 
ATOM     21  C   UNL     1       7.424   0.516  -1.335  0.00  0.00    +0.045 A 
ATOM     22  C   UNL     1       6.828   0.431  -0.061  0.00  0.00    +0.052 A 
ATOM     23  C   UNL     1       5.516   0.141  -0.260  0.00  0.00    +0.155 A 
ATOM     24  O   UNL     1       5.305   0.044  -1.587  0.00  0.00    -0.458 OA
ENDBRANCH  13  23
ENDBRANCH   1  14
BRANCH  11  25
ATOM     25  C   UNL     1      -0.013   1.086   0.008  0.00  0.00    +0.079 C 
ATOM     26  C   UNL     1      -1.189   1.861  -0.590  0.00  0.00    +0.024 C 
ATOM     27  C   UNL     1      -0.601   0.663  -1.340  0.00  0.00    +0.024 C 
ENDBRANCH  11  25
TORSDOF 3
