REMARK  Name = ZINC20548992
REMARK  7 active torsions:
REMARK  status: ('A' for Active; 'I' for Inactive)
REMARK    1  A    between atoms: C_1  and  O_2
REMARK    2  A    between atoms: O_2  and  C_3
REMARK    3  A    between atoms: C_3  and  C_4
REMARK    4  A    between atoms: C_4  and  C_5
REMARK    5  A    between atoms: C_5  and  N_6
REMARK    6  A    between atoms: C_11  and  C_29
REMARK    7  A    between atoms: C_29  and  C_30
REMARK                            x       y       z     vdW  Elec       q    Type
REMARK                         _______ _______ _______ _____ _____    ______ ____
ROOT
ATOM      1  N   UNL     1       1.272  -4.165  -2.169  0.00  0.00    -0.241 N 
ATOM      2  C   UNL     1       2.231  -4.876  -1.565  0.00  0.00    +0.227 C 
ATOM      3  O   UNL     1       3.219  -4.413  -1.037  0.00  0.00    -0.275 OA
ATOM      4  C   UNL     1       1.889  -6.346  -1.641  0.00  0.00    +0.107 C 
ATOM      5  C   UNL     1       2.905  -7.059  -2.559  0.00  0.00    +0.076 C 
ATOM      6  N   UNL     1       2.349  -6.911  -3.930  0.00  0.00    -0.295 NA
ATOM      7  C   UNL     1       0.895  -7.075  -3.750  0.00  0.00    +0.136 C 
ATOM      8  C   UNL     1       0.544  -6.362  -2.420  0.00  0.00    +0.122 C 
ATOM      9  C   UNL     1       0.274  -4.897  -2.676  0.00  0.00    +0.228 C 
ATOM     10  O   UNL     1      -0.696  -4.454  -3.255  0.00  0.00    -0.275 OA
ATOM     11  C   UNL     1       0.126  -6.500  -4.906  0.00  0.00    +0.005 A 
ATOM     12  C   UNL     1       0.042  -5.241  -5.457  0.00  0.00    +0.027 A 
ATOM     13  C   UNL     1      -0.776  -5.017  -6.551  0.00  0.00    +0.041 A 
ATOM     14  C   UNL     1      -1.510  -6.061  -7.087  0.00  0.00    +0.022 A 
ATOM     15  C   UNL     1      -1.429  -7.323  -6.537  0.00  0.00    +0.025 A 
ATOM     16  C   UNL     1      -0.607  -7.557  -5.437  0.00  0.00    +0.039 A 
ATOM     17  N   UNL     1      -0.362  -8.727  -4.714  0.00  0.00    -0.283 N 
ATOM     18  C   UNL     1       0.508  -8.528  -3.705  0.00  0.00    +0.243 C 
ATOM     19  O   UNL     1       0.903  -9.358  -2.915  0.00  0.00    -0.273 OA
ATOM     20 CL   UNL     1      -0.883  -3.430  -7.247  0.00  0.00    -0.084 Cl
ATOM     21  H   UNL     1       2.566  -6.002  -4.312  0.00  0.00    +0.124 HD
ATOM     22  H   UNL     1      -0.771  -9.583  -4.914  0.00  0.00    +0.155 HD
ENDROOT
BRANCH   1  23
ATOM     23  C   UNL     1       1.309  -2.703  -2.261  0.00  0.00    +0.118 C 
BRANCH  23  24
ATOM     24  C   UNL     1       0.613  -2.097  -1.041  0.00  0.00    +0.047 C 
BRANCH  24  25
ATOM     25  C   UNL     1       0.652  -0.570  -1.138  0.00  0.00    +0.161 C 
BRANCH  25  27
ATOM     26  C   UNL     1      -0.017   1.425   0.010  0.00  0.00    +0.193 C 
ATOM     27  O   UNL     1       0.002  -0.004   0.002  0.00  0.00    -0.383 OA
ENDBRANCH  25  27
ENDBRANCH  24  25
ENDBRANCH  23  24
ENDBRANCH   1  23
BRANCH   5  28
ATOM     28  C   UNL     1       4.275  -6.385  -2.461  0.00  0.00    +0.115 C 
BRANCH  28  29
ATOM     29  C   UNL     1       5.278  -7.169  -3.267  0.00  0.00    +0.212 C 
ATOM     30  O   UNL     1       4.932  -8.168  -3.861  0.00  0.00    -0.276 OA
ATOM     31  N   UNL     1       6.561  -6.760  -3.328  0.00  0.00    -0.329 N 
ATOM     32  H   UNL     1       6.838  -5.961  -2.852  0.00  0.00    +0.145 HD
ATOM     33  H   UNL     1       7.207  -7.264  -3.846  0.00  0.00    +0.145 HD
ENDBRANCH  28  29
ENDBRANCH   5  28
TORSDOF 6
