REMARK  Name = ZINC39631749
REMARK  14 active torsions:
REMARK  status: ('A' for Active; 'I' for Inactive)
REMARK    1  A    between atoms: C_1  and  C_2
REMARK    2  A    between atoms: C_2  and  C_3
REMARK    3  A    between atoms: C_3  and  C_5
REMARK    4  A    between atoms: C_3  and  C_11
REMARK    5  A    between atoms: C_15  and  C_24
REMARK    6  A    between atoms: N_26  and  C_27
REMARK    7  A    between atoms: C_27  and  C_29
REMARK    8  A    between atoms: C_27  and  C_30
REMARK    9  A    between atoms: C_30  and  C_31
REMARK   10  A    between atoms: C_31  and  C_32
REMARK   11  A    between atoms: C_32  and  C_33
REMARK   12  A    between atoms: C_33  and  C_34
REMARK   13  A    between atoms: C_33  and  C_35
REMARK   14  A    between atoms: C_33  and  O_36
REMARK                            x       y       z     vdW  Elec       q    Type
REMARK                         _______ _______ _______ _____ _____    ______ ____
ROOT
ATOM      1  C   UNL     1      -3.369  -2.054   0.472  0.00  0.00    +0.223 C 
ATOM      2  O   UNL     1      -3.926  -2.942  -0.139  0.00  0.00    -0.275 OA
ATOM      3  N   UNL     1      -2.438  -2.355   1.399  0.00  0.00    -0.300 N 
ATOM      4  C   UNL     1      -1.603  -1.416   2.185  0.00  0.00    +0.121 C 
ATOM      5  C   UNL     1      -1.542  -2.038   3.598  0.00  0.00    +0.100 C 
ATOM      6  C   UNL     1      -1.813  -3.536   3.380  0.00  0.00    -0.004 C 
ATOM      7  C   UNL     1      -2.023  -3.699   1.867  0.00  0.00    +0.115 C 
ATOM      8  C   UNL     1      -0.616  -4.363   3.840  0.00  0.00    -0.010 C 
ATOM      9  C   UNL     1      -0.933  -5.851   3.667  0.00  0.00    -0.082 C 
ATOM     10  N   UNL     1      -2.122  -6.195   4.455  0.00  0.00    +0.379 N 
ATOM     11  C   UNL     1      -3.289  -5.465   3.945  0.00  0.00    -0.082 C 
ATOM     12  C   UNL     1      -3.072  -3.960   4.130  0.00  0.00    -0.010 C 
ATOM     13  H   UNL     1      -2.293  -7.187   4.388  0.00  0.00    -0.086 HD
ATOM     14  H   UNL     1      -1.968  -5.947   5.421  0.00  0.00    -0.086 HD
ENDROOT
BRANCH   5  15
ATOM     15  C   UNL     1      -2.601  -1.434   4.484  0.00  0.00    +0.218 C 
ATOM     16  O   UNL     1      -3.642  -1.039   4.001  0.00  0.00    -0.275 OA
ATOM     17  N   UNL     1      -2.393  -1.333   5.811  0.00  0.00    -0.312 N 
ATOM     18  H   UNL     1      -1.534  -1.581   6.188  0.00  0.00    +0.149 HD
BRANCH  17  19
ATOM     19  C   UNL     1      -3.464  -0.849   6.686  0.00  0.00    +0.070 C 
ATOM     20  C   UNL     1      -4.387  -2.013   7.054  0.00  0.00    +0.028 C 
BRANCH  19  21
ATOM     21  C   UNL     1      -2.854  -0.260   7.960  0.00  0.00    +0.022 C 
BRANCH  21  22
ATOM     22  C   UNL     1      -2.033   0.981   7.605  0.00  0.00    +0.005 C 
BRANCH  22  23
ATOM     23  C   UNL     1      -1.337   1.509   8.861  0.00  0.00    +0.034 C 
BRANCH  23  24
ATOM     24  C   UNL     1      -0.621   2.821   8.535  0.00  0.00    +0.061 C 
ATOM     25  C   UNL     1       0.041   3.369   9.800  0.00  0.00    +0.041 C 
ATOM     26  C   UNL     1       0.448   2.567   7.470  0.00  0.00    +0.041 C 
BRANCH  24  27
ATOM     27  O   UNL     1      -1.568   3.771   8.042  0.00  0.00    -0.389 OA
ATOM     28  H   UNL     1      -1.183   4.628   7.814  0.00  0.00    +0.210 HD
ENDBRANCH  24  27
ENDBRANCH  23  24
ENDBRANCH  22  23
ENDBRANCH  21  22
ENDBRANCH  19  21
ENDBRANCH  17  19
ENDBRANCH   5  15
BRANCH   1  29
ATOM     29  C   UNL     1      -3.718  -0.615   0.193  0.00  0.00    +0.105 C 
BRANCH  29  30
ATOM     30  C   UNL     1      -5.099  -0.540  -0.405  0.00  0.00    -0.036 A 
ATOM     31  C   UNL     1      -5.375  -1.191  -1.593  0.00  0.00    +0.004 A 
ATOM     32  C   UNL     1      -6.642  -1.121  -2.141  0.00  0.00    +0.000 A 
ATOM     33  C   UNL     1      -7.633  -0.402  -1.501  0.00  0.00    +0.000 A 
ATOM     34  C   UNL     1      -7.358   0.248  -0.313  0.00  0.00    +0.000 A 
ATOM     35  C   UNL     1      -6.093   0.176   0.238  0.00  0.00    +0.004 A 
ENDBRANCH  29  30
BRANCH  29  37
ATOM     36  C   UNL     1      -2.968   1.473  -0.956  0.00  0.00    +0.005 C 
ATOM     37  C   UNL     1      -2.704  -0.025  -0.789  0.00  0.00    +0.014 C 
ENDBRANCH  29  37
ENDBRANCH   1  29
TORSDOF 10
