REMARK  Name = ZINC14532239
REMARK  7 active torsions:
REMARK  status: ('A' for Active; 'I' for Inactive)
REMARK    1  A    between atoms: C_6  and  C_7
REMARK    2  A    between atoms: C_8  and  C_13
REMARK    3  A    between atoms: C_13  and  N_67
REMARK    4  A    between atoms: C_15  and  O_28
REMARK    5  A    between atoms: N_18  and  C_22
REMARK    6  A    between atoms: O_28  and  C_29
REMARK    7  A    between atoms: C_29  and  C_30
REMARK                            x       y       z     vdW  Elec       q    Type
REMARK                         _______ _______ _______ _____ _____    ______ ____
ROOT
ATOM      1  C   UNL     1       4.414   5.071  -1.351  0.00  0.00    -0.044 C 
ATOM      2  C   UNL     1       4.356   6.356  -0.547  0.00  0.00    +0.120 C 
ATOM      3  C   UNL     1       5.410   6.349   0.563  0.00  0.00    +0.137 C 
ATOM      4  N   UNL     1       4.845   5.664   1.738  0.00  0.00    -0.298 N 
ATOM      5  C   UNL     1       4.633   4.345   1.700  0.00  0.00    +0.199 C 
ATOM      6  O   UNL     1       4.159   3.782   2.664  0.00  0.00    -0.278 OA
ATOM      7  C   UNL     1       4.985   3.551   0.460  0.00  0.00    +0.019 C 
ATOM      8  N   UNL     1       3.987   3.883  -0.586  0.00  0.00    +0.390 N 
ATOM      9  H   UNL     1       3.089   4.087  -0.132  0.00  0.00    -0.081 HD
ENDROOT
BRANCH   4  10
ATOM     10  C   UNL     1       4.514   6.427   2.944  0.00  0.00    +0.076 C 
ATOM     11  C   UNL     1       5.325   5.891   4.125  0.00  0.00    +0.022 C 
ATOM     12  C   UNL     1       4.979   6.687   5.385  0.00  0.00    +0.002 C 
ATOM     13  C   UNL     1       3.486   6.544   5.685  0.00  0.00    +0.000 C 
ATOM     14  C   UNL     1       2.675   7.080   4.504  0.00  0.00    +0.002 C 
ATOM     15  C   UNL     1       3.020   6.284   3.244  0.00  0.00    +0.022 C 
ENDBRANCH   4  10
BRANCH   8  16
ATOM     16  C   UNL     1       3.811   2.740  -1.496  0.00  0.00    -0.039 C 
BRANCH  16  18
ATOM     17  C   UNL     1       2.481   1.069  -0.016  0.00  0.00    +0.094 A 
ATOM     18  C   UNL     1       3.652   1.485  -0.678  0.00  0.00    -0.019 A 
ATOM     19  C   UNL     1       4.608   0.558  -0.450  0.00  0.00    +0.107 A 
ATOM     20  N   UNL     1       4.074  -0.411   0.324  0.00  0.00    -0.284 N 
ATOM     21  H   UNL     1       4.547  -1.229   0.651  0.00  0.00    +0.188 HD
ATOM     22  N   UNL     1       2.741  -0.070   0.591  0.00  0.00    -0.174 NA
BRANCH  17  28
ATOM     23  C   UNL     1      -0.013   1.076   0.008  0.00  0.00    +0.013 A 
ATOM     24  C   UNL     1      -1.216   1.750   0.017  0.00  0.00    +0.039 A 
ATOM     25  C   UNL     1      -1.236   3.136   0.029  0.00  0.00    +0.123 A 
ATOM     26  C   UNL     1      -0.049   3.849   0.022  0.00  0.00    +0.039 A 
ATOM     27  C   UNL     1       1.159   3.183   0.008  0.00  0.00    +0.013 A 
ATOM     28  C   UNL     1       1.184   1.790   0.000  0.00  0.00    +0.002 A 
ATOM     29  F   UNL     1      -2.417   3.792   0.043  0.00  0.00    -0.205 F 
ENDBRANCH  17  28
ENDBRANCH  16  18
ENDBRANCH   8  16
BRANCH   2  30
ATOM     30  O   UNL     1       4.594   7.466  -1.415  0.00  0.00    -0.372 OA
BRANCH  30  31
ATOM     31  C   UNL     1       3.410   8.007  -2.004  0.00  0.00    +0.195 C 
BRANCH  31  32
ATOM     32  C   UNL     1       3.777   9.166  -2.895  0.00  0.00    -0.019 A 
ATOM     33  C   UNL     1       3.827  10.458  -2.395  0.00  0.00    +0.025 A 
ATOM     34  C   UNL     1       4.172  11.495  -3.241  0.00  0.00    +0.111 A 
ATOM     35  N   UNL     1       4.442  11.267  -4.512  0.00  0.00    -0.263 NA
ATOM     36  C   UNL     1       4.400  10.052  -5.023  0.00  0.00    +0.111 A 
ATOM     37  C   UNL     1       4.067   8.966  -4.236  0.00  0.00    +0.025 A 
ENDBRANCH  31  32
ENDBRANCH  30  31
ENDBRANCH   2  30
TORSDOF 7
