REMARK  Name = ZINC65834513
REMARK  8 active torsions:
REMARK  status: ('A' for Active; 'I' for Inactive)
REMARK    1  A    between atoms: C_1  and  C_2
REMARK    2  A    between atoms: C_2  and  C_3
REMARK    3  A    between atoms: C_2  and  C_4
REMARK    4  A    between atoms: C_2  and  O_5
REMARK    5  A    between atoms: O_5  and  C_6
REMARK    6  A    between atoms: N_8  and  N_9
REMARK    7  A    between atoms: C_10  and  C_12
REMARK    8  A    between atoms: C_13  and  C_17
REMARK                            x       y       z     vdW  Elec       q    Type
REMARK                         _______ _______ _______ _____ _____    ______ ____
ROOT
ATOM      1  N   UNL     1       2.023  -1.296  -3.385  0.00  0.00    -0.227 N 
ATOM      2  C   UNL     1       2.712  -1.696  -4.472  0.00  0.00    +0.267 C 
ATOM      3  O   UNL     1       3.870  -1.353  -4.620  0.00  0.00    -0.268 OA
ATOM      4  H   UNL     1       1.100  -1.570  -3.267  0.00  0.00    +0.173 HD
ENDROOT
BRANCH   2   5
ATOM      5  C   UNL     1       2.067  -2.544  -5.475  0.00  0.00    +0.083 A 
ATOM      6  C   UNL     1       2.597  -3.068  -6.658  0.00  0.00    +0.001 A 
ATOM      7  C   UNL     1       1.723  -3.843  -7.404  0.00  0.00    +0.017 A 
ATOM      8  C   UNL     1       0.464  -4.032  -6.952  0.00  0.00    +0.046 A 
ATOM      9  S   UNL     1       0.403  -3.183  -5.504  0.00  0.00    -0.091 S 
BRANCH   6  10
ATOM     10  C   UNL     1       3.992  -2.812  -7.085  0.00  0.00    -0.016 A 
ATOM     11  C   UNL     1       4.491  -1.510  -7.103  0.00  0.00    +0.011 A 
ATOM     12  C   UNL     1       5.791  -1.277  -7.501  0.00  0.00    +0.039 A 
ATOM     13  C   UNL     1       6.601  -2.334  -7.882  0.00  0.00    +0.123 A 
ATOM     14  C   UNL     1       6.111  -3.630  -7.865  0.00  0.00    +0.039 A 
ATOM     15  C   UNL     1       4.814  -3.874  -7.463  0.00  0.00    +0.011 A 
ATOM     16  F   UNL     1       7.873  -2.101  -8.271  0.00  0.00    -0.205 F 
ENDBRANCH   6  10
ENDBRANCH   2   5
BRANCH   1  19
ATOM     17  C   UNL     1       1.952  -0.085  -1.337  0.00  0.00    +0.417 C 
ATOM     18  O   UNL     1       2.488   0.619  -0.503  0.00  0.00    -0.225 OA
ATOM     19  N   UNL     1       2.641  -0.485  -2.424  0.00  0.00    -0.199 N 
ATOM     20  H   UNL     1       3.564  -0.211  -2.541  0.00  0.00    +0.176 HD
BRANCH  17  21
ATOM     21  O   UNL     1       0.671  -0.465  -1.174  0.00  0.00    -0.444 OA
BRANCH  21  23
ATOM     22  C   UNL     1      -0.019   1.526   0.010  0.00  0.00    +0.055 C 
ATOM     23  C   UNL     1       0.002  -0.004   0.002  0.00  0.00    +0.107 C 
ATOM     24  C   UNL     1       0.742  -0.511   1.242  0.00  0.00    +0.055 C 
ATOM     25  C   UNL     1      -1.433  -0.534   0.013  0.00  0.00    +0.055 C 
ENDBRANCH  21  23
ENDBRANCH  17  21
ENDBRANCH   1  19
TORSDOF 5
