REMARK  Name = ZINC41892296
REMARK  4 active torsions:
REMARK  status: ('A' for Active; 'I' for Inactive)
REMARK    1  A    between atoms: C_1  and  C_2
REMARK    2  A    between atoms: C_2  and  C_3
REMARK    3  A    between atoms: C_2  and  C_11
REMARK    4  A    between atoms: C_2  and  N_14
REMARK                            x       y       z     vdW  Elec       q    Type
REMARK                         _______ _______ _______ _____ _____    ______ ____
ROOT
ATOM      1  C   UNL     1      -0.021   1.524   0.086  0.00  0.00    +0.052 C 
ATOM      2  C   UNL     1       0.002  -0.004   0.002  0.00  0.00    +0.172 C 
ENDROOT
BRANCH   2   3
ATOM      3  C   UNL     1       0.786  -0.559   1.164  0.00  0.00    +0.024 A 
ATOM      4  C   UNL     1       0.148  -1.316   2.128  0.00  0.00    +0.012 A 
ATOM      5  C   UNL     1       0.865  -1.826   3.194  0.00  0.00    +0.039 A 
ATOM      6  C   UNL     1       2.224  -1.578   3.296  0.00  0.00    +0.126 A 
ATOM      7  C   UNL     1       2.863  -0.820   2.331  0.00  0.00    +0.077 A 
ATOM      8  C   UNL     1       2.145  -0.315   1.261  0.00  0.00    +0.132 A 
ATOM      9  F   UNL     1       2.769   0.420   0.315  0.00  0.00    -0.205 F 
ATOM     10  F   UNL     1       2.925  -2.076   4.339  0.00  0.00    -0.205 F 
ENDBRANCH   2   3
BRANCH   2  11
ATOM     11  N   UNL     1       0.634  -0.415  -1.254  0.00  0.00    -0.318 N 
ATOM     12  C   UNL     1       1.221   0.409  -2.176  0.00  0.00    +0.106 A 
ATOM     13  C   UNL     1       1.672  -0.378  -3.171  0.00  0.00    +0.101 A 
ATOM     14  N   UNL     1       1.370  -1.648  -2.865  0.00  0.00    -0.352 N 
ATOM     15  C   UNL     1       0.752  -1.679  -1.716  0.00  0.00    +0.175 A 
ATOM     16  H   UNL     1       1.580  -2.422  -3.410  0.00  0.00    +0.166 HD
ENDBRANCH   2  11
BRANCH   2  17
ATOM     17  C   UNL     1      -1.409  -0.531   0.050  0.00  0.00    +0.386 C 
ATOM     18  O   UNL     1      -2.346   0.243   0.143  0.00  0.00    -0.243 OA
ATOM     19  O   UNL     1      -1.613  -1.732  -0.003  0.00  0.00    -0.243 OA
ENDBRANCH   2  17
TORSDOF 3
