REMARK  Name = ZINC03340933
REMARK  7 active torsions:
REMARK  status: ('A' for Active; 'I' for Inactive)
REMARK    1  A    between atoms: C_1  and  C_2
REMARK    2  A    between atoms: C_2  and  C_4
REMARK    3  A    between atoms: C_2  and  S_10
REMARK    4  A    between atoms: S_10  and  C_11
REMARK    5  A    between atoms: C_14  and  C_26
REMARK    6  A    between atoms: N_15  and  C_16
REMARK    7  A    between atoms: C_21  and  C_22
REMARK                            x       y       z     vdW  Elec       q    Type
REMARK                         _______ _______ _______ _____ _____    ______ ____
ROOT
ATOM      1  C   UNL     1       4.604   0.581   0.121  0.00  0.00    +0.197 A 
ATOM      2  N   UNL     1       3.913  -0.484  -0.218  0.00  0.00    -0.122 NA
ATOM      3  N   UNL     1       2.664  -0.194  -0.298  0.00  0.00    -0.128 NA
ATOM      4  C   UNL     1       2.478   1.075  -0.016  0.00  0.00    +0.169 A 
ATOM      5  N   UNL     1       3.717   1.614   0.257  0.00  0.00    -0.270 N 
ENDROOT
BRANCH   4   6
ATOM      6  C   UNL     1       1.185   1.792   0.000  0.00  0.00    +0.021 A 
ATOM      7  C   UNL     1       1.158   3.188   0.008  0.00  0.00    +0.012 A 
ATOM      8  C   UNL     1      -0.052   3.851   0.022  0.00  0.00    +0.002 A 
ATOM      9  C   UNL     1      -1.236   3.136   0.030  0.00  0.00    +0.020 A 
ATOM     10  C   UNL     1      -1.217   1.752   0.017  0.00  0.00    +0.042 A 
ATOM     11  C   UNL     1      -0.013   1.076   0.008  0.00  0.00    +0.031 A 
ATOM     12 CL   UNL     1      -2.709   0.864   0.020  0.00  0.00    -0.084 Cl
ENDBRANCH   4   6
BRANCH   5  13
ATOM     13  C   UNL     1       4.006   2.941   0.603  0.00  0.00    +0.062 A 
ATOM     14  C   UNL     1       4.013   3.326   1.937  0.00  0.00    +0.027 A 
ATOM     15  C   UNL     1       4.300   4.634   2.275  0.00  0.00    +0.002 A 
ATOM     16  C   UNL     1       4.579   5.560   1.287  0.00  0.00    +0.001 A 
ATOM     17  C   UNL     1       4.573   5.179  -0.042  0.00  0.00    +0.014 A 
ATOM     18  C   UNL     1       4.292   3.871  -0.387  0.00  0.00    +0.079 A 
BRANCH  18  19
ATOM     19  C   UNL     1       4.292   3.456  -1.835  0.00  0.00    +0.419 C 
ATOM     20  F   UNL     1       4.606   4.559  -2.637  0.00  0.00    -0.166 F 
ATOM     21  F   UNL     1       5.244   2.450  -2.032  0.00  0.00    -0.166 F 
ATOM     22  F   UNL     1       3.025   2.973  -2.182  0.00  0.00    -0.166 F 
ENDBRANCH  18  19
ENDBRANCH   5  13
BRANCH   1  23
ATOM     23  S   UNL     1       6.349   0.666   0.352  0.00  0.00    -0.073 S 
BRANCH  23  25
ATOM     24  C   UNL     1       6.184  -1.970   1.053  0.00  0.00    +0.029 C 
ATOM     25  C   UNL     1       6.797  -1.051  -0.006  0.00  0.00    +0.137 C 
BRANCH  25  26
ATOM     26  C   UNL     1       8.297  -1.193   0.013  0.00  0.00    +0.233 C 
ATOM     27  O   UNL     1       8.971  -0.419   0.657  0.00  0.00    -0.274 OA
ATOM     28  N   UNL     1       8.889  -2.181  -0.688  0.00  0.00    -0.239 N 
ATOM     29  C   UNL     1      10.230  -2.308  -0.671  0.00  0.00    +0.303 C 
ATOM     30  O   UNL     1      10.906  -1.532  -0.024  0.00  0.00    -0.253 OA
ATOM     31  N   UNL     1      10.822  -3.296  -1.371  0.00  0.00    -0.313 N 
ATOM     32  H   UNL     1       8.349  -2.800  -1.204  0.00  0.00    +0.159 HD
ATOM     33  H   UNL     1      10.283  -3.916  -1.887  0.00  0.00    +0.146 HD
ATOM     34  H   UNL     1      11.788  -3.388  -1.359  0.00  0.00    +0.146 HD
ENDBRANCH  25  26
ENDBRANCH  23  25
ENDBRANCH   1  23
TORSDOF 6
