REMARK  Name = ZINC45766051
REMARK  7 active torsions:
REMARK  status: ('A' for Active; 'I' for Inactive)
REMARK    1  A    between atoms: C_1  and  C_2
REMARK    2  A    between atoms: C_2  and  C_3
REMARK    3  A    between atoms: C_3  and  C_34
REMARK    4  A    between atoms: N_6  and  N_10
REMARK    5  A    between atoms: C_11  and  C_13
REMARK    6  A    between atoms: C_13  and  N_14
REMARK    7  A    between atoms: C_27  and  C_29
REMARK                            x       y       z     vdW  Elec       q    Type
REMARK                         _______ _______ _______ _____ _____    ______ ____
ROOT
ATOM      1  N   UNL     1      -5.402  -5.754  -1.928  0.00  0.00    +0.390 N 
ATOM      2  C   UNL     1      -5.772  -7.087  -2.428  0.00  0.00    -0.066 C 
ATOM      3  C   UNL     1      -7.282  -7.260  -2.284  0.00  0.00    -0.019 C 
ATOM      4  C   UNL     1      -7.669  -8.720  -2.585  0.00  0.00    +0.010 C 
ATOM      5  C   UNL     1      -9.020  -8.606  -3.335  0.00  0.00    +0.001 C 
ATOM      6  C   UNL     1      -8.820  -7.345  -4.211  0.00  0.00    +0.001 C 
ATOM      7  C   UNL     1      -8.012  -6.385  -3.313  0.00  0.00    +0.010 C 
ATOM      8  C   UNL     1      -7.725  -6.894  -0.893  0.00  0.00    -0.038 A 
ATOM      9  C   UNL     1      -8.984  -7.289  -0.467  0.00  0.00    +0.053 A 
ATOM     10  C   UNL     1      -9.426  -6.967   0.805  0.00  0.00    +0.162 A 
ATOM     11  C   UNL     1      -8.600  -6.245   1.659  0.00  0.00    +0.162 A 
ATOM     12  C   UNL     1      -7.343  -5.853   1.228  0.00  0.00    +0.051 A 
ATOM     13  C   UNL     1      -6.904  -6.179  -0.046  0.00  0.00    -0.054 A 
ATOM     14  C   UNL     1      -5.527  -5.739  -0.468  0.00  0.00    -0.040 C 
ATOM     15  C   UNL     1      -5.271  -4.320   0.045  0.00  0.00    -0.008 C 
ATOM     16  O   UNL     1      -9.010  -5.921   2.916  0.00  0.00    -0.485 OA
ATOM     17  C   UNL     1     -10.415  -6.009   3.176  0.00  0.00    +0.270 C 
ATOM     18  C   UNL     1     -10.926  -7.341   2.612  0.00  0.00    +0.270 C 
ATOM     19  O   UNL     1     -10.666  -7.361   1.204  0.00  0.00    -0.485 OA
ATOM     20  H   UNL     1      -6.017  -5.060  -2.326  0.00  0.00    -0.080 HD
ENDROOT
BRANCH   1  21
ATOM     21  C   UNL     1      -4.014  -5.455  -2.306  0.00  0.00    +0.021 C 
BRANCH  21  23
ATOM     22  N   UNL     1      -2.718  -5.157  -4.391  0.00  0.00    -0.225 N 
ATOM     23  C   UNL     1      -3.921  -5.316  -3.804  0.00  0.00    +0.213 C 
ATOM     24  O   UNL     1      -4.927  -5.347  -4.480  0.00  0.00    -0.276 OA
ATOM     25  H   UNL     1      -1.913  -5.131  -3.851  0.00  0.00    +0.173 HD
BRANCH  22  29
ATOM     26  C   UNL     1      -2.385  -4.203  -7.900  0.00  0.00    +0.111 C 
ATOM     27  C   UNL     1      -2.393  -3.865  -6.423  0.00  0.00    +0.263 C 
ATOM     28  O   UNL     1      -2.222  -2.775  -5.920  0.00  0.00    -0.271 OA
ATOM     29  N   UNL     1      -2.631  -5.027  -5.784  0.00  0.00    -0.137 N 
ATOM     30  C   UNL     1      -2.773  -6.043  -6.643  0.00  0.00    +0.326 C 
ATOM     31  O   UNL     1      -2.994  -7.189  -6.304  0.00  0.00    -0.251 OA
ATOM     32  N   UNL     1      -2.644  -5.653  -7.925  0.00  0.00    -0.284 N 
ATOM     33  C   UNL     1      -3.493  -3.446  -8.635  0.00  0.00    +0.041 C 
ATOM     34  H   UNL     1      -2.708  -6.217  -8.711  0.00  0.00    +0.151 HD
BRANCH  26  36
ATOM     35  C   UNL     1      -1.005  -4.341  -9.979  0.00  0.00    +0.006 C 
ATOM     36  C   UNL     1      -1.020  -3.889  -8.517  0.00  0.00    +0.032 C 
ENDBRANCH  26  36
ENDBRANCH  22  29
ENDBRANCH  21  23
ENDBRANCH   1  21
TORSDOF 4
