REMARK  Name = ZINC36537328
REMARK  14 active torsions:
REMARK  status: ('A' for Active; 'I' for Inactive)
REMARK    1  A    between atoms: C_1  and  C_2
REMARK    2  A    between atoms: C_2  and  C_3
REMARK    3  A    between atoms: C_2  and  C_4
REMARK    4  A    between atoms: C_2  and  C_5
REMARK    5  A    between atoms: C_5  and  C_6
REMARK    6  A    between atoms: C_6  and  C_7
REMARK    7  A    between atoms: C_6  and  C_8
REMARK    8  A    between atoms: C_6  and  N_9
REMARK    9  A    between atoms: C_10  and  C_12
REMARK   10  A    between atoms: C_12  and  C_14
REMARK   11  A    between atoms: C_12  and  N_24
REMARK   12  A    between atoms: C_16  and  N_21
REMARK   13  A    between atoms: N_24  and  C_25
REMARK   14  A    between atoms: C_26  and  C_28
REMARK                            x       y       z     vdW  Elec       q    Type
REMARK                         _______ _______ _______ _____ _____    ______ ____
ROOT
ATOM      1  C   UNL     1       5.306  -0.492  -4.412  0.00  0.00    +0.193 C 
ENDROOT
BRANCH   1   2
ATOM      2  C   UNL     1       4.772   0.466  -5.445  0.00  0.00    +0.002 A 
ATOM      3  C   UNL     1       4.067   1.587  -5.050  0.00  0.00    +0.040 A 
ATOM      4  C   UNL     1       3.576   2.465  -5.997  0.00  0.00    +0.127 A 
ATOM      5  C   UNL     1       3.790   2.223  -7.342  0.00  0.00    +0.034 A 
ATOM      6  C   UNL     1       4.495   1.103  -7.738  0.00  0.00    +0.022 A 
ATOM      7  C   UNL     1       4.992   0.226  -6.790  0.00  0.00    +0.047 A 
ATOM      8 CL   UNL     1       5.883  -1.178  -7.287  0.00  0.00    -0.083 Cl
BRANCH   4   9
ATOM      9  N   UNL     1       2.821   3.666  -5.573  0.00  0.00    +0.056 N 
ATOM     10  O   UNL     1       2.634   3.877  -4.398  0.00  0.00    -0.126 OA
ATOM     11  O   UNL     1       2.392   4.434  -6.402  0.00  0.00    -0.126 OA
ENDBRANCH   4   9
ENDBRANCH   1   2
BRANCH   1  13
ATOM     12  N   UNL     1       3.229  -1.019  -3.177  0.00  0.00    -0.308 N 
ATOM     13  C   UNL     1       4.443  -0.433  -3.178  0.00  0.00    +0.239 C 
ATOM     14  O   UNL     1       4.840   0.141  -2.187  0.00  0.00    -0.273 OA
ATOM     15  H   UNL     1       2.938  -1.533  -3.947  0.00  0.00    +0.149 HD
BRANCH  12  16
ATOM     16  C   UNL     1       2.350  -0.881  -2.013  0.00  0.00    +0.030 C 
ATOM     17  C   UNL     1       2.190   0.601  -1.668  0.00  0.00    +0.031 C 
ATOM     18  C   UNL     1       2.962  -1.619  -0.821  0.00  0.00    +0.031 C 
BRANCH  16  19
ATOM     19  C   UNL     1       0.980  -1.481  -2.335  0.00  0.00    +0.031 C 
BRANCH  19  21
ATOM     20  C   UNL     1       1.237  -1.952  -4.775  0.00  0.00    +0.010 C 
ATOM     21  C   UNL     1       0.554  -1.054  -3.742  0.00  0.00    -0.036 C 
ATOM     22  C   UNL     1       0.964   0.401  -3.979  0.00  0.00    +0.010 C 
ATOM     23  C   UNL     1      -0.964  -1.185  -3.877  0.00  0.00    +0.010 C 
ENDBRANCH  19  21
ENDBRANCH  16  19
ENDBRANCH  12  16
ENDBRANCH   1  13
BRANCH   1  24
ATOM     24  N   UNL     1       6.680  -0.119  -4.064  0.00  0.00    -0.287 N 
ATOM     25  C   UNL     1       6.951   1.179  -3.441  0.00  0.00    +0.133 C 
ATOM     26  C   UNL     1       7.694  -0.969  -4.318  0.00  0.00    +0.237 C 
ATOM     27  O   UNL     1       7.470  -2.044  -4.833  0.00  0.00    -0.274 OA
BRANCH  26  28
ATOM     28  C   UNL     1       9.107  -0.586  -3.960  0.00  0.00    +0.159 C 
ATOM     29  C   UNL     1       9.704   0.331  -5.051  0.00  0.00    +0.041 C 
ATOM     30  C   UNL     1      10.423  -0.690  -5.962  0.00  0.00    +0.098 C 
ATOM     31  C   UNL     1      10.712  -1.862  -5.050  0.00  0.00    +0.214 C 
ATOM     32  O   UNL     1      11.502  -2.751  -5.290  0.00  0.00    -0.276 OA
ATOM     33  N   UNL     1       9.965  -1.776  -3.933  0.00  0.00    -0.304 N 
ATOM     34  H   UNL     1       9.991  -2.416  -3.205  0.00  0.00    +0.149 HD
ENDBRANCH  26  28
ENDBRANCH   1  24
TORSDOF 8
