REMARK  Name = ZINC04555579
REMARK  8 active torsions:
REMARK  status: ('A' for Active; 'I' for Inactive)
REMARK    1  A    between atoms: C_1  and  C_2
REMARK    2  A    between atoms: C_2  and  C_3
REMARK    3  A    between atoms: C_2  and  C_4
REMARK    4  A    between atoms: C_7  and  C_10
REMARK    5  A    between atoms: C_21  and  C_22
REMARK    6  A    between atoms: C_21  and  C_23
REMARK    7  A    between atoms: C_21  and  N_53
REMARK    8  A    between atoms: C_24  and  O_26
REMARK                            x       y       z     vdW  Elec       q    Type
REMARK                         _______ _______ _______ _____ _____    ______ ____
ROOT
ATOM      1  C   UNL     1       3.655   1.320   0.069  0.00  0.00    +0.224 C 
ATOM      2  N   UNL     1       3.745   2.691  -0.469  0.00  0.00    -0.313 N 
ATOM      3  C   UNL     1       2.667   3.509  -0.234  0.00  0.00    +0.080 A 
ATOM      4  C   UNL     1       1.381   3.006   0.005  0.00  0.00    +0.067 A 
ATOM      5  C   UNL     1       0.345   3.999   0.217  0.00  0.00    -0.027 A 
ATOM      6  C   UNL     1       0.750   5.291   0.170  0.00  0.00    -0.021 A 
ATOM      7  S   UNL     1       2.490   5.210  -0.157  0.00  0.00    -0.080 S 
ATOM      8  C   UNL     1      -0.110   6.500   0.355  0.00  0.00    -0.035 C 
ATOM      9  C   UNL     1      -1.786   4.911   1.087  0.00  0.00    -0.073 C 
ATOM     10  C   UNL     1      -1.120   3.670   0.485  0.00  0.00    +0.018 C 
ATOM     11  C   UNL     1       1.217   1.530  -0.001  0.00  0.00    +0.220 C 
ATOM     12  N   UNL     1       2.297   0.798  -0.010  0.00  0.00    -0.223 NA
ATOM     13  H   UNL     1       4.523   2.997  -0.961  0.00  0.00    +0.149 HD
ATOM     14  N   UNL     1      -1.525   6.077   0.218  0.00  0.00    +0.384 N 
ATOM     15  H   UNL     1      -1.702   5.813  -0.758  0.00  0.00    -0.081 HD
ENDROOT
BRANCH   1  19
ATOM     16  C   UNL     1       4.884   1.344   4.160  0.00  0.00    -0.045 A 
ATOM     17  C   UNL     1       3.950   0.423   3.724  0.00  0.00    +0.004 A 
ATOM     18  C   UNL     1       3.553   0.415   2.400  0.00  0.00    +0.007 A 
ATOM     19  C   UNL     1       4.089   1.329   1.512  0.00  0.00    -0.005 A 
ATOM     20  C   UNL     1       5.026   2.247   1.947  0.00  0.00    +0.007 A 
ATOM     21  C   UNL     1       5.420   2.258   3.272  0.00  0.00    +0.004 A 
BRANCH  16  23
ATOM     22  C   UNL     1       6.826   1.105   5.684  0.00  0.00    +0.012 C 
ATOM     23  C   UNL     1       5.318   1.352   5.603  0.00  0.00    +0.013 C 
ATOM     24  C   UNL     1       4.989   2.710   6.227  0.00  0.00    +0.012 C 
ENDBRANCH  16  23
ENDBRANCH   1  19
BRANCH  14  25
ATOM     25  C   UNL     1      -2.424   7.192   0.585  0.00  0.00    -0.074 C 
ATOM     26  C   UNL     1      -2.175   7.626   2.031  0.00  0.00    -0.014 C 
ATOM     27  C   UNL     1      -2.162   8.372  -0.353  0.00  0.00    -0.014 C 
ENDBRANCH  14  25
BRANCH  11  28
ATOM     28  O   UNL     1      -0.011   0.963   0.007  0.00  0.00    -0.492 OA
ATOM     29  H   UNL     1       0.002  -0.004   0.002  0.00  0.00    +0.294 HD
ENDBRANCH  11  28
TORSDOF 4
