REMARK  Name = ZINC60318265
REMARK  9 active torsions:
REMARK  status: ('A' for Active; 'I' for Inactive)
REMARK    1  A    between atoms: C_4  and  N_7
REMARK    2  A    between atoms: N_7  and  C_8
REMARK    3  A    between atoms: N_7  and  S_13
REMARK    4  A    between atoms: C_8  and  C_9
REMARK    5  A    between atoms: C_9  and  C_10
REMARK    6  A    between atoms: S_13  and  C_16
REMARK    7  A    between atoms: C_19  and  O_23
REMARK    8  A    between atoms: O_23  and  C_24
REMARK    9  A    between atoms: C_24  and  C_25
REMARK                            x       y       z     vdW  Elec       q    Type
REMARK                         _______ _______ _______ _____ _____    ______ ____
ROOT
ATOM      1  S   UNL     1       4.941   0.036  -0.763  0.00  0.00    +0.075 S 
ATOM      2  O   UNL     1       5.840  -0.857  -1.405  0.00  0.00    -0.150 OA
ATOM      3  O   UNL     1       4.231   1.043  -1.472  0.00  0.00    -0.150 OA
ENDROOT
BRANCH   1   4
ATOM      4  C   UNL     1       5.859   0.859   0.496  0.00  0.00    +0.110 A 
ATOM      5  C   UNL     1       5.520   2.147   0.868  0.00  0.00    +0.032 A 
ATOM      6  C   UNL     1       6.238   2.794   1.854  0.00  0.00    +0.049 A 
ATOM      7  C   UNL     1       7.301   2.152   2.472  0.00  0.00    +0.140 A 
ATOM      8  C   UNL     1       7.640   0.859   2.097  0.00  0.00    +0.084 A 
ATOM      9  C   UNL     1       6.914   0.213   1.113  0.00  0.00    +0.052 A 
ATOM     10 CL   UNL     1       8.970   0.051   2.868  0.00  0.00    -0.080 Cl
BRANCH   7  11
ATOM     11  O   UNL     1       8.010   2.787   3.442  0.00  0.00    -0.479 OA
BRANCH  11  12
ATOM     12  C   UNL     1       7.605   4.117   3.776  0.00  0.00    +0.353 C 
BRANCH  12  13
ATOM     13  C   UNL     1       8.500   4.656   4.862  0.00  0.00    +0.393 C 
ATOM     14  O   UNL     1       9.400   3.966   5.309  0.00  0.00    -0.243 OA
ATOM     15  O   UNL     1       8.323   5.782   5.295  0.00  0.00    -0.243 OA
ENDBRANCH  12  13
ENDBRANCH  11  12
ENDBRANCH   7  11
ENDBRANCH   1   4
BRANCH   1  16
ATOM     16  N   UNL     1       3.803  -0.900  -0.006  0.00  0.00    -0.203 N 
BRANCH  16  20
ATOM     17  C   UNL     1       0.016   0.646   0.771  0.00  0.00    +0.000 A 
ATOM     18  C   UNL     1       1.098   1.498   0.651  0.00  0.00    +0.002 A 
ATOM     19  C   UNL     1       2.356   0.989   0.393  0.00  0.00    +0.025 A 
ATOM     20  C   UNL     1       2.533  -0.382   0.255  0.00  0.00    +0.051 A 
ATOM     21  C   UNL     1       1.444  -1.236   0.376  0.00  0.00    +0.025 A 
ATOM     22  C   UNL     1       0.189  -0.720   0.633  0.00  0.00    +0.002 A 
ENDBRANCH  16  20
BRANCH  16  23
ATOM     23  C   UNL     1       4.130  -2.272   0.389  0.00  0.00    +0.141 C 
BRANCH  23  24
ATOM     24  C   UNL     1       3.671  -3.241  -0.703  0.00  0.00    +0.116 C 
BRANCH  24  25
ATOM     25  C   UNL     1       4.007  -4.653  -0.296  0.00  0.00    +0.212 C 
ATOM     26  O   UNL     1       4.559  -4.863   0.763  0.00  0.00    -0.276 OA
ATOM     27  N   UNL     1       3.694  -5.681  -1.109  0.00  0.00    -0.329 N 
ATOM     28  H   UNL     1       3.252  -5.512  -1.956  0.00  0.00    +0.145 HD
ATOM     29  H   UNL     1       3.910  -6.590  -0.847  0.00  0.00    +0.145 HD
ENDBRANCH  24  25
ENDBRANCH  23  24
ENDBRANCH  16  23
ENDBRANCH   1  16
TORSDOF 9
