REMARK  Name = ZINC06631494
REMARK  14 active torsions:
REMARK  status: ('A' for Active; 'I' for Inactive)
REMARK    1  A    between atoms: C_1  and  C_2
REMARK    2  A    between atoms: C_2  and  O_3
REMARK    3  A    between atoms: O_3  and  C_4
REMARK    4  A    between atoms: C_9  and  N_10
REMARK    5  A    between atoms: N_10  and  C_11
REMARK    6  A    between atoms: C_11  and  C_13
REMARK    7  A    between atoms: C_11  and  C_18
REMARK    8  A    between atoms: N_20  and  C_21
REMARK    9  A    between atoms: C_21  and  C_22
REMARK   10  A    between atoms: C_21  and  C_23
REMARK   11  A    between atoms: C_21  and  C_24
REMARK   12  A    between atoms: C_25  and  C_27
REMARK   13  A    between atoms: C_28  and  N_35
REMARK   14  A    between atoms: C_29  and  C_32
REMARK                            x       y       z     vdW  Elec       q    Type
REMARK                         _______ _______ _______ _____ _____    ______ ____
ROOT
ATOM      1  N   UNL     1       0.968   3.788   0.117  0.00  0.00    -0.247 N 
ATOM      2  C   UNL     1       1.065   4.661   1.139  0.00  0.00    +0.262 C 
ATOM      3  O   UNL     1       1.387   5.815   0.925  0.00  0.00    -0.269 OA
ENDROOT
BRANCH   1   9
ATOM      4  C   UNL     1      -0.747   2.096   0.351  0.00  0.00    +0.142 A 
ATOM      5  C   UNL     1      -1.108   0.781   0.596  0.00  0.00    +0.047 A 
ATOM      6  C   UNL     1      -0.134  -0.167   0.851  0.00  0.00    +0.004 A 
ATOM      7  C   UNL     1       1.201   0.193   0.863  0.00  0.00    +0.002 A 
ATOM      8  C   UNL     1       1.569   1.503   0.620  0.00  0.00    +0.027 A 
ATOM      9  C   UNL     1       0.598   2.460   0.363  0.00  0.00    +0.079 A 
BRANCH   4  10
ATOM     10  O   UNL     1      -1.704   3.029   0.101  0.00  0.00    -0.490 OA
BRANCH  10  12
ATOM     11  C   UNL     1      -3.987   3.766  -0.193  0.00  0.00    +0.048 C 
ATOM     12  C   UNL     1      -3.062   2.584   0.106  0.00  0.00    +0.226 C 
ENDBRANCH  10  12
ENDBRANCH   4  10
ENDBRANCH   1   9
BRANCH   2  13
ATOM     13  C   UNL     1       0.784   4.221   2.507  0.00  0.00    +0.116 A 
ATOM     14  C   UNL     1       0.829   4.948   3.697  0.00  0.00    +0.076 A 
ATOM     15  C   UNL     1       0.489   4.176   4.808  0.00  0.00    +0.155 A 
ATOM     16  N   UNL     1       0.186   2.908   4.642  0.00  0.00    -0.203 NA
ATOM     17  S   UNL     1       0.300   2.612   3.098  0.00  0.00    +0.019 S 
BRANCH  15  18
ATOM     18  C   UNL     1       0.477   4.775   6.156  0.00  0.00    +0.262 C 
ATOM     19  O   UNL     1       0.759   5.948   6.303  0.00  0.00    -0.269 OA
ATOM     20  N   UNL     1       0.152   4.021   7.225  0.00  0.00    -0.324 N 
ATOM     21  H   UNL     1      -0.073   3.085   7.108  0.00  0.00    +0.145 HD
ATOM     22  H   UNL     1       0.144   4.415   8.111  0.00  0.00    +0.145 HD
ENDBRANCH  15  18
BRANCH  14  23
ATOM     23  N   UNL     1       1.171   6.292   3.768  0.00  0.00    -0.355 N 
ATOM     24  H   UNL     1       1.396   6.778   2.959  0.00  0.00    +0.142 HD
ATOM     25  H   UNL     1       1.185   6.745   4.625  0.00  0.00    +0.142 HD
ENDBRANCH  14  23
ENDBRANCH   2  13
BRANCH   1  26
ATOM     26  C   UNL     1       1.249   4.228  -1.252  0.00  0.00    +0.204 C 
BRANCH  26  27
ATOM     27  C   UNL     1       0.085   3.878  -2.142  0.00  0.00    +0.019 A 
ATOM     28  C   UNL     1      -0.690   4.696  -2.895  0.00  0.00    +0.013 A 
ATOM     29  C   UNL     1      -1.715   4.147  -3.643  0.00  0.00    +0.008 A 
ATOM     30  C   UNL     1      -1.915   2.807  -3.600  0.00  0.00    +0.045 A 
ATOM     31  S   UNL     1      -0.628   2.277  -2.483  0.00  0.00    -0.099 S 
ENDBRANCH  26  27
BRANCH  26  32
ATOM     32  C   UNL     1       2.491   3.539  -1.756  0.00  0.00    +0.239 C 
ATOM     33  O   UNL     1       3.023   2.680  -1.085  0.00  0.00    -0.273 OA
ATOM     34  N   UNL     1       3.012   3.878  -2.952  0.00  0.00    -0.309 N 
ATOM     35  H   UNL     1       2.587   4.565  -3.489  0.00  0.00    +0.149 HD
BRANCH  34  36
ATOM     36  C   UNL     1       4.219   3.208  -3.442  0.00  0.00    +0.026 C 
ATOM     37  C   UNL     1       3.955   1.706  -3.566  0.00  0.00    +0.031 C 
ATOM     38  C   UNL     1       4.596   3.774  -4.812  0.00  0.00    +0.031 C 
ATOM     39  C   UNL     1       5.368   3.444  -2.459  0.00  0.00    +0.031 C 
ENDBRANCH  34  36
ENDBRANCH  26  32
ENDBRANCH   1  26
TORSDOF 10
