REMARK  Name = ZINC47150367
REMARK  10 active torsions:
REMARK  status: ('A' for Active; 'I' for Inactive)
REMARK    1  A    between atoms: C_1  and  C_2
REMARK    2  A    between atoms: C_4  and  C_25
REMARK    3  A    between atoms: C_6  and  C_8
REMARK    4  A    between atoms: N_10  and  C_11
REMARK    5  A    between atoms: C_11  and  C_12
REMARK    6  A    between atoms: N_14  and  C_15
REMARK    7  A    between atoms: C_15  and  C_16
REMARK    8  A    between atoms: C_16  and  N_17
REMARK    9  A    between atoms: C_19  and  C_24
REMARK   10  A    between atoms: C_21  and  C_23
REMARK                            x       y       z     vdW  Elec       q    Type
REMARK                         _______ _______ _______ _____ _____    ______ ____
ROOT
ATOM      1  C   UNL     1       0.056  -1.958   6.048  0.00  0.00    +0.230 C 
ATOM      2  O   UNL     1       0.040  -0.764   5.837  0.00  0.00    -0.274 OA
ATOM      3  N   UNL     1       0.068  -2.419   7.314  0.00  0.00    -0.316 N 
ATOM      4  H   UNL     1       0.081  -3.374   7.482  0.00  0.00    +0.149 HD
ENDROOT
BRANCH   1   5
ATOM      5  C   UNL     1       0.064  -2.926   4.893  0.00  0.00    +0.200 C 
BRANCH   5   8
ATOM      6  C   UNL     1       0.052  -2.845   2.458  0.00  0.00    +0.244 C 
ATOM      7  O   UNL     1       0.068  -4.061   2.446  0.00  0.00    -0.270 OA
ATOM      8  N   UNL     1       0.049  -2.182   3.631  0.00  0.00    -0.303 N 
ATOM      9  H   UNL     1       0.036  -1.212   3.640  0.00  0.00    +0.150 HD
BRANCH   6  15
ATOM     10  C   UNL     1      -0.018   1.503   0.010  0.00  0.00    +0.044 C 
ATOM     11  C   UNL     1       0.002  -0.004   0.002  0.00  0.00    -0.049 A 
ATOM     12  C   UNL     1       0.006  -0.688  -1.201  0.00  0.00    +0.006 A 
ATOM     13  C   UNL     1       0.025  -2.071  -1.217  0.00  0.00    -0.049 A 
ATOM     14  C   UNL     1       0.040  -2.778  -0.033  0.00  0.00    +0.016 A 
ATOM     15  C   UNL     1       0.036  -2.094   1.184  0.00  0.00    +0.037 A 
ATOM     16  C   UNL     1       0.023  -0.699   1.194  0.00  0.00    +0.016 A 
ATOM     17  C   UNL     1       0.029  -2.807  -2.532  0.00  0.00    +0.044 C 
ENDBRANCH   6  15
ENDBRANCH   5   8
ENDBRANCH   1   5
BRANCH   3  18
ATOM     18  C   UNL     1       0.061  -1.477   8.436  0.00  0.00    +0.086 C 
BRANCH  18  19
ATOM     19  C   UNL     1       0.077  -2.255   9.754  0.00  0.00    -0.060 C 
BRANCH  19  20
ATOM     20  N   UNL     1       0.069  -1.310  10.880  0.00  0.00    +0.381 N 
ATOM     21  C   UNL     1      -1.192  -0.559  10.877  0.00  0.00    -0.076 C 
ATOM     22  C   UNL     1      -1.171   0.482  11.999  0.00  0.00    -0.031 C 
ATOM     23  C   UNL     1      -1.001  -0.228  13.345  0.00  0.00    +0.003 C 
ATOM     24  C   UNL     1       0.280  -1.068  13.309  0.00  0.00    -0.031 C 
ATOM     25  C   UNL     1       0.205  -2.052  12.139  0.00  0.00    -0.076 C 
ATOM     26  C   UNL     1       0.419  -1.843  14.620  0.00  0.00    +0.005 C 
ATOM     27  C   UNL     1      -0.004   1.447  11.779  0.00  0.00    +0.005 C 
ATOM     28  H   UNL     1       0.841  -0.668  10.783  0.00  0.00    -0.082 HD
ENDBRANCH  19  20
ENDBRANCH  18  19
ENDBRANCH   3  18
TORSDOF 6
