REMARK  Name = ZINC43367672
REMARK  7 active torsions:
REMARK  status: ('A' for Active; 'I' for Inactive)
REMARK    1  A    between atoms: C_1  and  C_2
REMARK    2  A    between atoms: C_5  and  C_7
REMARK    3  A    between atoms: C_7  and  C_9
REMARK    4  A    between atoms: C_7  and  S_13
REMARK    5  A    between atoms: C_9  and  C_11
REMARK    6  A    between atoms: C_9  and  N_12
REMARK    7  A    between atoms: S_13  and  C_14
REMARK                            x       y       z     vdW  Elec       q    Type
REMARK                         _______ _______ _______ _____ _____    ______ ____
ROOT
ATOM      1  C   UNL     1       1.748  -3.225  -0.073  0.00  0.00    +0.104 C 
ENDROOT
BRANCH   1   6
ATOM      2  C   UNL     1       0.792   1.724   0.098  0.00  0.00    +0.086 C 
ATOM      3  C   UNL     1       0.582   0.233   0.050  0.00  0.00    +0.102 A 
ATOM      4  C   UNL     1      -0.609  -0.394   0.037  0.00  0.00    +0.044 A 
ATOM      5  C   UNL     1      -0.341  -1.781  -0.011  0.00  0.00    +0.046 A 
ATOM      6  C   UNL     1       0.997  -1.919  -0.025  0.00  0.00    +0.117 A 
ATOM      7  O   UNL     1       1.551  -0.696   0.006  0.00  0.00    -0.464 OA
ENDBRANCH   1   6
BRANCH   1   8
ATOM      8  C   UNL     1       2.636  -3.349   1.167  0.00  0.00    -0.057 C 
ATOM      9  C   UNL     1       1.761  -3.372   2.421  0.00  0.00    -0.013 C 
BRANCH   8  10
ATOM     10  N   UNL     1       3.414  -4.592   1.089  0.00  0.00    +0.381 N 
ATOM     11  H   UNL     1       4.056  -4.540   0.312  0.00  0.00    -0.090 HD
ATOM     12  H   UNL     1       3.933  -4.718   1.946  0.00  0.00    -0.090 HD
ATOM     13  H   UNL     1       2.789  -5.373   0.958  0.00  0.00    -0.090 HD
ENDBRANCH   8  10
ENDBRANCH   1   8
BRANCH   1  14
ATOM     14  S   UNL     1       2.780  -3.275  -1.564  0.00  0.00    -0.096 S 
BRANCH  14  15
ATOM     15  C   UNL     1       1.617  -3.362  -2.885  0.00  0.00    +0.108 A 
ATOM     16  C   UNL     1       2.042  -3.300  -4.235  0.00  0.00    +0.032 A 
ATOM     17  C   UNL     1       3.390  -3.170  -4.585  0.00  0.00    +0.012 A 
ATOM     18  C   UNL     1       3.741  -3.117  -5.902  0.00  0.00    +0.001 A 
ATOM     19  C   UNL     1       2.775  -3.190  -6.902  0.00  0.00    +0.002 A 
ATOM     20  C   UNL     1       1.453  -3.317  -6.593  0.00  0.00    +0.028 A 
ATOM     21  C   UNL     1       1.058  -3.375  -5.250  0.00  0.00    +0.075 A 
ATOM     22  N   UNL     1      -0.229  -3.501  -4.893  0.00  0.00    -0.235 NA
ATOM     23  C   UNL     1      -0.565  -3.553  -3.626  0.00  0.00    +0.223 A 
ATOM     24  N   UNL     1       0.318  -3.493  -2.643  0.00  0.00    -0.229 NA
ENDBRANCH  14  15
ENDBRANCH   1  14
TORSDOF 5
