REMARK  Name = ZINC06714908
REMARK  9 active torsions:
REMARK  status: ('A' for Active; 'I' for Inactive)
REMARK    1  A    between atoms: C_1  and  O_2
REMARK    2  A    between atoms: O_2  and  C_3
REMARK    3  A    between atoms: C_6  and  O_28
REMARK    4  A    between atoms: C_7  and  N_9
REMARK    5  A    between atoms: C_10  and  C_18
REMARK    6  A    between atoms: C_13  and  S_14
REMARK    7  A    between atoms: S_14  and  C_15
REMARK    8  A    between atoms: C_15  and  C_16
REMARK    9  A    between atoms: O_28  and  C_29
REMARK                            x       y       z     vdW  Elec       q    Type
REMARK                         _______ _______ _______ _____ _____    ______ ____
ROOT
ATOM      1  N   UNL     1       1.323  -4.006  -2.285  0.00  0.00    -0.267 N 
ATOM      2  C   UNL     1       2.305  -4.832  -1.784  0.00  0.00    +0.172 A 
ATOM      3  N   UNL     1       1.956  -6.064  -2.077  0.00  0.00    -0.128 NA
ATOM      4  N   UNL     1       0.842  -6.066  -2.716  0.00  0.00    -0.122 NA
ATOM      5  C   UNL     1       0.405  -4.838  -2.869  0.00  0.00    +0.197 A 
ENDROOT
BRANCH   2   6
ATOM      6  C   UNL     1       3.519  -4.413  -1.057  0.00  0.00    +0.045 A 
ATOM      7  C   UNL     1       3.881  -3.141  -0.748  0.00  0.00    +0.095 A 
ATOM      8  N   UNL     1       5.067  -3.151  -0.071  0.00  0.00    -0.360 N 
ATOM      9  H   UNL     1       5.526  -2.361   0.255  0.00  0.00    +0.165 HD
ATOM     10  C   UNL     1       5.517  -4.444   0.081  0.00  0.00    +0.047 A 
ATOM     11  C   UNL     1       4.571  -5.293  -0.520  0.00  0.00    +0.010 A 
ATOM     12  C   UNL     1       4.766  -6.672  -0.511  0.00  0.00    +0.011 A 
ATOM     13  C   UNL     1       5.887  -7.199   0.092  0.00  0.00    +0.001 A 
ATOM     14  C   UNL     1       6.820  -6.362   0.689  0.00  0.00    +0.002 A 
ATOM     15  C   UNL     1       6.645  -4.996   0.680  0.00  0.00    +0.026 A 
ENDBRANCH   2   6
BRANCH   1  20
ATOM     16  C   UNL     1       0.606  -0.608  -1.056  0.00  0.00    +0.122 A 
ATOM     17  C   UNL     1       1.173   0.162  -2.062  0.00  0.00    +0.049 A 
ATOM     18  C   UNL     1       1.788  -0.448  -3.139  0.00  0.00    +0.051 A 
ATOM     19  C   UNL     1       1.840  -1.831  -3.217  0.00  0.00    +0.144 A 
ATOM     20  C   UNL     1       1.272  -2.605  -2.209  0.00  0.00    +0.095 A 
ATOM     21  C   UNL     1       0.660  -1.991  -1.127  0.00  0.00    +0.075 A 
BRANCH  16  23
ATOM     22  C   UNL     1      -0.017   1.425   0.010  0.00  0.00    +0.277 C 
ATOM     23  O   UNL     1       0.002  -0.004   0.002  0.00  0.00    -0.495 OA
ENDBRANCH  16  23
BRANCH  19  24
ATOM     24  O   UNL     1       2.445  -2.430  -4.277  0.00  0.00    -0.493 OA
ATOM     25  C   UNL     1       3.006  -1.573  -5.274  0.00  0.00    +0.277 C 
ENDBRANCH  19  24
ENDBRANCH   1  20
BRANCH   5  26
ATOM     26  S   UNL     1      -1.084  -4.350  -3.675  0.00  0.00    -0.082 S 
BRANCH  26  27
ATOM     27  C   UNL     1      -1.825  -5.916  -4.213  0.00  0.00    +0.104 C 
BRANCH  27  28
ATOM     28  C   UNL     1      -3.123  -5.638  -4.928  0.00  0.00    -0.023 C 
ATOM     29  C   UNL     1      -3.243  -5.920  -6.201  0.00  0.00    +0.005 C 
ENDBRANCH  27  28
ENDBRANCH  26  27
ENDBRANCH   5  26
TORSDOF 7
