REMARK  Name = ZINC37054002
REMARK  4 active torsions:
REMARK  status: ('A' for Active; 'I' for Inactive)
REMARK    1  A    between atoms: C_3  and  S_9
REMARK    2  A    between atoms: C_6  and  N_7
REMARK    3  A    between atoms: S_9  and  N_12
REMARK    4  A    between atoms: C_16  and  C_18
REMARK                            x       y       z     vdW  Elec       q    Type
REMARK                         _______ _______ _______ _____ _____    ______ ____
ROOT
ATOM      1  S   UNL     1       5.078   2.016  -0.995  0.00  0.00    +0.063 S 
ATOM      2  O   UNL     1       4.065   2.960  -1.316  0.00  0.00    -0.153 OA
ATOM      3  O   UNL     1       5.070   0.689  -1.501  0.00  0.00    -0.153 OA
ENDROOT
BRANCH   1   6
ATOM      4  C   UNL     1       8.724   2.546  -2.596  0.00  0.00    +0.025 A 
ATOM      5  C   UNL     1       7.522   1.986  -2.208  0.00  0.00    +0.031 A 
ATOM      6  C   UNL     1       6.610   2.734  -1.488  0.00  0.00    +0.119 A 
ATOM      7  C   UNL     1       6.897   4.046  -1.154  0.00  0.00    +0.046 A 
ATOM      8  C   UNL     1       8.097   4.612  -1.540  0.00  0.00    +0.040 A 
ATOM      9  C   UNL     1       9.016   3.862  -2.262  0.00  0.00    +0.026 A 
ATOM     10 BR   UNL     1       5.645   5.066  -0.170  0.00  0.00    -0.048 Br
BRANCH   9  11
ATOM     11  N   UNL     1      10.230   4.430  -2.653  0.00  0.00    -0.358 N 
ATOM     12  H   UNL     1      10.871   3.906  -3.158  0.00  0.00    +0.142 HD
ATOM     13  H   UNL     1      10.433   5.350  -2.420  0.00  0.00    +0.142 HD
ENDBRANCH   9  11
ENDBRANCH   1   6
BRANCH   1  14
ATOM     14  N   UNL     1       5.104   1.893   0.656  0.00  0.00    -0.165 NA
ATOM     15  C   UNL     1       4.511   2.860   1.599  0.00  0.00    +0.110 C 
ATOM     16  C   UNL     1       4.243   2.043   2.888  0.00  0.00    +0.019 C 
ATOM     17  C   UNL     1       5.473   1.098   2.919  0.00  0.00    +0.031 C 
ATOM     18  C   UNL     1       5.716   0.799   1.424  0.00  0.00    +0.165 C 
BRANCH  18  19
ATOM     19  C   UNL     1       5.074  -0.511   1.050  0.00  0.00    +0.229 C 
ATOM     20  O   UNL     1       3.928  -0.534   0.652  0.00  0.00    -0.274 OA
ATOM     21  N   UNL     1       5.772  -1.659   1.157  0.00  0.00    -0.328 N 
ATOM     22  H   UNL     1       6.689  -1.641   1.475  0.00  0.00    +0.145 HD
ATOM     23  H   UNL     1       5.359  -2.503   0.916  0.00  0.00    +0.145 HD
ENDBRANCH  18  19
ENDBRANCH   1  14
TORSDOF 4
