REMARK  Name = ZINC65407430
REMARK  1 active torsions:
REMARK  status: ('A' for Active; 'I' for Inactive)
REMARK    1  A    between atoms: C_6  and  C_7
REMARK                            x       y       z     vdW  Elec       q    Type
REMARK                         _______ _______ _______ _____ _____    ______ ____
ROOT
ATOM      1  C   UNL     1      -1.293  -0.774   0.009  0.00  0.00    +0.060 C 
ATOM      2  C   UNL     1      -2.110  -0.408  -1.231  0.00  0.00    +0.109 C 
ATOM      3  C   UNL     1      -2.640   0.994  -1.101  0.00  0.00    +0.218 C 
ATOM      4  O   UNL     1      -2.725   1.696  -2.087  0.00  0.00    -0.275 OA
ATOM      5  N   UNL     1      -3.021   1.479   0.094  0.00  0.00    -0.285 N 
ATOM      6  C   UNL     1      -2.916   0.691   1.246  0.00  0.00    +0.039 A 
ATOM      7  C   UNL     1      -2.078  -0.426   1.248  0.00  0.00    -0.018 A 
ATOM      8  C   UNL     1      -1.964  -1.204   2.362  0.00  0.00    +0.017 A 
ATOM      9  C   UNL     1      -2.691  -0.885   3.517  0.00  0.00    +0.020 A 
ATOM     10  C   UNL     1      -2.789  -1.474   4.801  0.00  0.00    +0.142 A 
ATOM     11  N   UNL     1      -3.619  -0.774   5.518  0.00  0.00    -0.181 NA
ATOM     12  N   UNL     1      -4.108   0.299   4.764  0.00  0.00    -0.277 N 
ATOM     13  H   UNL     1      -4.740   0.968   5.070  0.00  0.00    +0.189 HD
ATOM     14  C   UNL     1      -3.538   0.240   3.518  0.00  0.00    +0.067 A 
ATOM     15  C   UNL     1      -3.643   1.024   2.374  0.00  0.00    +0.051 A 
ATOM     16  H   UNL     1      -3.371   2.381   0.159  0.00  0.00    +0.155 HD
ENDROOT
BRANCH   1  22
ATOM     17  C   UNL     1      -0.017   1.378   0.010  0.00  0.00    +0.008 A 
ATOM     18  C   UNL     1       1.170   2.088   0.002  0.00  0.00    +0.050 A 
ATOM     19  C   UNL     1       2.382   1.415  -0.013  0.00  0.00    +0.162 A 
ATOM     20  C   UNL     1       2.401   0.025  -0.018  0.00  0.00    +0.162 A 
ATOM     21  C   UNL     1       1.207  -0.681  -0.011  0.00  0.00    +0.053 A 
ATOM     22  C   UNL     1       0.002  -0.004   0.002  0.00  0.00    -0.036 A 
ATOM     23  O   UNL     1       3.579  -0.656  -0.024  0.00  0.00    -0.485 OA
ATOM     24  C   UNL     1       4.746   0.081  -0.406  0.00  0.00    +0.270 C 
ATOM     25  C   UNL     1       4.733   1.422   0.340  0.00  0.00    +0.270 C 
ATOM     26  O   UNL     1       3.542   2.127  -0.024  0.00  0.00    -0.485 OA
ENDBRANCH   1  22
TORSDOF 1
