REMARK  Name = ZINC56813752
REMARK  8 active torsions:
REMARK  status: ('A' for Active; 'I' for Inactive)
REMARK    1  A    between atoms: C_4  and  O_7
REMARK    2  A    between atoms: O_7  and  C_8
REMARK    3  A    between atoms: C_8  and  C_9
REMARK    4  A    between atoms: C_9  and  C_11
REMARK    5  A    between atoms: C_9  and  O_30
REMARK    6  A    between atoms: C_11  and  N_12
REMARK    7  A    between atoms: N_15  and  C_16
REMARK    8  A    between atoms: N_25  and  C_27
REMARK                            x       y       z     vdW  Elec       q    Type
REMARK                         _______ _______ _______ _____ _____    ______ ____
ROOT
ATOM      1  N   UNL     1       6.261  -4.679   0.160  0.00  0.00    -0.297 N 
ATOM      2  C   UNL     1       6.459  -6.007   0.274  0.00  0.00    +0.300 C 
ATOM      3  O   UNL     1       5.508  -6.765   0.291  0.00  0.00    -0.253 OA
ATOM      4  N   UNL     1       7.712  -6.496   0.369  0.00  0.00    -0.296 N 
ATOM      5  H   UNL     1       7.019  -4.075   0.146  0.00  0.00    +0.150 HD
ATOM      6  H   UNL     1       8.470  -5.891   0.355  0.00  0.00    +0.151 HD
ENDROOT
BRANCH   4   7
ATOM      7  C   UNL     1       7.927  -7.936   0.493  0.00  0.00    +0.077 C 
ATOM      8  C   UNL     1       7.853  -8.364   1.960  0.00  0.00    -0.007 C 
ATOM      9  C   UNL     1       8.878  -7.596   2.783  0.00  0.00    +0.003 C 
ATOM     10  C   UNL     1      10.293  -7.734   2.245  0.00  0.00    +0.001 C 
ATOM     11  C   UNL     1      10.387  -7.547   0.740  0.00  0.00    +0.003 C 
ATOM     12  C   UNL     1       9.317  -8.316  -0.023  0.00  0.00    -0.007 C 
ATOM     13  C   UNL     1       9.512  -9.821   0.099  0.00  0.00    -0.073 C 
ATOM     14  N   UNL     1       9.315 -10.315   1.458  0.00  0.00    +0.382 N 
ATOM     15  C   UNL     1       8.063  -9.869   2.062  0.00  0.00    -0.073 C 
ATOM     16  H   UNL     1      10.096 -10.059   2.040  0.00  0.00    -0.081 HD
BRANCH  14  17
ATOM     17  C   UNL     1       9.298 -11.783   1.410  0.00  0.00    -0.069 C 
ATOM     18  C   UNL     1      10.223 -12.532   2.372  0.00  0.00    -0.017 C 
ATOM     19  C   UNL     1      10.549 -12.486   0.877  0.00  0.00    -0.017 C 
ENDBRANCH  14  17
ENDBRANCH   4   7
BRANCH   1  20
ATOM     20  C   UNL     1       4.899  -4.148   0.057  0.00  0.00    +0.140 C 
BRANCH  20  21
ATOM     21  C   UNL     1       4.954  -2.624  -0.061  0.00  0.00    +0.169 C 
BRANCH  21  22
ATOM     22  O   UNL     1       5.594  -2.264  -1.287  0.00  0.00    -0.387 OA
ATOM     23  H   UNL     1       5.145  -2.595  -2.077  0.00  0.00    +0.210 HD
ENDBRANCH  21  22
BRANCH  21  24
ATOM     24  C   UNL     1       3.531  -2.060  -0.044  0.00  0.00    +0.261 C 
BRANCH  24  25
ATOM     25  O   UNL     1       3.586  -0.632  -0.037  0.00  0.00    -0.489 OA
BRANCH  25  29
ATOM     26  C   UNL     1      -0.017   1.378   0.010  0.00  0.00    +0.000 A 
ATOM     27  C   UNL     1       1.170   2.088   0.002  0.00  0.00    +0.004 A 
ATOM     28  C   UNL     1       2.377   1.417  -0.013  0.00  0.00    +0.045 A 
ATOM     29  C   UNL     1       2.399   0.030  -0.021  0.00  0.00    +0.121 A 
ATOM     30  C   UNL     1       1.207  -0.680  -0.013  0.00  0.00    +0.045 A 
ATOM     31  C   UNL     1       0.002  -0.004   0.002  0.00  0.00    +0.004 A 
ENDBRANCH  25  29
ENDBRANCH  24  25
ENDBRANCH  21  24
ENDBRANCH  20  21
ENDBRANCH   1  20
TORSDOF 8
