REMARK  Name = ZINC25158204
REMARK  7 active torsions:
REMARK  status: ('A' for Active; 'I' for Inactive)
REMARK    1  A    between atoms: C_1  and  C_2
REMARK    2  A    between atoms: C_7  and  C_9
REMARK    3  A    between atoms: C_7  and  C_10
REMARK    4  A    between atoms: N_13  and  C_17
REMARK    5  A    between atoms: C_17  and  C_18
REMARK    6  A    between atoms: N_20  and  C_21
REMARK    7  A    between atoms: C_25  and  C_27
REMARK                            x       y       z     vdW  Elec       q    Type
REMARK                         _______ _______ _______ _____ _____    ______ ____
ROOT
ATOM      1  C   UNL     1      -0.033   1.539  -0.008  0.00  0.00    +0.007 C 
ATOM      2  C   UNL     1      -0.005   0.007  -0.015  0.00  0.00    -0.011 C 
ATOM      3  C   UNL     1      -1.440  -0.524   0.014  0.00  0.00    +0.038 C 
ATOM      4  C   UNL     1      -1.425  -2.046  -0.042  0.00  0.00    +0.113 C 
ATOM      5  C   UNL     1      -0.563  -2.666   1.040  0.00  0.00    +0.041 C 
ATOM      6  C   UNL     1       0.792  -2.014   1.252  0.00  0.00    -0.032 C 
ATOM      7  C   UNL     1       0.721  -0.491   1.232  0.00  0.00    +0.009 C 
ATOM      8  C   UNL     1       1.316  -2.442   2.640  0.00  0.00    +0.011 C 
ATOM      9  C   UNL     1       1.800  -2.506   0.210  0.00  0.00    +0.011 C 
ATOM     10  C   UNL     1      -1.048  -2.530  -1.420  0.00  0.00    +0.247 C 
ATOM     11  O   UNL     1      -0.068  -2.245  -2.074  0.00  0.00    -0.273 OA
ATOM     12  N   UNL     1      -2.053  -3.345  -1.810  0.00  0.00    -0.215 N 
ATOM     13  C   UNL     1      -3.060  -3.336  -0.931  0.00  0.00    +0.310 C 
ATOM     14  O   UNL     1      -4.083  -3.978  -1.068  0.00  0.00    -0.252 OA
ATOM     15  N   UNL     1      -2.811  -2.539   0.123  0.00  0.00    -0.285 N 
ATOM     16  H   UNL     1      -3.410  -2.321   0.852  0.00  0.00    +0.151 HD
ENDROOT
BRANCH  12  17
ATOM     17  C   UNL     1      -2.037  -4.136  -3.042  0.00  0.00    +0.214 C 
BRANCH  17  18
ATOM     18  C   UNL     1      -1.429  -5.487  -2.764  0.00  0.00    +0.235 C 
ATOM     19  O   UNL     1      -1.047  -5.761  -1.646  0.00  0.00    -0.274 OA
ATOM     20  N   UNL     1      -1.311  -6.390  -3.757  0.00  0.00    -0.284 N 
ATOM     21  H   UNL     1      -1.677  -6.198  -4.634  0.00  0.00    +0.155 HD
BRANCH  20  22
ATOM     22  C   UNL     1      -0.660  -7.607  -3.522  0.00  0.00    +0.035 A 
ATOM     23  C   UNL     1       0.105  -8.190  -4.525  0.00  0.00    +0.023 A 
ATOM     24  C   UNL     1       0.750  -9.391  -4.298  0.00  0.00    +0.003 A 
ATOM     25  C   UNL     1       0.639 -10.019  -3.074  0.00  0.00    +0.017 A 
ATOM     26  C   UNL     1      -0.126  -9.441  -2.060  0.00  0.00    +0.026 A 
ATOM     27  C   UNL     1      -0.773  -8.227  -2.288  0.00  0.00    +0.040 A 
BRANCH  26  28
ATOM     28  C   UNL     1      -0.243 -10.090  -0.789  0.00  0.00    -0.070 C 
ATOM     29  C   UNL     1      -0.339 -10.622   0.253  0.00  0.00    +0.009 C 
ENDBRANCH  26  28
ENDBRANCH  20  22
ENDBRANCH  17  18
ENDBRANCH  12  17
TORSDOF 4
