REMARK  Name = ZINC37054745
REMARK  6 active torsions:
REMARK  status: ('A' for Active; 'I' for Inactive)
REMARK    1  A    between atoms: C_1  and  C_2
REMARK    2  A    between atoms: C_5  and  S_9
REMARK    3  A    between atoms: C_6  and  N_8
REMARK    4  A    between atoms: S_9  and  N_12
REMARK    5  A    between atoms: N_12  and  C_13
REMARK    6  A    between atoms: N_12  and  C_14
REMARK                            x       y       z     vdW  Elec       q    Type
REMARK                         _______ _______ _______ _____ _____    ______ ____
ROOT
ATOM      1  S   UNL     1      -0.032  -4.752  -0.191  0.00  0.00    +0.076 S 
ATOM      2  O   UNL     1      -0.811  -5.506   0.727  0.00  0.00    -0.150 OA
ATOM      3  O   UNL     1      -0.039  -5.010  -1.589  0.00  0.00    -0.150 OA
ENDROOT
BRANCH   1   8
ATOM      4  C   UNL     1      -1.661   1.020   0.511  0.00  0.00    +0.044 C 
ATOM      5  C   UNL     1      -1.252  -0.419   0.333  0.00  0.00    -0.049 A 
ATOM      6  C   UNL     1      -1.854  -1.407   1.090  0.00  0.00    +0.005 A 
ATOM      7  C   UNL     1      -1.482  -2.729   0.930  0.00  0.00    +0.031 A 
ATOM      8  C   UNL     1      -0.506  -3.067   0.012  0.00  0.00    +0.129 A 
ATOM      9  C   UNL     1       0.100  -2.077  -0.751  0.00  0.00    +0.052 A 
ATOM     10  C   UNL     1      -0.281  -0.751  -0.591  0.00  0.00    +0.028 A 
BRANCH   9  11
ATOM     11  N   UNL     1       1.086  -2.415  -1.680  0.00  0.00    -0.356 N 
ATOM     12  H   UNL     1       1.304  -3.347  -1.839  0.00  0.00    +0.142 HD
ATOM     13  H   UNL     1       1.553  -1.718  -2.167  0.00  0.00    +0.142 HD
ENDBRANCH   9  11
ENDBRANCH   1   8
BRANCH   1  14
ATOM     14  N   UNL     1       1.542  -4.880   0.306  0.00  0.00    -0.206 N 
ATOM     15  C   UNL     1       2.627  -4.842  -0.677  0.00  0.00    +0.157 C 
BRANCH  14  16
ATOM     16  C   UNL     1       1.836  -5.026   1.664  0.00  0.00    +0.051 A 
ATOM     17  C   UNL     1       0.949  -4.551   2.623  0.00  0.00    +0.025 A 
ATOM     18  C   UNL     1       1.242  -4.696   3.964  0.00  0.00    +0.002 A 
ATOM     19  C   UNL     1       2.417  -5.314   4.354  0.00  0.00    +0.000 A 
ATOM     20  C   UNL     1       3.301  -5.788   3.403  0.00  0.00    +0.002 A 
ATOM     21  C   UNL     1       3.012  -5.651   2.059  0.00  0.00    +0.025 A 
ENDBRANCH  14  16
ENDBRANCH   1  14
TORSDOF 4
