REMARK  Name = ZINC41143790
REMARK  4 active torsions:
REMARK  status: ('A' for Active; 'I' for Inactive)
REMARK    1  A    between atoms: C_1  and  C_2
REMARK    2  A    between atoms: N_4  and  C_18
REMARK    3  A    between atoms: C_5  and  C_12
REMARK    4  A    between atoms: C_7  and  C_9
REMARK                            x       y       z     vdW  Elec       q    Type
REMARK                         _______ _______ _______ _____ _____    ______ ____
ROOT
ATOM      1  C   UNL     1      -0.018   1.503   0.010  0.00  0.00    +0.063 C 
ATOM      2  C   UNL     1       0.002  -0.004   0.002  0.00  0.00    +0.050 C 
ATOM      3  N   UNL     1       0.008  -0.729  -1.041  0.00  0.00    -0.188 NA
ATOM      4  N   UNL     1       0.028  -2.100  -0.791  0.00  0.00    -0.216 N 
ATOM      5  C   UNL     1       0.038  -2.314   0.665  0.00  0.00    +0.149 C 
ATOM      6  C   UNL     1       0.026  -0.880   1.234  0.00  0.00    +0.174 C 
ENDROOT
BRANCH   4   7
ATOM      7  C   UNL     1       0.037  -3.104  -1.762  0.00  0.00    +0.052 A 
ATOM      8  C   UNL     1       0.052  -4.440  -1.381  0.00  0.00    +0.026 A 
ATOM      9  C   UNL     1       0.060  -5.431  -2.343  0.00  0.00    +0.022 A 
ATOM     10  C   UNL     1       0.055  -5.093  -3.685  0.00  0.00    +0.041 A 
ATOM     11  C   UNL     1       0.041  -3.763  -4.068  0.00  0.00    +0.022 A 
ATOM     12  C   UNL     1       0.027  -2.768  -3.110  0.00  0.00    +0.026 A 
ATOM     13 CL   UNL     1       0.067  -6.341  -4.892  0.00  0.00    -0.084 Cl
ENDBRANCH   4   7
BRANCH   5  14
ATOM     14  C   UNL     1      -1.188  -3.077   1.099  0.00  0.00    -0.006 A 
ATOM     15  C   UNL     1      -1.101  -4.037   2.095  0.00  0.00    +0.008 A 
ATOM     16  C   UNL     1      -2.254  -4.714   2.461  0.00  0.00    +0.020 A 
ATOM     17  C   UNL     1      -3.443  -4.411   1.826  0.00  0.00    +0.111 A 
ATOM     18  N   UNL     1      -3.489  -3.492   0.882  0.00  0.00    -0.263 NA
ATOM     19  C   UNL     1      -2.413  -2.824   0.512  0.00  0.00    +0.116 A 
ENDBRANCH   5  14
BRANCH   6  20
ATOM     20  C   UNL     1       1.269  -0.620   2.045  0.00  0.00    +0.367 C 
ATOM     21  O   UNL     1       1.470   0.488   2.512  0.00  0.00    -0.246 OA
ATOM     22  O   UNL     1       2.072  -1.517   2.234  0.00  0.00    -0.246 OA
ENDBRANCH   6  20
TORSDOF 3
