REMARK  Name = ZINC38517840
REMARK  7 active torsions:
REMARK  status: ('A' for Active; 'I' for Inactive)
REMARK    1  A    between atoms: C_1  and  N_2
REMARK    2  A    between atoms: C_9  and  C_11
REMARK    3  A    between atoms: C_11  and  C_13
REMARK    4  A    between atoms: C_11  and  N_25
REMARK    5  A    between atoms: C_13  and  N_14
REMARK    6  A    between atoms: N_17  and  C_18
REMARK    7  A    between atoms: C_18  and  C_19
REMARK                            x       y       z     vdW  Elec       q    Type
REMARK                         _______ _______ _______ _____ _____    ______ ____
ROOT
ATOM      1  C   UNL     1       0.128  -3.561   4.103  0.00  0.00    -0.020 C 
ENDROOT
BRANCH   1  10
ATOM      2  C   UNL     1       0.472   1.330  -0.511  0.00  0.00    +0.129 C 
ATOM      3  N   UNL     1       0.376  -0.128  -0.402  0.00  0.00    -0.332 N 
ATOM      4  C   UNL     1       0.327  -1.053  -1.537  0.00  0.00    +0.109 C 
ATOM      5  C   UNL     1       0.229  -2.454  -0.912  0.00  0.00    +0.056 C 
ATOM      6  C   UNL     1       0.230  -2.204   0.580  0.00  0.00    -0.025 A 
ATOM      7  C   UNL     1       0.323  -0.839   0.798  0.00  0.00    +0.033 A 
ATOM      8  C   UNL     1       0.347  -0.362   2.111  0.00  0.00    +0.023 A 
ATOM      9  C   UNL     1       0.284  -1.242   3.170  0.00  0.00    +0.004 A 
ATOM     10  C   UNL     1       0.196  -2.602   2.942  0.00  0.00    -0.059 A 
ATOM     11  C   UNL     1       0.162  -3.081   1.645  0.00  0.00    +0.007 A 
ENDBRANCH   1  10
BRANCH   1  12
ATOM     12  N   UNL     1      -0.733  -2.998   5.152  0.00  0.00    +0.385 N 
ATOM     13  C   UNL     1      -0.837  -3.953   6.262  0.00  0.00    -0.078 C 
ATOM     14  C   UNL     1      -1.665  -3.339   7.393  0.00  0.00    -0.019 C 
ATOM     15  C   UNL     1      -3.066  -3.007   6.870  0.00  0.00    -0.004 C 
ATOM     16  C   UNL     1      -2.941  -2.069   5.665  0.00  0.00    -0.019 C 
ATOM     17  C   UNL     1      -2.066  -2.730   4.599  0.00  0.00    -0.078 C 
ATOM     18  H   UNL     1      -0.330  -2.136   5.489  0.00  0.00    -0.081 HD
ENDBRANCH   1  12
BRANCH   1  19
ATOM     19  C   UNL     1       1.534  -3.785   4.662  0.00  0.00    +0.095 C 
BRANCH  19  20
ATOM     20  N   UNL     1       2.370  -4.420   3.640  0.00  0.00    -0.301 N 
ATOM     21  C   UNL     1       3.683  -4.618   3.872  0.00  0.00    +0.300 C 
ATOM     22  O   UNL     1       4.173  -4.270   4.928  0.00  0.00    -0.253 OA
ATOM     23  N   UNL     1       4.453  -5.201   2.931  0.00  0.00    -0.295 N 
ATOM     24  H   UNL     1       1.979  -4.697   2.797  0.00  0.00    +0.150 HD
ATOM     25  H   UNL     1       4.061  -5.478   2.088  0.00  0.00    +0.151 HD
BRANCH  23  26
ATOM     26  C   UNL     1       5.880  -5.417   3.183  0.00  0.00    +0.141 C 
BRANCH  26  27
ATOM     27  C   UNL     1       6.507  -6.080   1.984  0.00  0.00    -0.030 A 
ATOM     28  C   UNL     1       6.545  -7.459   1.898  0.00  0.00    +0.005 A 
ATOM     29  C   UNL     1       7.120  -8.067   0.798  0.00  0.00    +0.000 A 
ATOM     30  C   UNL     1       7.656  -7.297  -0.216  0.00  0.00    +0.000 A 
ATOM     31  C   UNL     1       7.618  -5.918  -0.131  0.00  0.00    +0.000 A 
ATOM     32  C   UNL     1       7.039  -5.309   0.967  0.00  0.00    +0.005 A 
ENDBRANCH  26  27
ENDBRANCH  23  26
ENDBRANCH  19  20
ENDBRANCH   1  19
TORSDOF 6
