REMARK  Name = ZINC13415676
REMARK  8 active torsions:
REMARK  status: ('A' for Active; 'I' for Inactive)
REMARK    1  A    between atoms: C_1  and  C_2
REMARK    2  A    between atoms: C_2  and  N_3
REMARK    3  A    between atoms: C_7  and  C_9
REMARK    4  A    between atoms: C_9  and  C_11
REMARK    5  A    between atoms: C_9  and  S_12
REMARK    6  A    between atoms: S_12  and  C_13
REMARK    7  A    between atoms: C_15  and  C_18
REMARK    8  A    between atoms: C_18  and  C_19
REMARK                            x       y       z     vdW  Elec       q    Type
REMARK                         _______ _______ _______ _____ _____    ______ ____
ROOT
ATOM      1  C   UNL     1       1.199  -2.169  -0.021  0.00  0.00    +0.136 C 
ATOM      2  C   UNL     1       1.066  -2.673  -1.460  0.00  0.00    +0.029 C 
ENDROOT
BRANCH   1   7
ATOM      3  N   UNL     1      -1.192   2.002   0.019  0.00  0.00    -0.299 N 
ATOM      4  C   UNL     1      -0.016   1.344   0.009  0.00  0.00    +0.306 C 
ATOM      5  O   UNL     1       1.028   1.966   0.003  0.00  0.00    -0.252 OA
ATOM      6  N   UNL     1       0.002  -0.004   0.002  0.00  0.00    -0.239 N 
ATOM      7  C   UNL     1       1.178  -0.662  -0.013  0.00  0.00    +0.233 C 
ATOM      8  O   UNL     1       2.220  -0.042  -0.019  0.00  0.00    -0.274 OA
ATOM      9  H   UNL     1      -2.026   1.505   0.020  0.00  0.00    +0.150 HD
ATOM     10  H   UNL     1      -0.831  -0.500   0.007  0.00  0.00    +0.159 HD
BRANCH   3  12
ATOM     11  C   UNL     1      -2.662   3.957   0.036  0.00  0.00    +0.024 C 
ATOM     12  C   UNL     1      -1.212   3.466   0.027  0.00  0.00    +0.102 C 
ENDBRANCH   3  12
ENDBRANCH   1   7
BRANCH   1  13
ATOM     13  S   UNL     1       2.760  -2.755   0.682  0.00  0.00    -0.086 S 
BRANCH  13  14
ATOM     14  C   UNL     1       2.459  -4.491   0.691  0.00  0.00    +0.136 A 
ATOM     15  N   UNL     1       3.248  -5.468   1.100  0.00  0.00    -0.237 NA
ATOM     16  C   UNL     1       2.862  -6.728   1.036  0.00  0.00    +0.060 A 
ATOM     17  C   UNL     1       1.632  -7.003   0.541  0.00  0.00    +0.071 A 
ATOM     18  S   UNL     1       1.046  -5.356   0.172  0.00  0.00    -0.069 S 
BRANCH  16  19
ATOM     19  C   UNL     1       3.769  -7.836   1.506  0.00  0.00    +0.181 C 
BRANCH  19  20
ATOM     20  C   UNL     1       5.091  -7.741   0.788  0.00  0.00    +0.362 C 
ATOM     21  O   UNL     1       5.277  -6.863  -0.021  0.00  0.00    -0.246 OA
ATOM     22  O   UNL     1       6.062  -8.631   1.048  0.00  0.00    -0.246 OA
ENDBRANCH  19  20
ENDBRANCH  16  19
ENDBRANCH  13  14
ENDBRANCH   1  13
TORSDOF 6
