REMARK  Name = ZINC19593030
REMARK  4 active torsions:
REMARK  status: ('A' for Active; 'I' for Inactive)
REMARK    1  A    between atoms: C_1  and  O_2
REMARK    2  A    between atoms: O_2  and  C_3
REMARK    3  A    between atoms: C_3  and  C_4
REMARK    4  A    between atoms: N_6  and  C_7
REMARK                            x       y       z     vdW  Elec       q    Type
REMARK                         _______ _______ _______ _____ _____    ______ ____
ROOT
ATOM      1  C   UNL     1      -3.865  -1.782   1.277  0.00  0.00    +0.073 C 
ATOM      2  C   UNL     1      -4.531  -0.793   0.319  0.00  0.00    +0.026 C 
ATOM      3  C   UNL     1      -4.565   0.595   0.962  0.00  0.00    +0.051 C 
ATOM      4  C   UNL     1      -3.131   1.059   1.246  0.00  0.00    +0.126 C 
ATOM      5  C   UNL     1      -2.472   0.069   2.213  0.00  0.00    +0.051 C 
ATOM      6  C   UNL     1      -2.437  -1.320   1.574  0.00  0.00    +0.026 C 
ATOM      7  C   UNL     1      -3.174   2.439   1.893  0.00  0.00    +0.152 C 
ATOM      8  N   UNL     1      -3.481   3.470   0.900  0.00  0.00    -0.307 N 
ATOM      9  C   UNL     1      -2.525   3.862   0.035  0.00  0.00    +0.248 C 
ATOM     10  O   UNL     1      -2.736   4.779  -0.736  0.00  0.00    -0.270 OA
ATOM     11  C   UNL     1      -1.230   3.157   0.028  0.00  0.00    +0.078 A 
ATOM     12  C   UNL     1      -0.027   3.859   0.022  0.00  0.00    +0.017 A 
ATOM     13  C   UNL     1       1.167   3.169   0.008  0.00  0.00    +0.001 A 
ATOM     14  C   UNL     1       1.174   1.784   0.000  0.00  0.00    +0.004 A 
ATOM     15  C   UNL     1      -0.013   1.076   0.008  0.00  0.00    +0.046 A 
ATOM     16  C   UNL     1      -1.221   1.753   0.017  0.00  0.00    +0.133 A 
ATOM     17  O   UNL     1      -2.398   1.081   0.026  0.00  0.00    -0.483 OA
ATOM     18  H   UNL     1      -4.485   3.918   0.865  0.00  0.00    +0.149 HD
ENDROOT
BRANCH   1  21
ATOM     19  C   UNL     1      -3.774  -4.212   1.435  0.00  0.00    +0.239 C 
ATOM     20  O   UNL     1      -3.752  -4.104   2.643  0.00  0.00    -0.273 OA
ATOM     21  N   UNL     1      -3.830  -3.111   0.660  0.00  0.00    -0.311 N 
ATOM     22  H   UNL     1      -3.850  -3.209  -0.435  0.00  0.00    +0.149 HD
BRANCH  19  23
ATOM     23  C   UNL     1      -3.738  -5.579   0.801  0.00  0.00    +0.255 C 
BRANCH  23  25
ATOM     24  C   UNL     1      -3.643  -7.916   1.325  0.00  0.00    +0.194 C 
ATOM     25  O   UNL     1      -3.680  -6.577   1.822  0.00  0.00    -0.374 OA
ENDBRANCH  23  25
ENDBRANCH  19  23
ENDBRANCH   1  21
TORSDOF 3
