REMARK  Name = ZINC09514457
REMARK  6 active torsions:
REMARK  status: ('A' for Active; 'I' for Inactive)
REMARK    1  A    between atoms: C_1  and  N_2
REMARK    2  A    between atoms: C_3  and  C_5
REMARK    3  A    between atoms: C_9  and  N_11
REMARK    4  A    between atoms: C_12  and  C_14
REMARK    5  A    between atoms: C_14  and  S_15
REMARK    6  A    between atoms: S_15  and  C_16
REMARK                            x       y       z     vdW  Elec       q    Type
REMARK                         _______ _______ _______ _____ _____    ______ ____
ROOT
ATOM      1  N   UNL     1       1.827  -4.908  -3.136  0.00  0.00    -0.285 N 
ATOM      2  C   UNL     1       1.931  -6.251  -3.088  0.00  0.00    +0.227 C 
ATOM      3  O   UNL     1       1.423  -6.867  -2.176  0.00  0.00    -0.275 OA
ATOM      4  H   UNL     1       2.167  -4.422  -3.904  0.00  0.00    +0.155 HD
ENDROOT
BRANCH   1   9
ATOM      5  C   UNL     1       0.762  -3.988   0.271  0.00  0.00    +0.038 A 
ATOM      6  C   UNL     1       0.028  -2.829   0.008  0.00  0.00    +0.013 A 
ATOM      7  C   UNL     1      -0.094  -2.370  -1.287  0.00  0.00    +0.003 A 
ATOM      8  C   UNL     1       0.500  -3.058  -2.329  0.00  0.00    +0.023 A 
ATOM      9  C   UNL     1       1.228  -4.215  -2.078  0.00  0.00    +0.034 A 
ATOM     10  C   UNL     1       1.361  -4.682  -0.780  0.00  0.00    +0.036 A 
BRANCH   5  13
ATOM     11  C   UNL     1       0.454  -4.295   4.047  0.00  0.00    +0.128 C 
ATOM     12  N   UNL     1       0.319  -3.807   2.672  0.00  0.00    -0.314 N 
ATOM     13  C   UNL     1       0.899  -4.480   1.659  0.00  0.00    +0.244 C 
ATOM     14  O   UNL     1       1.534  -5.491   1.885  0.00  0.00    -0.270 OA
ATOM     15  H   UNL     1      -0.188  -3.000   2.492  0.00  0.00    +0.149 HD
ENDBRANCH   5  13
ENDBRANCH   1   9
BRANCH   2  16
ATOM     16  C   UNL     1       2.680  -6.987  -4.169  0.00  0.00    +0.173 C 
BRANCH  16  17
ATOM     17  S   UNL     1       2.643  -8.764  -3.825  0.00  0.00    -0.077 S 
BRANCH  17  18
ATOM     18  C   UNL     1       3.564  -9.361  -5.204  0.00  0.00    +0.191 A 
ATOM     19  N   UNL     1       3.774 -10.666  -5.331  0.00  0.00    -0.207 NA
ATOM     20  C   UNL     1       4.457 -11.173  -6.343  0.00  0.00    +0.129 A 
ATOM     21  C   UNL     1       4.987 -10.299  -7.332  0.00  0.00    +0.047 A 
ATOM     22  C   UNL     1       5.762 -10.607  -8.523  0.00  0.00    +0.021 A 
ATOM     23  C   UNL     1       6.161  -9.606  -9.321  0.00  0.00    +0.048 A 
ATOM     24  S   UNL     1       5.515  -8.151  -8.520  0.00  0.00    -0.077 S 
ATOM     25  C   UNL     1       4.726  -8.926  -7.134  0.00  0.00    +0.114 A 
ATOM     26  N   UNL     1       4.030  -8.500  -6.098  0.00  0.00    -0.215 NA
ATOM     27  N   UNL     1       4.654 -12.538  -6.440  0.00  0.00    -0.343 N 
ATOM     28  H   UNL     1       4.290 -13.130  -5.763  0.00  0.00    +0.144 HD
ATOM     29  H   UNL     1       5.155 -12.905  -7.185  0.00  0.00    +0.144 HD
ENDBRANCH  17  18
ENDBRANCH  16  17
ENDBRANCH   2  16
TORSDOF 5
