REMARK  Name = ZINC44497370
REMARK  8 active torsions:
REMARK  status: ('A' for Active; 'I' for Inactive)
REMARK    1  A    between atoms: C_1  and  C_2
REMARK    2  A    between atoms: C_2  and  N_3
REMARK    3  A    between atoms: C_5  and  C_8
REMARK    4  A    between atoms: C_8  and  C_10
REMARK    5  A    between atoms: C_8  and  N_11
REMARK    6  A    between atoms: N_11  and  C_12
REMARK    7  A    between atoms: C_15  and  C_21
REMARK    8  A    between atoms: C_16  and  N_18
REMARK                            x       y       z     vdW  Elec       q    Type
REMARK                         _______ _______ _______ _____ _____    ______ ____
ROOT
ATOM      1  N   UNL     1      -4.828  -3.253  -0.385  0.00  0.00    -0.337 N 
ATOM      2  H   UNL     1      -4.765  -2.928   0.527  0.00  0.00    +0.147 HD
ENDROOT
BRANCH   1   3
ATOM      3  C   UNL     1      -5.488  -4.454  -0.654  0.00  0.00    +0.030 A 
ATOM      4  C   UNL     1      -5.573  -4.924  -1.959  0.00  0.00    +0.023 A 
ATOM      5  C   UNL     1      -6.226  -6.112  -2.222  0.00  0.00    +0.007 A 
ATOM      6  C   UNL     1      -6.794  -6.834  -1.188  0.00  0.00    -0.020 A 
ATOM      7  C   UNL     1      -6.711  -6.370   0.111  0.00  0.00    +0.131 A 
ATOM      8  C   UNL     1      -6.055  -5.185   0.382  0.00  0.00    +0.056 A 
ATOM      9  C   UNL     1      -7.506  -8.130  -1.479  0.00  0.00    +0.046 C 
BRANCH   7  10
ATOM     10  N   UNL     1      -7.321  -7.146   1.214  0.00  0.00    +0.057 N 
ATOM     11  O   UNL     1      -7.848  -6.571   2.138  0.00  0.00    -0.126 OA
ATOM     12  O   UNL     1      -7.293  -8.354   1.191  0.00  0.00    -0.126 OA
ENDBRANCH   7  10
ENDBRANCH   1   3
BRANCH   1  13
ATOM     13  C   UNL     1      -4.230  -2.484  -1.479  0.00  0.00    +0.101 C 
ATOM     14  C   UNL     1      -5.295  -1.587  -2.112  0.00  0.00    +0.033 C 
BRANCH  13  17
ATOM     15  N   UNL     1      -1.201  -0.592  -0.744  0.00  0.00    -0.271 N 
ATOM     16  C   UNL     1      -1.921  -1.404  -1.545  0.00  0.00    +0.113 A 
ATOM     17  C   UNL     1      -3.111  -1.631  -0.941  0.00  0.00    +0.010 A 
ATOM     18  C   UNL     1      -3.117  -0.934   0.272  0.00  0.00    +0.139 A 
ATOM     19  N   UNL     1      -1.970  -0.315   0.394  0.00  0.00    -0.179 NA
BRANCH  15  21
ATOM     20  C   UNL     1       0.156   1.435  -0.926  0.00  0.00    +0.029 C 
ATOM     21  C   UNL     1       0.150  -0.093  -1.013  0.00  0.00    +0.140 C 
ENDBRANCH  15  21
ENDBRANCH  13  17
ENDBRANCH   1  13
TORSDOF 5
