REMARK  Name = ZINC14998575
REMARK  10 active torsions:
REMARK  status: ('A' for Active; 'I' for Inactive)
REMARK    1  A    between atoms: C_1  and  C_2
REMARK    2  A    between atoms: C_2  and  C_29
REMARK    3  A    between atoms: C_7  and  C_11
REMARK    4  A    between atoms: C_11  and  N_61
REMARK    5  A    between atoms: C_14  and  N_17
REMARK    6  A    between atoms: C_19  and  C_22
REMARK    7  A    between atoms: N_24  and  C_25
REMARK    8  A    between atoms: C_25  and  C_26
REMARK    9  A    between atoms: C_26  and  C_27
REMARK   10  A    between atoms: C_27  and  O_28
REMARK                            x       y       z     vdW  Elec       q    Type
REMARK                         _______ _______ _______ _____ _____    ______ ____
ROOT
ATOM      1  C   UNL     1      -0.035  -0.104  -1.901  0.00  0.00    -0.076 C 
ATOM      2  C   UNL     1      -1.048   0.266  -0.815  0.00  0.00    +0.008 C 
ATOM      3  C   UNL     1      -2.454  -0.113  -1.286  0.00  0.00    +0.105 C 
ATOM      4  C   UNL     1      -2.753   0.606  -2.605  0.00  0.00    +0.008 C 
ATOM      5  C   UNL     1      -1.691   0.226  -3.639  0.00  0.00    -0.076 C 
ATOM      6  N   UNL     1      -0.363   0.638  -3.137  0.00  0.00    +0.382 N 
ATOM      7  H   UNL     1      -0.384   1.643  -2.926  0.00  0.00    -0.081 HD
ENDROOT
BRANCH   3   8
ATOM      8  N   UNL     1      -3.434   0.291  -0.275  0.00  0.00    -0.248 N 
ATOM      9  C   UNL     1      -3.999   1.508  -0.143  0.00  0.00    +0.143 A 
ATOM     10  C   UNL     1      -4.847   1.438   0.925  0.00  0.00    +0.167 A 
ATOM     11  N   UNL     1      -4.793   0.193   1.430  0.00  0.00    -0.125 NA
ATOM     12  N   UNL     1      -3.970  -0.516   0.739  0.00  0.00    -0.065 NA
BRANCH  10  13
ATOM     13  C   UNL     1      -5.681   2.541   1.438  0.00  0.00    +0.266 C 
ATOM     14  O   UNL     1      -5.648   3.630   0.898  0.00  0.00    -0.268 OA
ATOM     15  N   UNL     1      -6.480   2.342   2.505  0.00  0.00    -0.310 N 
ATOM     16  H   UNL     1      -6.507   1.473   2.935  0.00  0.00    +0.149 HD
BRANCH  15  17
ATOM     17  C   UNL     1      -7.309   3.438   3.014  0.00  0.00    +0.107 C 
BRANCH  17  18
ATOM     18  C   UNL     1      -8.114   2.950   4.221  0.00  0.00    +0.046 C 
BRANCH  18  19
ATOM     19  C   UNL     1      -8.979   4.095   4.753  0.00  0.00    +0.157 C 
BRANCH  19  20
ATOM     20  O   UNL     1      -9.730   3.639   5.879  0.00  0.00    -0.395 OA
ATOM     21  H   UNL     1     -10.303   4.314   6.269  0.00  0.00    +0.209 HD
ENDBRANCH  19  20
ENDBRANCH  18  19
ENDBRANCH  17  18
ENDBRANCH  15  17
ENDBRANCH  10  13
ENDBRANCH   3   8
BRANCH   6  22
ATOM     22  C   UNL     1       0.667   0.385  -4.166  0.00  0.00    -0.047 C 
BRANCH  22  28
ATOM     23  C   UNL     1       2.079   1.565  -7.541  0.00  0.00    +0.012 C 
ATOM     24  C   UNL     1       1.143   2.700  -7.120  0.00  0.00    -0.025 C 
ATOM     25  C   UNL     1      -0.299   2.541  -7.628  0.00  0.00    -0.000 C 
ATOM     26  C   UNL     1      -0.754   1.076  -7.679  0.00  0.00    +0.031 C 
ATOM     27  C   UNL     1      -0.344   0.371  -6.409  0.00  0.00    -0.029 C 
ATOM     28  C   UNL     1       0.248   1.049  -5.452  0.00  0.00    -0.086 C 
ATOM     29  C   UNL     1       0.489   2.530  -5.691  0.00  0.00    +0.019 C 
ATOM     30  C   UNL     1      -0.743   3.207  -6.310  0.00  0.00    +0.012 C 
ATOM     31  C   UNL     1       1.736   4.090  -7.363  0.00  0.00    +0.012 C 
ENDBRANCH  22  28
ENDBRANCH   6  22
TORSDOF 8
