REMARK  Name = ZINC65500075
REMARK  8 active torsions:
REMARK  status: ('A' for Active; 'I' for Inactive)
REMARK    1  A    between atoms: C_1  and  N_2
REMARK    2  A    between atoms: C_3  and  C_5
REMARK    3  A    between atoms: C_10  and  N_11
REMARK    4  A    between atoms: C_12  and  C_14
REMARK    5  A    between atoms: C_16  and  S_20
REMARK    6  A    between atoms: N_18  and  C_19
REMARK    7  A    between atoms: S_20  and  N_23
REMARK    8  A    between atoms: N_23  and  C_24
REMARK                            x       y       z     vdW  Elec       q    Type
REMARK                         _______ _______ _______ _____ _____    ______ ____
ROOT
ATOM      1  N   UNL     1       2.199  -2.014  -2.935  0.00  0.00    -0.280 N 
ATOM      2  C   UNL     1       2.520  -2.651  -4.078  0.00  0.00    +0.265 C 
ATOM      3  O   UNL     1       2.527  -3.868  -4.115  0.00  0.00    -0.268 OA
ATOM      4  H   UNL     1       2.136  -1.046  -2.921  0.00  0.00    +0.155 HD
ENDROOT
BRANCH   1  10
ATOM      5  C   UNL     1       2.222  -2.178  -0.518  0.00  0.00    +0.058 A 
ATOM      6  C   UNL     1       1.970  -2.918   0.639  0.00  0.00    +0.016 A 
ATOM      7  C   UNL     1       1.470  -4.198   0.542  0.00  0.00    +0.021 A 
ATOM      8  C   UNL     1       1.216  -4.757  -0.702  0.00  0.00    +0.043 A 
ATOM      9  C   UNL     1       1.461  -4.037  -1.855  0.00  0.00    +0.044 A 
ATOM     10  C   UNL     1       1.958  -2.744  -1.775  0.00  0.00    +0.047 A 
ATOM     11 CL   UNL     1       0.587  -6.372  -0.810  0.00  0.00    -0.083 Cl
BRANCH   5  14
ATOM     12  C   UNL     1       3.424   1.140   0.884  0.00  0.00    +0.128 C 
ATOM     13  N   UNL     1       2.892  -0.222   0.786  0.00  0.00    -0.314 N 
ATOM     14  C   UNL     1       2.757  -0.807  -0.420  0.00  0.00    +0.246 C 
ATOM     15  O   UNL     1       3.077  -0.206  -1.427  0.00  0.00    -0.270 OA
ATOM     16  H   UNL     1       2.637  -0.701   1.590  0.00  0.00    +0.149 HD
ENDBRANCH   5  14
ENDBRANCH   1  10
BRANCH   2  17
ATOM     17  C   UNL     1       2.862  -1.880  -5.277  0.00  0.00    +0.106 A 
ATOM     18  C   UNL     1       3.326  -2.392  -6.471  0.00  0.00    +0.061 A 
ATOM     19  C   UNL     1       3.521  -1.309  -7.334  0.00  0.00    +0.123 A 
ATOM     20  C   UNL     1       3.181  -0.180  -6.667  0.00  0.00    +0.114 A 
ATOM     21  N   UNL     1       2.773  -0.514  -5.418  0.00  0.00    -0.344 N 
ATOM     22  C   UNL     1       2.317   0.424  -4.389  0.00  0.00    +0.149 C 
BRANCH  19  23
ATOM     23  S   UNL     1       4.106  -1.397  -8.993  0.00  0.00    +0.060 S 
ATOM     24  O   UNL     1       4.674  -0.129  -9.292  0.00  0.00    -0.153 OA
ATOM     25  O   UNL     1       4.845  -2.606  -9.100  0.00  0.00    -0.153 OA
BRANCH  23  26
ATOM     26  N   UNL     1       2.781  -1.565  -9.971  0.00  0.00    -0.193 NA
ATOM     27  C   UNL     1       1.796  -0.484 -10.062  0.00  0.00    +0.127 C 
ATOM     28  H   UNL     1       2.656  -2.379 -10.484  0.00  0.00    +0.148 HD
ENDBRANCH  23  26
ENDBRANCH  19  23
ENDBRANCH   2  17
TORSDOF 5
