REMARK  Name = ZINC12940391
REMARK  8 active torsions:
REMARK  status: ('A' for Active; 'I' for Inactive)
REMARK    1  A    between atoms: C_1  and  C_2
REMARK    2  A    between atoms: C_2  and  C_4
REMARK    3  A    between atoms: C_2  and  S_18
REMARK    4  A    between atoms: N_6  and  C_7
REMARK    5  A    between atoms: C_8  and  C_15
REMARK    6  A    between atoms: S_18  and  C_19
REMARK    7  A    between atoms: N_24  and  C_25
REMARK    8  A    between atoms: C_25  and  C_26
REMARK                            x       y       z     vdW  Elec       q    Type
REMARK                         _______ _______ _______ _____ _____    ______ ____
ROOT
ATOM      1  C   UNL     1       5.868  -8.441   4.922  0.00  0.00    +0.231 C 
ATOM      2  O   UNL     1       7.066  -8.320   5.071  0.00  0.00    -0.274 OA
ATOM      3  N   UNL     1       5.264  -9.604   5.234  0.00  0.00    -0.278 N 
ATOM      4  H   UNL     1       4.306  -9.701   5.115  0.00  0.00    +0.155 HD
ENDROOT
BRANCH   3   5
ATOM      5  C   UNL     1       6.011 -10.663   5.727  0.00  0.00    +0.084 A 
ATOM      6  C   UNL     1       5.576 -11.921   6.106  0.00  0.00    +0.068 A 
ATOM      7  C   UNL     1       6.579 -12.867   6.594  0.00  0.00    -0.023 A 
ATOM      8  C   UNL     1       7.838 -12.396   6.630  0.00  0.00    -0.004 A 
ATOM      9  S   UNL     1       7.715 -10.730   6.024  0.00  0.00    -0.077 S 
ATOM     10  C   UNL     1       8.810 -13.423   7.144  0.00  0.00    +0.043 C 
ATOM     11  C   UNL     1       8.056 -14.766   7.026  0.00  0.00    +0.010 C 
ATOM     12  C   UNL     1       6.586 -14.309   7.104  0.00  0.00    +0.037 C 
BRANCH   6  13
ATOM     13  C   UNL     1       4.160 -12.293   6.018  0.00  0.00    +0.244 C 
ATOM     14  O   UNL     1       3.726 -12.797   4.999  0.00  0.00    -0.270 OA
ATOM     15  N   UNL     1       3.340 -12.077   7.065  0.00  0.00    -0.325 N 
ATOM     16  H   UNL     1       3.686 -11.675   7.878  0.00  0.00    +0.145 HD
ATOM     17  H   UNL     1       2.404 -12.323   7.007  0.00  0.00    +0.145 HD
ENDBRANCH   6  13
ENDBRANCH   3   5
BRANCH   1  19
ATOM     18  C   UNL     1       4.462  -6.498   5.553  0.00  0.00    +0.029 C 
ATOM     19  C   UNL     1       5.056  -7.290   4.386  0.00  0.00    +0.136 C 
BRANCH  19  20
ATOM     20  S   UNL     1       6.122  -6.204   3.400  0.00  0.00    -0.084 S 
BRANCH  20  21
ATOM     21  C   UNL     1       5.013  -5.009   2.732  0.00  0.00    +0.161 A 
ATOM     22  N   UNL     1       3.708  -4.899   2.890  0.00  0.00    -0.133 NA
ATOM     23  N   UNL     1       3.027  -3.877   2.270  0.00  0.00    -0.125 NA
ATOM     24  C   UNL     1       3.682  -3.012   1.521  0.00  0.00    +0.182 A 
ATOM     25  S   UNL     1       5.354  -3.626   1.653  0.00  0.00    -0.025 S 
ATOM     26  N   UNL     1       3.199  -1.918   0.812  0.00  0.00    -0.320 N 
ATOM     27  H   UNL     1       3.808  -1.366   0.298  0.00  0.00    +0.148 HD
BRANCH  26  28
ATOM     28  C   UNL     1       1.769  -1.600   0.841  0.00  0.00    +0.135 C 
BRANCH  28  29
ATOM     29  C   UNL     1       1.506  -0.359  -0.014  0.00  0.00    +0.135 C 
ATOM     30  C   UNL     1       0.002  -0.004   0.002  0.00  0.00    +0.035 C 
ATOM     31  C   UNL     1      -0.019   1.541   0.011  0.00  0.00    +0.031 C 
ATOM     32  C   UNL     1       1.474   1.937  -0.002  0.00  0.00    +0.160 C 
ATOM     33  O   UNL     1       2.163   0.795   0.553  0.00  0.00    -0.375 OA
ENDBRANCH  28  29
ENDBRANCH  26  28
ENDBRANCH  20  21
ENDBRANCH  19  20
ENDBRANCH   1  19
TORSDOF 7
