REMARK  Name = ZINC39935159
REMARK  4 active torsions:
REMARK  status: ('A' for Active; 'I' for Inactive)
REMARK    1  A    between atoms: C_4  and  C_7
REMARK    2  A    between atoms: C_7  and  S_8
REMARK    3  A    between atoms: S_8  and  C_9
REMARK    4  A    between atoms: C_22  and  C_25
REMARK                            x       y       z     vdW  Elec       q    Type
REMARK                         _______ _______ _______ _____ _____    ______ ____
ROOT
ATOM      1  C   UNL     1       5.786  -1.866   1.477  0.00  0.00    +0.213 A 
ATOM      2  N   UNL     1       6.459  -2.248   2.559  0.00  0.00    -0.184 NA
ATOM      3  C   UNL     1       7.605  -2.891   2.413  0.00  0.00    +0.248 A 
ATOM      4  C   UNL     1       8.074  -3.156   1.106  0.00  0.00    +0.156 A 
ATOM      5  N   UNL     1       7.357  -2.745   0.071  0.00  0.00    -0.141 NA
ATOM      6  N   UNL     1       6.244  -2.124   0.259  0.00  0.00    -0.122 NA
ATOM      7  C   UNL     1       9.345  -3.887   0.921  0.00  0.00    +0.028 A 
ATOM      8  C   UNL     1      10.323  -3.436   0.043  0.00  0.00    +0.012 A 
ATOM      9  C   UNL     1      11.491  -4.156  -0.111  0.00  0.00    +0.001 A 
ATOM     10  C   UNL     1      11.694  -5.324   0.603  0.00  0.00    +0.002 A 
ATOM     11  C   UNL     1      10.732  -5.782   1.484  0.00  0.00    +0.023 A 
ATOM     12  C   UNL     1       9.559  -5.069   1.655  0.00  0.00    +0.039 A 
ATOM     13  N   UNL     1       8.581  -5.483   2.563  0.00  0.00    -0.307 N 
ATOM     14  C   UNL     1       8.358  -4.688   3.767  0.00  0.00    +0.288 C 
ATOM     15  O   UNL     1       8.330  -3.294   3.483  0.00  0.00    -0.450 OA
ATOM     16  H   UNL     1       8.059  -6.283   2.396  0.00  0.00    +0.150 HD
ENDROOT
BRANCH  14  17
ATOM     17  C   UNL     1       9.484  -4.969   4.765  0.00  0.00    +0.162 C 
ATOM     18  C   UNL     1       9.464  -6.424   5.181  0.00  0.00    +0.004 C 
ATOM     19  C   UNL     1       9.261  -6.426   6.497  0.00  0.00    +0.015 C 
ATOM     20  C   UNL     1       9.145  -5.047   6.974  0.00  0.00    +0.078 C 
ATOM     21  N   UNL     1       9.270  -4.205   6.001  0.00  0.00    -0.379 N 
ATOM     22  H   UNL     1       9.231  -3.239   6.073  0.00  0.00    +0.160 HD
ENDBRANCH  14  17
BRANCH   1  23
ATOM     23  S   UNL     1       4.257  -1.011   1.666  0.00  0.00    -0.080 S 
BRANCH  23  24
ATOM     24  C   UNL     1       3.711  -0.707  -0.038  0.00  0.00    +0.112 C 
BRANCH  24  28
ATOM     25  C   UNL     1      -0.017   1.378   0.010  0.00  0.00    +0.000 A 
ATOM     26  C   UNL     1       1.171   2.086   0.002  0.00  0.00    +0.000 A 
ATOM     27  C   UNL     1       2.377   1.411  -0.013  0.00  0.00    +0.004 A 
ATOM     28  C   UNL     1       2.396   0.029  -0.020  0.00  0.00    -0.037 A 
ATOM     29  C   UNL     1       1.208  -0.679  -0.012  0.00  0.00    +0.004 A 
ATOM     30  C   UNL     1       0.002  -0.004   0.002  0.00  0.00    +0.000 A 
ENDBRANCH  24  28
ENDBRANCH  23  24
ENDBRANCH   1  23
TORSDOF 4
