REMARK  Name = ZINC60164265
REMARK  6 active torsions:
REMARK  status: ('A' for Active; 'I' for Inactive)
REMARK    1  A    between atoms: C_4  and  N_7
REMARK    2  A    between atoms: C_12  and  C_14
REMARK    3  A    between atoms: N_16  and  C_17
REMARK    4  A    between atoms: C_17  and  C_18
REMARK    5  A    between atoms: C_18  and  C_20
REMARK    6  A    between atoms: C_18  and  N_27
REMARK                            x       y       z     vdW  Elec       q    Type
REMARK                         _______ _______ _______ _____ _____    ______ ____
ROOT
ATOM      1  C   UNL     1       7.227   0.208  -0.341  0.00  0.00    +0.260 C 
ATOM      2  O   UNL     1       8.251  -0.314  -0.741  0.00  0.00    -0.269 OA
ATOM      3  N   UNL     1       7.199   1.532  -0.093  0.00  0.00    -0.308 N 
ATOM      4  H   UNL     1       6.383   1.949   0.226  0.00  0.00    +0.149 HD
ENDROOT
BRANCH   1  10
ATOM      5  N   UNL     1       3.773  -0.781   0.519  0.00  0.00    -0.160 N 
ATOM      6  C   UNL     1       3.835  -2.119   0.665  0.00  0.00    +0.240 C 
ATOM      7  O   UNL     1       2.822  -2.757   0.858  0.00  0.00    -0.273 OA
ATOM      8  C   UNL     1       5.168  -2.820   0.589  0.00  0.00    +0.104 C 
ATOM      9  C   UNL     1       6.067  -2.083  -0.406  0.00  0.00    +0.071 C 
ATOM     10  C   UNL     1       6.024  -0.604  -0.126  0.00  0.00    +0.122 C 
ATOM     11  N   UNL     1       4.937  -0.039   0.295  0.00  0.00    -0.172 NA
BRANCH   5  15
ATOM     12  C   UNL     1       0.088   1.155   0.713  0.00  0.00    +0.000 A 
ATOM     13  C   UNL     1       0.956   1.426  -0.329  0.00  0.00    +0.002 A 
ATOM     14  C   UNL     1       2.178   0.786  -0.396  0.00  0.00    +0.025 A 
ATOM     15  C   UNL     1       2.535  -0.130   0.584  0.00  0.00    +0.060 A 
ATOM     16  C   UNL     1       1.662  -0.400   1.630  0.00  0.00    +0.025 A 
ATOM     17  C   UNL     1       0.441   0.243   1.691  0.00  0.00    +0.002 A 
ENDBRANCH   5  15
ENDBRANCH   1  10
BRANCH   3  18
ATOM     18  C   UNL     1       8.400   2.343  -0.307  0.00  0.00    +0.128 C 
BRANCH  18  19
ATOM     19  C   UNL     1       8.116   3.792   0.095  0.00  0.00    +0.104 C 
BRANCH  19  20
ATOM     20  C   UNL     1       7.075   4.374  -0.825  0.00  0.00    -0.029 A 
ATOM     21  C   UNL     1       7.436   4.824  -2.081  0.00  0.00    +0.006 A 
ATOM     22  C   UNL     1       6.481   5.358  -2.926  0.00  0.00    +0.020 A 
ATOM     23  C   UNL     1       5.163   5.441  -2.515  0.00  0.00    +0.041 A 
ATOM     24  C   UNL     1       4.802   4.990  -1.258  0.00  0.00    +0.020 A 
ATOM     25  C   UNL     1       5.757   4.452  -0.416  0.00  0.00    +0.006 A 
ATOM     26 CL   UNL     1       3.963   6.112  -3.575  0.00  0.00    -0.084 Cl
ENDBRANCH  19  20
BRANCH  19  27
ATOM     27  N   UNL     1       9.352   4.579  -0.004  0.00  0.00    -0.290 NA
ATOM     28  C   UNL     1      10.419   3.991   0.818  0.00  0.00    +0.113 C 
ATOM     29  C   UNL     1      11.703   4.806   0.639  0.00  0.00    +0.175 C 
ATOM     30  O   UNL     1      11.446   6.171   0.980  0.00  0.00    -0.377 OA
ATOM     31  C   UNL     1      10.413   6.776   0.198  0.00  0.00    +0.175 C 
ATOM     32  C   UNL     1       9.116   5.981   0.373  0.00  0.00    +0.113 C 
ENDBRANCH  19  27
ENDBRANCH  18  19
ENDBRANCH   3  18
TORSDOF 6
