REMARK  Name = ZINC12159829
REMARK  7 active torsions:
REMARK  status: ('A' for Active; 'I' for Inactive)
REMARK    1  A    between atoms: C_1  and  N_58
REMARK    2  A    between atoms: C_2  and  C_3
REMARK    3  A    between atoms: C_2  and  N_58
REMARK    4  A    between atoms: C_3  and  C_4
REMARK    5  A    between atoms: C_10  and  C_11
REMARK    6  A    between atoms: C_10  and  N_58
REMARK    7  A    between atoms: C_22  and  C_24
REMARK                            x       y       z     vdW  Elec       q    Type
REMARK                         _______ _______ _______ _____ _____    ______ ____
ROOT
ATOM      1  C   UNL     1       1.742   0.160  -6.855  0.00  0.00    -0.063 A 
ATOM      2  C   UNL     1       0.601  -0.100  -7.593  0.00  0.00    +0.005 A 
ATOM      3  C   UNL     1      -0.576   0.568  -7.317  0.00  0.00    +0.046 A 
ATOM      4  C   UNL     1      -0.614   1.507  -6.295  0.00  0.00    +0.125 A 
ATOM      5  C   UNL     1       0.544   1.789  -5.586  0.00  0.00    +0.012 A 
ATOM      6  C   UNL     1       1.712   1.108  -5.847  0.00  0.00    +0.010 A 
ATOM      7  C   UNL     1       0.512   2.909  -4.557  0.00  0.00    +0.146 C 
ATOM      8  N   UNL     1      -0.392   2.516  -3.471  0.00  0.00    -0.294 N 
ATOM      9  C   UNL     1      -1.841   2.663  -3.623  0.00  0.00    +0.149 C 
ATOM     10  C   UNL     1      -2.371   1.772  -4.737  0.00  0.00    +0.248 C 
ATOM     11  O   UNL     1      -1.775   2.137  -5.987  0.00  0.00    -0.490 OA
ATOM     12  C   UNL     1       0.114   2.022  -2.324  0.00  0.00    +0.221 C 
ATOM     13  O   UNL     1       1.313   1.899  -2.194  0.00  0.00    -0.275 OA
ENDROOT
BRANCH  12  14
ATOM     14  C   UNL     1      -0.811   1.623  -1.203  0.00  0.00    +0.101 C 
ATOM     15  C   UNL     1      -0.013   1.086   0.008  0.00  0.00    +0.110 C 
ATOM     16  C   UNL     1      -0.771   1.598   1.213  0.00  0.00    +0.214 C 
ATOM     17  O   UNL     1      -0.643   1.179   2.344  0.00  0.00    -0.276 OA
ATOM     18  N   UNL     1      -1.608   2.586   0.844  0.00  0.00    -0.315 N 
ATOM     19  C   UNL     1      -1.511   2.859  -0.595  0.00  0.00    +0.117 C 
ATOM     20  H   UNL     1      -2.199   3.058   1.451  0.00  0.00    +0.149 HD
ENDBRANCH  12  14
BRANCH   1  21
ATOM     21  C   UNL     1       3.016  -0.590  -7.148  0.00  0.00    -0.043 C 
BRANCH  21  23
ATOM     22  C   UNL     1       4.262   1.432  -7.621  0.00  0.00    -0.096 C 
ATOM     23  N   UNL     1       3.778   0.150  -8.176  0.00  0.00    +0.381 N 
ATOM     24  H   UNL     1       3.162   0.344  -8.974  0.00  0.00    -0.082 HD
BRANCH  23  25
ATOM     25  C   UNL     1       4.922  -0.663  -8.639  0.00  0.00    -0.073 C 
BRANCH  25  26
ATOM     26  C   UNL     1       5.558   0.024  -9.850  0.00  0.00    +0.037 C 
BRANCH  26  27
ATOM     27  C   UNL     1       6.714  -0.805 -10.348  0.00  0.00    +0.040 A 
ATOM     28  C   UNL     1       6.745  -1.209 -11.669  0.00  0.00    +0.023 A 
ATOM     29  C   UNL     1       7.813  -1.970 -12.118  0.00  0.00    +0.003 A 
ATOM     30  C   UNL     1       8.814  -2.299 -11.216  0.00  0.00    +0.020 A 
ATOM     31  C   UNL     1       8.715  -1.859  -9.910  0.00  0.00    +0.111 A 
ATOM     32  N   UNL     1       7.686  -1.131  -9.520  0.00  0.00    -0.260 NA
ENDBRANCH  26  27
ENDBRANCH  25  26
ENDBRANCH  23  25
ENDBRANCH  21  23
ENDBRANCH   1  21
TORSDOF 6
