REMARK  Name = ZINC63526184
REMARK  4 active torsions:
REMARK  status: ('A' for Active; 'I' for Inactive)
REMARK    1  A    between atoms: C_1  and  O_2
REMARK    2  A    between atoms: O_2  and  C_3
REMARK    3  A    between atoms: C_8  and  N_9
REMARK    4  A    between atoms: C_27  and  C_30
REMARK                            x       y       z     vdW  Elec       q    Type
REMARK                         _______ _______ _______ _____ _____    ______ ____
ROOT
ATOM      1  N   UNL     1      -0.123  -2.427  -0.175  0.00  0.00    -0.186 N 
ATOM      2  C   UNL     1       0.602  -2.753  -1.265  0.00  0.00    +0.265 C 
ATOM      3  O   UNL     1       1.565  -2.088  -1.596  0.00  0.00    -0.269 OA
ATOM      4  C   UNL     1       0.196  -3.937  -2.042  0.00  0.00    +0.117 C 
ATOM      5  C   UNL     1      -0.983  -4.682  -1.565  0.00  0.00    +0.258 C 
ATOM      6  N   UNL     1      -1.612  -4.238  -0.458  0.00  0.00    -0.235 N 
ATOM      7  C   UNL     1      -1.183  -3.154   0.205  0.00  0.00    +0.320 C 
ATOM      8  O   UNL     1      -1.792  -2.809   1.199  0.00  0.00    -0.251 OA
ATOM      9  O   UNL     1      -1.378  -5.670  -2.155  0.00  0.00    -0.270 OA
ATOM     10  C   UNL     1       0.892  -4.332  -3.171  0.00  0.00    +0.027 C 
ATOM     11  N   UNL     1       2.086  -3.864  -3.271  0.00  0.00    -0.316 N 
ATOM     12  C   UNL     1       3.105  -3.716  -4.172  0.00  0.00    +0.045 A 
ATOM     13  C   UNL     1       4.128  -2.845  -3.758  0.00  0.00    +0.024 A 
ATOM     14  C   UNL     1       5.224  -2.589  -4.546  0.00  0.00    +0.002 A 
ATOM     15  C   UNL     1       5.334  -3.199  -5.783  0.00  0.00    +0.001 A 
ATOM     16  C   UNL     1       4.344  -4.053  -6.204  0.00  0.00    +0.016 A 
ATOM     17  C   UNL     1       3.220  -4.327  -5.411  0.00  0.00    +0.030 A 
ATOM     18  S   UNL     1       2.047  -5.435  -6.082  0.00  0.00    -0.115 S 
ATOM     19  C   UNL     1       0.422  -4.934  -5.535  0.00  0.00    +0.087 C 
ATOM     20  C   UNL     1       0.150  -5.240  -4.087  0.00  0.00    +0.071 C 
ATOM     21  H   UNL     1      -2.389  -4.717  -0.131  0.00  0.00    +0.159 HD
ATOM     22  H   UNL     1       2.356  -3.489  -2.418  0.00  0.00    +0.152 HD
ENDROOT
BRANCH   1  28
ATOM     23  C   UNL     1      -0.291  -0.054   0.279  0.00  0.00    +0.142 A 
ATOM     24  C   UNL     1       0.071   1.051   1.034  0.00  0.00    +0.047 A 
ATOM     25  C   UNL     1       0.964   0.912   2.079  0.00  0.00    +0.004 A 
ATOM     26  C   UNL     1       1.500  -0.328   2.375  0.00  0.00    +0.002 A 
ATOM     27  C   UNL     1       1.144  -1.434   1.628  0.00  0.00    +0.028 A 
ATOM     28  C   UNL     1       0.244  -1.304   0.581  0.00  0.00    +0.087 A 
BRANCH  23  30
ATOM     29  C   UNL     1      -1.677   1.393  -1.001  0.00  0.00    +0.277 C 
ATOM     30  O   UNL     1      -1.169   0.082  -0.749  0.00  0.00    -0.493 OA
ENDBRANCH  23  30
ENDBRANCH   1  28
BRANCH  19  31
ATOM     31  C   UNL     1      -0.608  -5.643  -6.376  0.00  0.00    -0.034 A 
ATOM     32  C   UNL     1      -0.661  -7.024  -6.384  0.00  0.00    +0.005 A 
ATOM     33  C   UNL     1      -1.607  -7.674  -7.155  0.00  0.00    +0.000 A 
ATOM     34  C   UNL     1      -2.498  -6.943  -7.918  0.00  0.00    +0.000 A 
ATOM     35  C   UNL     1      -2.446  -5.562  -7.909  0.00  0.00    +0.000 A 
ATOM     36  C   UNL     1      -1.503  -4.912  -7.134  0.00  0.00    +0.005 A 
ENDBRANCH  19  31
TORSDOF 3
