REMARK  Name = ZINC67381400
REMARK  8 active torsions:
REMARK  status: ('A' for Active; 'I' for Inactive)
REMARK    1  A    between atoms: C_1  and  C_2
REMARK    2  A    between atoms: C_5  and  N_8
REMARK    3  A    between atoms: N_11  and  C_12
REMARK    4  A    between atoms: C_12  and  C_14
REMARK    5  A    between atoms: C_12  and  C_15
REMARK    6  A    between atoms: C_19  and  S_21
REMARK    7  A    between atoms: S_21  and  N_24
REMARK    8  A    between atoms: N_24  and  C_25
REMARK                            x       y       z     vdW  Elec       q    Type
REMARK                         _______ _______ _______ _____ _____    ______ ____
ROOT
ATOM      1  C   UNL     1       3.545  -6.733   1.329  0.00  0.00    +0.102 C 
ATOM      2  C   UNL     1       3.150  -6.893   2.799  0.00  0.00    +0.033 C 
ENDROOT
BRANCH   1   6
ATOM      3  N   UNL     1       1.499  -3.999  -0.034  0.00  0.00    -0.297 N 
ATOM      4  C   UNL     1       2.470  -4.663   0.623  0.00  0.00    +0.300 C 
ATOM      5  O   UNL     1       3.330  -4.047   1.222  0.00  0.00    -0.253 OA
ATOM      6  N   UNL     1       2.489  -6.011   0.616  0.00  0.00    -0.293 N 
ATOM      7  H   UNL     1       0.813  -4.491  -0.512  0.00  0.00    +0.151 HD
ATOM      8  H   UNL     1       1.803  -6.503   0.138  0.00  0.00    +0.151 HD
BRANCH   3  13
ATOM      9  C   UNL     1      -0.019   1.526   0.010  0.00  0.00    +0.007 C 
ATOM     10  C   UNL     1       0.002  -0.004   0.002  0.00  0.00    -0.014 C 
ATOM     11  C   UNL     1       0.718  -0.497  -1.257  0.00  0.00    +0.005 C 
ATOM     12  C   UNL     1       0.739  -2.027  -1.265  0.00  0.00    +0.022 C 
ATOM     13  C   UNL     1       1.479  -2.534  -0.026  0.00  0.00    +0.074 C 
ATOM     14  C   UNL     1       0.763  -2.041   1.233  0.00  0.00    +0.022 C 
ATOM     15  C   UNL     1       0.742  -0.511   1.242  0.00  0.00    +0.005 C 
ENDBRANCH   3  13
ENDBRANCH   1   6
BRANCH   1  16
ATOM     16  C   UNL     1       3.731  -8.094   0.709  0.00  0.00    -0.026 A 
ATOM     17  C   UNL     1       2.630  -8.820   0.293  0.00  0.00    +0.005 A 
ATOM     18  C   UNL     1       2.801 -10.068  -0.277  0.00  0.00    +0.002 A 
ATOM     19  C   UNL     1       4.072 -10.590  -0.431  0.00  0.00    +0.028 A 
ATOM     20  C   UNL     1       5.172  -9.863  -0.016  0.00  0.00    +0.106 A 
ATOM     21  C   UNL     1       5.002  -8.613   0.550  0.00  0.00    +0.034 A 
BRANCH  20  22
ATOM     22  S   UNL     1       6.792 -10.528  -0.211  0.00  0.00    +0.058 S 
ATOM     23  O   UNL     1       7.614  -9.886   0.753  0.00  0.00    -0.153 OA
ATOM     24  O   UNL     1       6.647 -11.941  -0.270  0.00  0.00    -0.153 OA
BRANCH  22  25
ATOM     25  N   UNL     1       7.342 -10.047  -1.697  0.00  0.00    -0.193 NA
ATOM     26  C   UNL     1       7.572  -8.626  -1.969  0.00  0.00    +0.127 C 
ATOM     27  H   UNL     1       7.513 -10.707  -2.388  0.00  0.00    +0.148 HD
ENDBRANCH  22  25
ENDBRANCH  20  22
ENDBRANCH   1  16
TORSDOF 5
