REMARK  Name = ZINC65356935
REMARK  5 active torsions:
REMARK  status: ('A' for Active; 'I' for Inactive)
REMARK    1  A    between atoms: C_1  and  N_2
REMARK    2  A    between atoms: C_18  and  C_23
REMARK    3  A    between atoms: C_25  and  O_30
REMARK    4  A    between atoms: C_28  and  O_29
REMARK    5  A    between atoms: O_30  and  C_31
REMARK                            x       y       z     vdW  Elec       q    Type
REMARK                         _______ _______ _______ _____ _____    ______ ____
ROOT
ATOM      1  C   UNL     1      -0.018   1.461   0.010  0.00  0.00    +0.140 C 
ATOM      2  N   UNL     1       0.002  -0.004   0.002  0.00  0.00    -0.255 N 
ATOM      3  C   UNL     1      -1.104  -0.777   0.003  0.00  0.00    +0.242 C 
ATOM      4  O   UNL     1      -2.257  -0.405   0.039  0.00  0.00    -0.273 OA
ATOM      5  C   UNL     1      -0.606  -2.205  -0.051  0.00  0.00    +0.166 C 
ATOM      6  C   UNL     1      -1.102  -2.979   1.182  0.00  0.00    +0.065 C 
ATOM      7  C   UNL     1      -0.130  -4.116   1.394  0.00  0.00    -0.034 C 
ATOM      8  C   UNL     1      -0.024  -4.991   2.388  0.00  0.00    -0.001 A 
ATOM      9  C   UNL     1      -0.856  -5.224   3.579  0.00  0.00    +0.010 A 
ATOM     10  C   UNL     1      -0.441  -6.212   4.416  0.00  0.00    +0.001 A 
ATOM     11  C   UNL     1       0.705  -6.981   4.189  0.00  0.00    +0.002 A 
ATOM     12  C   UNL     1       1.525  -6.839   3.117  0.00  0.00    +0.026 A 
ATOM     13  C   UNL     1       1.189  -5.835   2.163  0.00  0.00    +0.043 A 
ATOM     14  N   UNL     1       1.776  -5.499   1.053  0.00  0.00    -0.375 N 
ATOM     15  C   UNL     1       0.987  -4.445   0.412  0.00  0.00    +0.131 C 
ATOM     16  C   UNL     1       1.811  -3.164   0.220  0.00  0.00    +0.136 C 
ATOM     17  N   UNL     1       0.862  -2.054   0.037  0.00  0.00    -0.291 N 
ATOM     18  C   UNL     1       1.121  -0.742  -0.013  0.00  0.00    +0.143 C 
ATOM     19  S   UNL     1       2.699  -0.081  -0.083  0.00  0.00    -0.018 S 
ATOM     20  H   UNL     1       2.598  -5.882   0.708  0.00  0.00    +0.160 HD
ENDROOT
BRANCH  16  21
ATOM     21  C   UNL     1       2.680  -2.927   1.428  0.00  0.00    +0.020 A 
ATOM     22  C   UNL     1       2.241  -2.100   2.444  0.00  0.00    +0.054 A 
ATOM     23  C   UNL     1       3.040  -1.882   3.555  0.00  0.00    +0.121 A 
ATOM     24  C   UNL     1       4.281  -2.495   3.648  0.00  0.00    +0.049 A 
ATOM     25  C   UNL     1       4.721  -3.322   2.633  0.00  0.00    +0.049 A 
ATOM     26  C   UNL     1       3.918  -3.544   1.523  0.00  0.00    +0.122 A 
BRANCH  26  27
ATOM     27  O   UNL     1       4.348  -4.363   0.526  0.00  0.00    -0.506 OA
ATOM     28  H   UNL     1       4.847  -3.910  -0.167  0.00  0.00    +0.292 HD
ENDBRANCH  26  27
BRANCH  23  29
ATOM     29  O   UNL     1       2.608  -1.068   4.555  0.00  0.00    -0.495 OA
ATOM     30  C   UNL     1       3.484  -0.889   5.670  0.00  0.00    +0.277 C 
ENDBRANCH  23  29
ENDBRANCH  16  21
TORSDOF 3
