REMARK  Name = ZINC39469519
REMARK  8 active torsions:
REMARK  status: ('A' for Active; 'I' for Inactive)
REMARK    1  A    between atoms: C_1  and  C_2
REMARK    2  A    between atoms: C_2  and  O_3
REMARK    3  A    between atoms: O_3  and  C_4
REMARK    4  A    between atoms: P_13  and  O_29
REMARK    5  A    between atoms: C_21  and  C_22
REMARK    6  A    between atoms: C_27  and  O_28
REMARK    7  A    between atoms: O_29  and  C_30
REMARK    8  A    between atoms: C_30  and  C_31
REMARK                            x       y       z     vdW  Elec       q    Type
REMARK                         _______ _______ _______ _____ _____    ______ ____
ROOT
ATOM      1  C   UNL     1       0.777  -1.810  -1.336  0.00  0.00    +0.124 C 
ATOM      2  C   UNL     1       0.263  -2.640  -0.423  0.00  0.00    +0.023 C 
ATOM      3  C   UNL     1       0.386  -4.123  -0.636  0.00  0.00    +0.025 C 
ATOM      4  C   UNL     1      -0.684  -4.887   0.139  0.00  0.00    +0.031 C 
ATOM      5  C   UNL     1      -0.535  -6.391  -0.125  0.00  0.00    +0.100 C 
ATOM      6  C   UNL     1      -1.661  -7.101   0.637  0.00  0.00    +0.191 C 
ATOM      7  O   UNL     1      -1.528  -8.524   0.475  0.00  0.00    -0.294 OA
ATOM      8  P   UNL     1      -1.363  -9.105  -1.036  0.00  0.00    +0.421 P 
ATOM      9  O   UNL     1      -2.682  -9.178  -1.704  0.00  0.00    -0.239 OA
ATOM     10  N   UNL     1      -0.388  -8.024  -1.813  0.00  0.00    -0.156 NA
ATOM     11  N   UNL     1      -0.613  -6.685  -1.557  0.00  0.00    -0.228 NA
ATOM     12  C   UNL     1       0.375  -5.928  -2.347  0.00  0.00    +0.111 C 
ATOM     13  C   UNL     1       0.200  -4.431  -2.128  0.00  0.00    +0.035 C 
ATOM     14  C   UNL     1       1.189  -3.623  -2.921  0.00  0.00    -0.010 C 
ATOM     15  C   UNL     1       1.457  -2.365  -2.530  0.00  0.00    +0.023 C 
ATOM     16  H   UNL     1       0.304  -8.320  -2.426  0.00  0.00    +0.153 HD
ENDROOT
BRANCH  15  17
ATOM     17  C   UNL     1       2.432  -1.543  -3.286  0.00  0.00    +0.027 A 
ATOM     18  C   UNL     1       2.076  -0.987  -4.513  0.00  0.00    +0.012 A 
ATOM     19  C   UNL     1       2.986  -0.222  -5.213  0.00  0.00    +0.001 A 
ATOM     20  C   UNL     1       4.253  -0.003  -4.699  0.00  0.00    +0.004 A 
ATOM     21  C   UNL     1       4.617  -0.550  -3.483  0.00  0.00    +0.046 A 
ATOM     22  C   UNL     1       3.710  -1.315  -2.767  0.00  0.00    +0.125 A 
BRANCH  22  23
ATOM     23  O   UNL     1       4.065  -1.848  -1.569  0.00  0.00    -0.506 OA
ATOM     24  H   UNL     1       4.462  -2.727  -1.632  0.00  0.00    +0.292 HD
ENDBRANCH  22  23
ENDBRANCH  15  17
BRANCH   1  25
ATOM     25  O   UNL     1       0.671  -0.465  -1.174  0.00  0.00    -0.492 OA
BRANCH  25  27
ATOM     26  C   UNL     1      -0.019   1.526   0.010  0.00  0.00    +0.048 C 
ATOM     27  C   UNL     1       0.002  -0.004   0.002  0.00  0.00    +0.225 C 
ENDBRANCH  25  27
ENDBRANCH   1  25
BRANCH   8  28
ATOM     28  O   UNL     1      -0.675 -10.560  -1.003  0.00  0.00    -0.296 OA
BRANCH  28  29
ATOM     29  C   UNL     1      -0.589 -11.406  -2.150  0.00  0.00    +0.168 C 
ATOM     30  C   UNL     1       0.122 -12.708  -1.772  0.00  0.00    +0.035 C 
ENDBRANCH  28  29
ENDBRANCH   8  28
TORSDOF 6
