REMARK  Name = ZINC59878737
REMARK  12 active torsions:
REMARK  status: ('A' for Active; 'I' for Inactive)
REMARK    1  A    between atoms: C_1  and  C_2
REMARK    2  A    between atoms: C_2  and  C_4
REMARK    3  A    between atoms: C_2  and  S_13
REMARK    4  A    between atoms: N_6  and  N_7
REMARK    5  A    between atoms: C_8  and  C_10
REMARK    6  A    between atoms: C_10  and  C_11
REMARK    7  A    between atoms: C_10  and  C_12
REMARK    8  A    between atoms: S_13  and  C_14
REMARK    9  A    between atoms: N_19  and  N_20
REMARK   10  A    between atoms: C_21  and  C_22
REMARK   11  A    between atoms: C_24  and  N_29
REMARK   12  A    between atoms: C_27  and  O_28
REMARK                            x       y       z     vdW  Elec       q    Type
REMARK                         _______ _______ _______ _____ _____    ______ ____
ROOT
ATOM      1  C   UNL     1      -2.335  -0.110   1.573  0.00  0.00    +0.211 A 
ATOM      2  N   UNL     1      -3.558  -0.349   2.032  0.00  0.00    -0.186 NA
ATOM      3  C   UNL     1      -3.649   0.207   3.237  0.00  0.00    +0.232 A 
ATOM      4  N   UNL     1      -2.439   0.795   3.504  0.00  0.00    -0.245 N 
ATOM      5  N   UNL     1      -1.665   0.588   2.495  0.00  0.00    -0.144 NA
ATOM      6  N   UNL     1      -4.729   0.194   4.045  0.00  0.00    -0.205 N 
ATOM      7  H   UNL     1      -4.692   0.631   4.910  0.00  0.00    +0.177 HD
ATOM      8  H   UNL     1      -2.206   1.279   4.312  0.00  0.00    +0.192 HD
ENDROOT
BRANCH   6   9
ATOM      9  N   UNL     1      -5.810  -0.401   3.668  0.00  0.00    -0.187 NA
ATOM     10  C   UNL     1      -6.875  -0.413   4.465  0.00  0.00    +0.142 C 
BRANCH  10  11
ATOM     11  C   UNL     1      -8.053  -1.061   4.054  0.00  0.00    +0.038 A 
ATOM     12  C   UNL     1      -9.194  -1.077   4.888  0.00  0.00    +0.045 A 
ATOM     13  C   UNL     1     -10.326  -1.708   4.474  0.00  0.00    +0.127 A 
ATOM     14  C   UNL     1     -10.388  -2.343   3.237  0.00  0.00    +0.036 A 
ATOM     15  C   UNL     1      -9.303  -2.358   2.384  0.00  0.00    +0.048 A 
ATOM     16  C   UNL     1      -8.123  -1.726   2.750  0.00  0.00    +0.126 A 
BRANCH  13  17
ATOM     17  N   UNL     1     -11.515  -1.719   5.356  0.00  0.00    +0.056 N 
ATOM     18  O   UNL     1     -11.470  -1.122   6.529  0.00  0.00    -0.126 OA
ATOM     19  O   UNL     1     -12.617  -2.326   4.968  0.00  0.00    -0.126 OA
ENDBRANCH  13  17
BRANCH  16  20
ATOM     20  O   UNL     1      -7.054  -1.728   1.920  0.00  0.00    -0.506 OA
ATOM     21  H   UNL     1      -6.460  -2.480   2.047  0.00  0.00    +0.292 HD
ENDBRANCH  16  20
ENDBRANCH  10  11
ENDBRANCH   6   9
BRANCH   1  22
ATOM     22  S   UNL     1      -1.700  -0.632   0.015  0.00  0.00    -0.072 S 
BRANCH  22  24
ATOM     23  C   UNL     1      -0.019   1.526   0.010  0.00  0.00    +0.029 C 
ATOM     24  C   UNL     1       0.002  -0.004   0.002  0.00  0.00    +0.138 C 
BRANCH  24  25
ATOM     25  C   UNL     1       0.707  -0.490  -1.238  0.00  0.00    +0.242 C 
ATOM     26  O   UNL     1       0.066  -0.782  -2.225  0.00  0.00    -0.273 OA
ATOM     27  N   UNL     1       2.051  -0.601  -1.250  0.00  0.00    -0.233 N 
ATOM     28  H   UNL     1       2.563  -0.367  -0.460  0.00  0.00    +0.173 HD
BRANCH  27  29
ATOM     29  N   UNL     1       2.706  -1.052  -2.402  0.00  0.00    -0.234 N 
ATOM     30  C   UNL     1       4.050  -1.163  -2.414  0.00  0.00    +0.232 C 
ATOM     31  O   UNL     1       4.691  -0.871  -1.426  0.00  0.00    -0.274 OA
ATOM     32  H   UNL     1       2.194  -1.286  -3.192  0.00  0.00    +0.173 HD
BRANCH  30  33
ATOM     33  C   UNL     1       4.755  -1.649  -3.654  0.00  0.00    +0.070 C 
ATOM     34  C   UNL     1       4.452  -0.702  -4.817  0.00  0.00    +0.017 C 
ATOM     35  C   UNL     1       6.264  -1.681  -3.402  0.00  0.00    +0.017 C 
ENDBRANCH  30  33
ENDBRANCH  27  29
ENDBRANCH  24  25
ENDBRANCH  22  24
ENDBRANCH   1  22
TORSDOF 9
