REMARK  Name = ZINC03521280
REMARK  7 active torsions:
REMARK  status: ('A' for Active; 'I' for Inactive)
REMARK    1  A    between atoms: C_1  and  C_2
REMARK    2  A    between atoms: C_5  and  C_8
REMARK    3  A    between atoms: C_10  and  C_18
REMARK    4  A    between atoms: C_18  and  O_20
REMARK    5  A    between atoms: O_20  and  C_21
REMARK    6  A    between atoms: C_21  and  C_23
REMARK    7  A    between atoms: C_21  and  C_24
REMARK                            x       y       z     vdW  Elec       q    Type
REMARK                         _______ _______ _______ _____ _____    ______ ____
ROOT
ATOM      1  C   UNL     1       2.500   4.028  -0.101  0.00  0.00    +0.072 A 
ATOM      2  C   UNL     1       1.271   3.351  -0.101  0.00  0.00    +0.044 A 
ATOM      3  C   UNL     1       1.255   1.967   0.001  0.00  0.00    +0.070 A 
ATOM      4  C   UNL     1       2.547   1.286   0.094  0.00  0.00    +0.014 A 
ATOM      5  C   UNL     1       2.635  -0.107   0.195  0.00  0.00    +0.011 A 
ATOM      6  C   UNL     1       3.859  -0.701   0.280  0.00  0.00    +0.001 A 
ATOM      7  C   UNL     1       5.025   0.062   0.267  0.00  0.00    +0.002 A 
ATOM      8  C   UNL     1       4.976   1.419   0.170  0.00  0.00    +0.028 A 
ATOM      9  C   UNL     1       3.730   2.068   0.080  0.00  0.00    +0.072 A 
ATOM     10  N   UNL     1       3.651   3.396  -0.016  0.00  0.00    -0.247 NA
ENDROOT
BRANCH   1  15
ATOM     11  C   UNL     1       2.508   9.772  -0.505  0.00  0.00    +0.044 C 
ATOM     12  C   UNL     1       2.506   8.269  -0.399  0.00  0.00    -0.050 A 
ATOM     13  C   UNL     1       3.704   7.583  -0.308  0.00  0.00    +0.004 A 
ATOM     14  C   UNL     1       3.708   6.206  -0.211  0.00  0.00    +0.010 A 
ATOM     15  C   UNL     1       2.502   5.507  -0.205  0.00  0.00    +0.000 A 
ATOM     16  C   UNL     1       1.298   6.203  -0.302  0.00  0.00    +0.010 A 
ATOM     17  C   UNL     1       1.306   7.580  -0.393  0.00  0.00    +0.004 A 
ENDBRANCH   1  15
BRANCH   3  18
ATOM     18  C   UNL     1      -0.014   1.210   0.009  0.00  0.00    +0.341 C 
ATOM     19  O   UNL     1       0.002  -0.004  -0.004  0.00  0.00    -0.245 OA
BRANCH  18  20
ATOM     20  O   UNL     1      -1.190   1.868   0.025  0.00  0.00    -0.449 OA
BRANCH  20  21
ATOM     21  C   UNL     1      -2.397   1.061   0.026  0.00  0.00    +0.259 C 
ATOM     22  C   UNL     1      -2.832   0.793  -1.416  0.00  0.00    +0.062 C 
BRANCH  21  23
ATOM     23  C   UNL     1      -3.493   1.796   0.753  0.00  0.00    +0.261 C 
ATOM     24  O   UNL     1      -3.307   2.929   1.145  0.00  0.00    -0.271 OA
ATOM     25  N   UNL     1      -4.680   1.196   0.968  0.00  0.00    -0.237 N 
ATOM     26  C   UNL     1      -5.660   1.854   1.618  0.00  0.00    +0.303 C 
ATOM     27  O   UNL     1      -5.473   2.989   2.011  0.00  0.00    -0.253 OA
ATOM     28  N   UNL     1      -6.848   1.253   1.833  0.00  0.00    -0.313 N 
ATOM     29  H   UNL     1      -4.829   0.290   0.655  0.00  0.00    +0.159 HD
ATOM     30  H   UNL     1      -6.997   0.347   1.520  0.00  0.00    +0.146 HD
ATOM     31  H   UNL     1      -7.553   1.727   2.301  0.00  0.00    +0.146 HD
ENDBRANCH  21  23
ENDBRANCH  20  21
ENDBRANCH  18  20
ENDBRANCH   3  18
TORSDOF 5
