REMARK  Name = ZINC39335076
REMARK  7 active torsions:
REMARK  status: ('A' for Active; 'I' for Inactive)
REMARK    1  A    between atoms: C_1  and  C_2
REMARK    2  A    between atoms: C_2  and  N_3
REMARK    3  A    between atoms: N_3  and  C_4
REMARK    4  A    between atoms: C_4  and  C_5
REMARK    5  A    between atoms: C_6  and  C_8
REMARK    6  A    between atoms: C_9  and  N_20
REMARK    7  A    between atoms: C_12  and  C_18
REMARK                            x       y       z     vdW  Elec       q    Type
REMARK                         _______ _______ _______ _____ _____    ______ ____
ROOT
ATOM      1  C   UNL     1      -3.150  -1.537   1.474  0.00  0.00    +0.097 A 
ATOM      2  C   UNL     1      -3.819  -1.846   2.638  0.00  0.00    +0.053 A 
ATOM      3  C   UNL     1      -5.074  -2.576   2.541  0.00  0.00    +0.030 A 
ATOM      4  C   UNL     1      -5.927  -3.000   3.587  0.00  0.00    +0.034 A 
ATOM      5  C   UNL     1      -7.089  -3.691   3.271  0.00  0.00    +0.092 A 
ATOM      6  C   UNL     1      -7.403  -3.961   1.922  0.00  0.00    +0.135 A 
ATOM      7  N   UNL     1      -6.591  -3.556   0.960  0.00  0.00    -0.224 NA
ATOM      8  C   UNL     1      -5.481  -2.897   1.224  0.00  0.00    +0.113 A 
ATOM      9  S   UNL     1      -4.197  -2.216   0.203  0.00  0.00    -0.062 S 
ATOM     10  N   UNL     1      -8.560  -4.649   1.606  0.00  0.00    -0.342 N 
ATOM     11  H   UNL     1      -9.155  -4.946   2.312  0.00  0.00    +0.144 HD
ATOM     12  H   UNL     1      -8.776  -4.834   0.679  0.00  0.00    +0.144 HD
ENDROOT
BRANCH   1  14
ATOM     13  N   UNL     1      -1.488  -0.507   0.094  0.00  0.00    -0.298 N 
ATOM     14  C   UNL     1      -1.926  -0.841   1.324  0.00  0.00    +0.255 C 
ATOM     15  O   UNL     1      -1.270  -0.545   2.306  0.00  0.00    -0.269 OA
BRANCH  13  17
ATOM     16  C   UNL     1      -0.289   1.624   0.019  0.00  0.00    +0.024 C 
ATOM     17  C   UNL     1      -0.166   0.101  -0.072  0.00  0.00    +0.105 C 
ENDBRANCH  13  17
BRANCH  13  18
ATOM     18  C   UNL     1      -2.334  -0.751  -1.076  0.00  0.00    +0.105 C 
ATOM     19  C   UNL     1      -2.072  -2.161  -1.610  0.00  0.00    +0.024 C 
ENDBRANCH  13  18
ENDBRANCH   1  14
BRANCH   2  20
ATOM     20  N   UNL     1      -3.308  -1.472   3.873  0.00  0.00    -0.356 N 
ATOM     21  H   UNL     1      -2.471  -0.985   3.924  0.00  0.00    +0.142 HD
ATOM     22  H   UNL     1      -3.789  -1.696   4.685  0.00  0.00    +0.142 HD
ENDBRANCH   2  20
BRANCH   5  23
ATOM     23  C   UNL     1      -7.968  -4.130   4.313  0.00  0.00    +0.103 C 
ATOM     24  N   UNL     1      -8.665  -4.478   5.140  0.00  0.00    -0.191 NA
ENDBRANCH   5  23
TORSDOF 5
