REMARK  Name = ZINC13252198
REMARK  8 active torsions:
REMARK  status: ('A' for Active; 'I' for Inactive)
REMARK    1  A    between atoms: C_3  and  N_21
REMARK    2  A    between atoms: C_5  and  S_7
REMARK    3  A    between atoms: S_7  and  N_10
REMARK    4  A    between atoms: N_10  and  C_11
REMARK    5  A    between atoms: C_14  and  S_17
REMARK    6  A    between atoms: S_17  and  C_18
REMARK    7  A    between atoms: C_22  and  C_24
REMARK    8  A    between atoms: C_30  and  C_32
REMARK                            x       y       z     vdW  Elec       q    Type
REMARK                         _______ _______ _______ _____ _____    ______ ____
ROOT
ATOM      1  C   UNL     1       0.213   1.479   0.230  0.00  0.00    +0.004 A 
ATOM      2  C   UNL     1       0.184   0.098   0.216  0.00  0.00    +0.023 A 
ATOM      3  C   UNL     1       1.359  -0.618   0.032  0.00  0.00    +0.035 A 
ATOM      4  C   UNL     1       2.561   0.057  -0.137  0.00  0.00    +0.052 A 
ATOM      5  C   UNL     1       2.584   1.438  -0.122  0.00  0.00    +0.110 A 
ATOM      6  C   UNL     1       1.411   2.148   0.061  0.00  0.00    +0.029 A 
ENDROOT
BRANCH   3   7
ATOM      7  N   UNL     1       1.333  -2.017   0.017  0.00  0.00    -0.285 N 
ATOM      8  C   UNL     1       0.263  -2.666  -0.486  0.00  0.00    +0.221 C 
ATOM      9  O   UNL     1      -0.634  -2.040  -1.010  0.00  0.00    -0.275 OA
ATOM     10  H   UNL     1       2.084  -2.520   0.367  0.00  0.00    +0.155 HD
BRANCH   8  11
ATOM     11  C   UNL     1       0.182  -4.168  -0.396  0.00  0.00    +0.093 C 
ATOM     12  C   UNL     1       0.205  -4.597   1.072  0.00  0.00    +0.040 C 
ATOM     13  C   UNL     1      -0.145  -6.053   1.189  0.00  0.00    -0.030 C 
ATOM     14  C   UNL     1      -0.716  -6.741   0.253  0.00  0.00    -0.030 C 
ATOM     15  C   UNL     1      -1.104  -6.181  -1.084  0.00  0.00    +0.042 C 
ATOM     16  C   UNL     1      -1.129  -4.652  -1.028  0.00  0.00    +0.118 C 
BRANCH  16  17
ATOM     17  C   UNL     1      -1.255  -4.096  -2.423  0.00  0.00    +0.360 C 
ATOM     18  O   UNL     1      -0.387  -3.384  -2.870  0.00  0.00    -0.246 OA
ATOM     19  O   UNL     1      -2.332  -4.391  -3.168  0.00  0.00    -0.246 OA
ENDBRANCH  16  17
ENDBRANCH   8  11
ENDBRANCH   3   7
BRANCH   5  20
ATOM     20  S   UNL     1       4.108   2.295  -0.337  0.00  0.00    +0.072 S 
ATOM     21  O   UNL     1       3.979   3.531   0.352  0.00  0.00    -0.150 OA
ATOM     22  O   UNL     1       5.142   1.365  -0.046  0.00  0.00    -0.150 OA
BRANCH  20  23
ATOM     23  N   UNL     1       4.240   2.662  -1.947  0.00  0.00    -0.216 N 
ATOM     24  H   UNL     1       4.944   2.260  -2.480  0.00  0.00    +0.174 HD
BRANCH  23  25
ATOM     25  C   UNL     1       3.336   3.553  -2.538  0.00  0.00    +0.048 A 
ATOM     26  C   UNL     1       2.338   3.074  -3.376  0.00  0.00    +0.025 A 
ATOM     27  C   UNL     1       1.443   3.952  -3.956  0.00  0.00    +0.017 A 
ATOM     28  C   UNL     1       1.550   5.315  -3.710  0.00  0.00    +0.013 A 
ATOM     29  C   UNL     1       2.552   5.794  -2.876  0.00  0.00    +0.017 A 
ATOM     30  C   UNL     1       3.442   4.915  -2.292  0.00  0.00    +0.025 A 
BRANCH  28  31
ATOM     31  S   UNL     1       0.413   6.436  -4.456  0.00  0.00    -0.056 S 
BRANCH  31  32
ATOM     32  C   UNL     1      -0.681   5.368  -5.432  0.00  0.00    +0.404 C 
ATOM     33  F   UNL     1       0.074   4.672  -6.382  0.00  0.00    -0.197 F 
ATOM     34  F   UNL     1      -1.319   4.456  -4.584  0.00  0.00    -0.197 F 
ENDBRANCH  31  32
ENDBRANCH  28  31
ENDBRANCH  23  25
ENDBRANCH  20  23
ENDBRANCH   5  20
TORSDOF 8
