REMARK  Name = ZINC37951564
REMARK  4 active torsions:
REMARK  status: ('A' for Active; 'I' for Inactive)
REMARK    1  A    between atoms: C_1  and  C_2
REMARK    2  A    between atoms: C_2  and  C_3
REMARK    3  A    between atoms: C_2  and  C_13
REMARK    4  A    between atoms: C_2  and  N_16
REMARK                            x       y       z     vdW  Elec       q    Type
REMARK                         _______ _______ _______ _____ _____    ______ ____
ROOT
ATOM      1  C   UNL     1       0.608   1.359  -0.337  0.00  0.00    +0.046 C 
ATOM      2  C   UNL     1       0.002  -0.004   0.002  0.00  0.00    +0.154 C 
ENDROOT
BRANCH   2   3
ATOM      3  C   UNL     1       0.634  -0.535   1.263  0.00  0.00    +0.135 A 
ATOM      4  C   UNL     1       1.923  -0.381   1.598  0.00  0.00    +0.055 A 
ATOM      5  C   UNL     1       2.091  -1.052   2.893  0.00  0.00    +0.022 A 
ATOM      6  C   UNL     1       3.168  -1.246   3.757  0.00  0.00    +0.027 A 
ATOM      7  C   UNL     1       2.982  -1.944   4.931  0.00  0.00    +0.019 A 
ATOM      8  C   UNL     1       1.730  -2.451   5.252  0.00  0.00    +0.019 A 
ATOM      9  C   UNL     1       0.658  -2.266   4.405  0.00  0.00    +0.048 A 
ATOM     10  C   UNL     1       0.824  -1.565   3.218  0.00  0.00    +0.135 A 
ATOM     11  O   UNL     1      -0.013  -1.226   2.216  0.00  0.00    -0.457 OA
ATOM     12 BR   UNL     1       4.436  -2.211   6.109  0.00  0.00    -0.050 Br
ENDBRANCH   2   3
BRANCH   2  13
ATOM     13  N   UNL     1      -1.446   0.140   0.203  0.00  0.00    -0.287 NA
ATOM     14  C   UNL     1      -1.735   1.068   1.305  0.00  0.00    +0.067 C 
ATOM     15  C   UNL     1      -3.248   1.144   1.521  0.00  0.00    -0.067 C 
ATOM     16  N   UNL     1      -3.896   1.605   0.286  0.00  0.00    +0.381 N 
ATOM     17  C   UNL     1      -3.619   0.655  -0.799  0.00  0.00    -0.067 C 
ATOM     18  C   UNL     1      -2.109   0.575  -1.034  0.00  0.00    +0.067 C 
ATOM     19  H   UNL     1      -4.893   1.667   0.433  0.00  0.00    -0.086 HD
ATOM     20  H   UNL     1      -3.537   2.514   0.037  0.00  0.00    -0.086 HD
ENDBRANCH   2  13
BRANCH   2  21
ATOM     21  C   UNL     1       0.259  -0.964  -1.131  0.00  0.00    +0.238 C 
ATOM     22  O   UNL     1       1.201  -0.787  -1.874  0.00  0.00    -0.274 OA
ATOM     23  N   UNL     1      -0.559  -2.019  -1.319  0.00  0.00    -0.327 N 
ATOM     24  H   UNL     1      -1.312  -2.160  -0.725  0.00  0.00    +0.145 HD
ATOM     25  H   UNL     1      -0.393  -2.636  -2.049  0.00  0.00    +0.145 HD
ENDBRANCH   2  21
TORSDOF 3
