REMARK  Name = ZINC39749154
REMARK  5 active torsions:
REMARK  status: ('A' for Active; 'I' for Inactive)
REMARK    1  A    between atoms: C_3  and  N_34
REMARK    2  A    between atoms: C_6  and  C_7
REMARK    3  A    between atoms: C_7  and  S_8
REMARK    4  A    between atoms: S_8  and  C_9
REMARK    5  A    between atoms: C_15  and  C_27
REMARK                            x       y       z     vdW  Elec       q    Type
REMARK                         _______ _______ _______ _____ _____    ______ ____
ROOT
ATOM      1  C   UNL     1      -3.334  -1.974  -1.519  0.00  0.00    +0.182 C 
ATOM      2  N   UNL     1      -3.777  -2.245  -0.297  0.00  0.00    -0.154 NA
ATOM      3  C   UNL     1      -4.851  -2.994  -0.098  0.00  0.00    +0.250 C 
ATOM      4  O   UNL     1      -5.252  -3.176   1.036  0.00  0.00    -0.273 OA
ATOM      5  C   UNL     1      -5.580  -3.618  -1.246  0.00  0.00    +0.156 C 
ATOM      6  C   UNL     1      -7.087  -3.400  -1.151  0.00  0.00    +0.073 C 
ATOM      7  C   UNL     1      -7.717  -3.898  -2.436  0.00  0.00    +0.025 C 
ATOM      8  C   UNL     1      -7.013  -3.778  -3.638  0.00  0.00    +0.050 C 
ATOM      9  C   UNL     1      -7.646  -4.233  -4.932  0.00  0.00    +0.056 C 
ATOM     10  C   UNL     1      -8.588  -5.405  -4.646  0.00  0.00    +0.014 C 
ATOM     11  C   UNL     1      -9.639  -4.953  -3.627  0.00  0.00    +0.080 C 
ATOM     12  C   UNL     1      -8.951  -4.449  -2.388  0.00  0.00    +0.162 C 
ATOM     13  O   UNL     1      -9.579  -4.550  -1.203  0.00  0.00    -0.292 OA
ATOM     14  N   UNL     1      -5.785  -3.298  -3.665  0.00  0.00    -0.236 NA
ATOM     15  C   UNL     1      -5.085  -3.081  -2.560  0.00  0.00    +0.145 C 
ATOM     16  N   UNL     1      -3.989  -2.352  -2.616  0.00  0.00    -0.208 NA
ENDROOT
BRANCH   6  17
ATOM     17  C   UNL     1      -7.640  -4.171   0.019  0.00  0.00    -0.039 A 
ATOM     18  C   UNL     1      -7.496  -5.545   0.072  0.00  0.00    +0.006 A 
ATOM     19  C   UNL     1      -8.003  -6.253   1.145  0.00  0.00    +0.020 A 
ATOM     20  C   UNL     1      -8.654  -5.586   2.167  0.00  0.00    +0.041 A 
ATOM     21  C   UNL     1      -8.798  -4.211   2.114  0.00  0.00    +0.020 A 
ATOM     22  C   UNL     1      -8.286  -3.504   1.043  0.00  0.00    +0.006 A 
ATOM     23 CL   UNL     1      -9.292  -6.475   3.516  0.00  0.00    -0.084 Cl
ENDBRANCH   6  17
BRANCH   1  24
ATOM     24  S   UNL     1      -1.828  -1.075  -1.697  0.00  0.00    -0.084 S 
BRANCH  24  25
ATOM     25  C   UNL     1      -1.293  -0.775   0.010  0.00  0.00    +0.112 C 
BRANCH  25  31
ATOM     26  C   UNL     1      -0.017   1.378   0.010  0.00  0.00    +0.007 A 
ATOM     27  C   UNL     1       1.171   2.086   0.002  0.00  0.00    +0.033 A 
ATOM     28  C   UNL     1       2.377   1.411  -0.013  0.00  0.00    +0.126 A 
ATOM     29  C   UNL     1       2.396   0.029  -0.020  0.00  0.00    +0.033 A 
ATOM     30  C   UNL     1       1.208  -0.679  -0.012  0.00  0.00    +0.007 A 
ATOM     31  C   UNL     1       0.002  -0.004   0.002  0.00  0.00    -0.037 A 
BRANCH  28  32
ATOM     32  N   UNL     1       3.649   2.168  -0.022  0.00  0.00    +0.056 N 
ATOM     33  O   UNL     1       3.633   3.377  -0.016  0.00  0.00    -0.126 OA
ATOM     34  O   UNL     1       4.704   1.578  -0.035  0.00  0.00    -0.126 OA
ENDBRANCH  28  32
ENDBRANCH  25  31
ENDBRANCH  24  25
ENDBRANCH   1  24
TORSDOF 5
