REMARK  Name = ZINC50870742
REMARK  6 active torsions:
REMARK  status: ('A' for Active; 'I' for Inactive)
REMARK    1  A    between atoms: C_1  and  O_2
REMARK    2  A    between atoms: O_2  and  C_3
REMARK    3  A    between atoms: C_6  and  N_19
REMARK    4  A    between atoms: C_8  and  C_15
REMARK    5  A    between atoms: C_11  and  O_13
REMARK    6  A    between atoms: O_13  and  C_14
REMARK                            x       y       z     vdW  Elec       q    Type
REMARK                         _______ _______ _______ _____ _____    ______ ____
ROOT
ATOM      1  C   UNL     1      -1.200  -0.638   0.010  0.00  0.00    +0.124 A 
ATOM      2  C   UNL     1      -1.246  -2.014   0.009  0.00  0.00    +0.057 A 
ATOM      3  C   UNL     1      -2.488  -2.665   0.017  0.00  0.00    +0.028 A 
ATOM      4  C   UNL     1      -2.577  -4.078   0.017  0.00  0.00    +0.036 A 
ATOM      5  C   UNL     1      -3.839  -4.649   0.026  0.00  0.00    +0.055 A 
ATOM      6  C   UNL     1      -4.962  -3.832   0.035  0.00  0.00    +0.146 A 
ATOM      7  N   UNL     1      -4.867  -2.523   0.035  0.00  0.00    -0.239 NA
ATOM      8  C   UNL     1      -3.680  -1.905   0.027  0.00  0.00    +0.115 A 
ATOM      9  C   UNL     1      -3.599  -0.497   0.027  0.00  0.00    +0.149 A 
ATOM     10  C   UNL     1      -2.377   0.113   0.025  0.00  0.00    +0.093 A 
ENDROOT
BRANCH   6  11
ATOM     11  C   UNL     1      -6.329  -4.467   0.044  0.00  0.00    +0.434 C 
ATOM     12  F   UNL     1      -6.742  -4.664   1.366  0.00  0.00    -0.164 F 
ATOM     13  F   UNL     1      -7.238  -3.627  -0.608  0.00  0.00    -0.164 F 
ATOM     14  F   UNL     1      -6.276  -5.699  -0.617  0.00  0.00    -0.164 F 
ENDBRANCH   6  11
BRANCH   4  15
ATOM     15  N   UNL     1      -1.435  -4.867   0.007  0.00  0.00    -0.357 N 
ATOM     16  H   UNL     1      -0.558  -4.452   0.001  0.00  0.00    +0.142 HD
ATOM     17  H   UNL     1      -1.513  -5.834   0.007  0.00  0.00    +0.142 HD
ENDBRANCH   4  15
BRANCH   1  19
ATOM     18  C   UNL     1      -0.017   1.425   0.010  0.00  0.00    +0.277 C 
ATOM     19  O   UNL     1       0.002  -0.004   0.002  0.00  0.00    -0.495 OA
ENDBRANCH   1  19
BRANCH   9  20
ATOM     20  O   UNL     1      -4.733   0.251   0.036  0.00  0.00    -0.493 OA
ATOM     21  C   UNL     1      -4.574   1.671   0.036  0.00  0.00    +0.277 C 
ENDBRANCH   9  20
TORSDOF 4
