REMARK  Name = ZINC39635126
REMARK  8 active torsions:
REMARK  status: ('A' for Active; 'I' for Inactive)
REMARK    1  A    between atoms: C_1  and  O_2
REMARK    2  A    between atoms: O_2  and  C_3
REMARK    3  A    between atoms: C_6  and  C_9
REMARK    4  A    between atoms: C_9  and  C_10
REMARK    5  A    between atoms: C_10  and  N_11
REMARK    6  A    between atoms: C_12  and  C_14
REMARK    7  A    between atoms: C_25  and  C_27
REMARK    8  A    between atoms: C_30  and  C_32
REMARK                            x       y       z     vdW  Elec       q    Type
REMARK                         _______ _______ _______ _____ _____    ______ ____
ROOT
ATOM      1  C   UNL     1       2.244  -4.478   8.810  0.00  0.00    +0.100 C 
ATOM      2  C   UNL     1       3.417  -3.611   9.322  0.00  0.00    +0.121 C 
ATOM      3  N   UNL     1       2.846  -2.836  10.448  0.00  0.00    -0.294 N 
ATOM      4  C   UNL     1       1.958  -3.797  11.145  0.00  0.00    +0.115 C 
ATOM      5  C   UNL     1       1.290  -4.600  10.011  0.00  0.00    -0.004 C 
ATOM      6  C   UNL     1      -0.069  -3.998   9.668  0.00  0.00    -0.010 C 
ATOM      7  C   UNL     1      -1.017  -4.182  10.857  0.00  0.00    -0.082 C 
ATOM      8  N   UNL     1      -1.155  -5.612  11.158  0.00  0.00    +0.379 N 
ATOM      9  C   UNL     1       0.140  -6.162  11.576  0.00  0.00    -0.082 C 
ATOM     10  C   UNL     1       1.137  -6.062  10.418  0.00  0.00    -0.010 C 
ATOM     11  C   UNL     1       3.081  -1.547  10.767  0.00  0.00    +0.282 C 
ATOM     12  O   UNL     1       2.531  -1.049  11.732  0.00  0.00    -0.267 OA
ATOM     13  H   UNL     1      -1.826  -5.734  11.902  0.00  0.00    -0.086 HD
ATOM     14  H   UNL     1      -1.476  -6.098  10.335  0.00  0.00    -0.086 HD
ENDROOT
BRANCH  11  15
ATOM     15  C   UNL     1       3.999  -0.747   9.953  0.00  0.00    +0.190 A 
ATOM     16  C   UNL     1       4.331   0.573  10.169  0.00  0.00    +0.055 A 
ATOM     17  C   UNL     1       5.230   0.933   9.160  0.00  0.00    +0.050 A 
ATOM     18  C   UNL     1       5.413  -0.168   8.373  0.00  0.00    +0.136 A 
ATOM     19  O   UNL     1       4.671  -1.175   8.863  0.00  0.00    -0.450 OA
BRANCH  18  20
ATOM     20  C   UNL     1       6.285  -0.241   7.184  0.00  0.00    +0.017 A 
ATOM     21  C   UNL     1       7.017   0.878   6.782  0.00  0.00    +0.014 A 
ATOM     22  C   UNL     1       7.831   0.804   5.671  0.00  0.00    +0.039 A 
ATOM     23  C   UNL     1       7.923  -0.379   4.954  0.00  0.00    +0.123 A 
ATOM     24  C   UNL     1       7.198  -1.492   5.348  0.00  0.00    +0.039 A 
ATOM     25  C   UNL     1       6.386  -1.432   6.460  0.00  0.00    +0.014 A 
ATOM     26  F   UNL     1       8.721  -0.446   3.866  0.00  0.00    -0.205 F 
ENDBRANCH  18  20
ENDBRANCH  11  15
BRANCH   1  28
ATOM     27  N   UNL     1       0.926  -4.532   6.718  0.00  0.00    -0.315 N 
ATOM     28  C   UNL     1       1.552  -3.796   7.658  0.00  0.00    +0.218 C 
ATOM     29  O   UNL     1       1.559  -2.586   7.576  0.00  0.00    -0.275 OA
ATOM     30  H   UNL     1       0.921  -5.500   6.783  0.00  0.00    +0.149 HD
BRANCH  27  31
ATOM     31  C   UNL     1       0.254  -3.870   5.597  0.00  0.00    +0.109 C 
BRANCH  31  32
ATOM     32  C   UNL     1      -0.372  -4.925   4.682  0.00  0.00    +0.054 C 
BRANCH  32  36
ATOM     33  C   UNL     1      -2.333  -2.993   1.413  0.00  0.00    +0.120 A 
ATOM     34  C   UNL     1      -0.998  -3.356   1.306  0.00  0.00    +0.046 A 
ATOM     35  C   UNL     1      -0.366  -3.980   2.365  0.00  0.00    +0.007 A 
ATOM     36  C   UNL     1      -1.063  -4.243   3.530  0.00  0.00    -0.046 A 
ATOM     37  C   UNL     1      -2.394  -3.883   3.639  0.00  0.00    +0.007 A 
ATOM     38  C   UNL     1      -3.028  -3.253   2.585  0.00  0.00    +0.046 A 
BRANCH  33  40
ATOM     39  C   UNL     1      -2.179  -2.143  -0.801  0.00  0.00    +0.277 C 
ATOM     40  O   UNL     1      -2.957  -2.379   0.374  0.00  0.00    -0.495 OA
ENDBRANCH  33  40
ENDBRANCH  32  36
ENDBRANCH  31  32
ENDBRANCH  27  31
ENDBRANCH   1  28
TORSDOF 7
