REMARK  Name = ZINC16710612
REMARK  12 active torsions:
REMARK  status: ('A' for Active; 'I' for Inactive)
REMARK    1  A    between atoms: C_1  and  C_2
REMARK    2  A    between atoms: C_2  and  O_3
REMARK    3  A    between atoms: O_3  and  C_4
REMARK    4  A    between atoms: C_9  and  C_10
REMARK    5  A    between atoms: N_12  and  C_13
REMARK    6  A    between atoms: C_13  and  C_14
REMARK    7  A    between atoms: C_14  and  O_16
REMARK    8  A    between atoms: O_16  and  C_17
REMARK    9  A    between atoms: C_17  and  C_19
REMARK   10  A    between atoms: C_17  and  C_20
REMARK   11  A    between atoms: N_22  and  C_23
REMARK   12  A    between atoms: C_24  and  C_28
REMARK                            x       y       z     vdW  Elec       q    Type
REMARK                         _______ _______ _______ _____ _____    ______ ____
ROOT
ATOM      1  O   UNL     1      -3.595   1.776   0.148  0.00  0.00    -0.451 OA
ENDROOT
BRANCH   1   2
ATOM      2  C   UNL     1      -4.696   1.320   0.766  0.00  0.00    +0.325 C 
ATOM      3  O   UNL     1      -4.728   0.188   1.186  0.00  0.00    -0.249 OA
BRANCH   2   4
ATOM      4  C   UNL     1      -5.891   2.222   0.938  0.00  0.00    +0.225 C 
BRANCH   4   7
ATOM      5  C   UNL     1      -8.126   2.107   1.903  0.00  0.00    +0.248 C 
ATOM      6  O   UNL     1      -8.301   3.261   1.562  0.00  0.00    -0.270 OA
ATOM      7  N   UNL     1      -6.954   1.496   1.638  0.00  0.00    -0.301 N 
ATOM      8  H   UNL     1      -6.815   0.575   1.910  0.00  0.00    +0.150 HD
BRANCH   5  14
ATOM      9  C   UNL     1     -10.416   2.007   2.886  0.00  0.00    +0.133 A 
ATOM     10  C   UNL     1     -11.415   1.310   3.549  0.00  0.00    +0.046 A 
ATOM     11  C   UNL     1     -11.208  -0.001   3.931  0.00  0.00    +0.004 A 
ATOM     12  C   UNL     1     -10.003  -0.628   3.658  0.00  0.00    +0.001 A 
ATOM     13  C   UNL     1      -9.001   0.048   2.997  0.00  0.00    +0.017 A 
ATOM     14  C   UNL     1      -9.196   1.375   2.608  0.00  0.00    +0.078 A 
BRANCH   9  15
ATOM     15  O   UNL     1     -10.618   3.294   2.509  0.00  0.00    -0.491 OA
BRANCH  15  17
ATOM     16  C   UNL     1     -11.928   5.316   2.326  0.00  0.00    +0.048 C 
ATOM     17  C   UNL     1     -11.886   3.871   2.827  0.00  0.00    +0.226 C 
ENDBRANCH  15  17
ENDBRANCH   9  15
ENDBRANCH   5  14
ENDBRANCH   4   7
ENDBRANCH   2   4
ENDBRANCH   1   2
BRANCH   1  18
ATOM     18  C   UNL     1      -2.482   0.853   0.018  0.00  0.00    +0.259 C 
ATOM     19  C   UNL     1      -2.615   0.075  -1.292  0.00  0.00    +0.062 C 
BRANCH  18  20
ATOM     20  C   UNL     1      -1.187   1.624   0.017  0.00  0.00    +0.258 C 
ATOM     21  O   UNL     1      -1.204   2.836   0.023  0.00  0.00    -0.271 OA
ATOM     22  N   UNL     1      -0.011   0.966   0.007  0.00  0.00    -0.276 N 
ATOM     23  H   UNL     1       0.002  -0.004   0.002  0.00  0.00    +0.155 HD
BRANCH  22  24
ATOM     24  C   UNL     1       1.180   1.675  -0.000  0.00  0.00    +0.084 A 
ATOM     25  C   UNL     1       2.479   1.181  -0.010  0.00  0.00    +0.065 A 
ATOM     26  C   UNL     1       3.544   2.156  -0.021  0.00  0.00    +0.022 A 
ATOM     27  C   UNL     1       3.190   3.453  -0.010  0.00  0.00    +0.048 A 
ATOM     28  S   UNL     1       1.410   3.392   0.007  0.00  0.00    -0.081 S 
BRANCH  25  29
ATOM     29  C   UNL     1       2.755  -0.259  -0.012  0.00  0.00    +0.244 C 
ATOM     30  O   UNL     1       1.833  -1.054  -0.006  0.00  0.00    -0.270 OA
ATOM     31  N   UNL     1       4.027  -0.702  -0.022  0.00  0.00    -0.325 N 
ATOM     32  H   UNL     1       4.761  -0.068  -0.026  0.00  0.00    +0.145 HD
ATOM     33  H   UNL     1       4.210  -1.654  -0.023  0.00  0.00    +0.145 HD
ENDBRANCH  25  29
ENDBRANCH  22  24
ENDBRANCH  18  20
ENDBRANCH   1  18
TORSDOF 10
