REMARK  Name = ZINC02232879
REMARK  5 active torsions:
REMARK  status: ('A' for Active; 'I' for Inactive)
REMARK    1  A    between atoms: C_5  and  C_6
REMARK    2  A    between atoms: C_13  and  C_15
REMARK    3  A    between atoms: C_15  and  O_16
REMARK    4  A    between atoms: C_18  and  N_22
REMARK    5  A    between atoms: C_19  and  C_20
REMARK                            x       y       z     vdW  Elec       q    Type
REMARK                         _______ _______ _______ _____ _____    ______ ____
ROOT
ATOM      1  C   UNL     1      -1.286  -0.786   0.011  0.00  0.00    +0.135 C 
ATOM      2  C   UNL     1      -1.359  -1.640  -1.229  0.00  0.00    +0.164 A 
ATOM      3  C   UNL     1      -1.113  -2.965  -1.166  0.00  0.00    +0.215 A 
ATOM      4  C   UNL     1      -1.190  -3.740  -2.358  0.00  0.00    +0.228 A 
ATOM      5  O   UNL     1      -0.974  -4.943  -2.338  0.00  0.00    -0.284 OA
ATOM      6  C   UNL     1      -1.522  -3.081  -3.567  0.00  0.00    +0.098 A 
ATOM      7  C   UNL     1      -1.754  -1.753  -3.541  0.00  0.00    +0.134 A 
ATOM      8  O   UNL     1      -1.675  -1.062  -2.401  0.00  0.00    -0.457 OA
ATOM      9  O   UNL     1      -0.794  -3.574   0.002  0.00  0.00    -0.434 OA
ATOM     10  C   UNL     1      -1.089  -2.979   1.171  0.00  0.00    +0.199 C 
ATOM     11  C   UNL     1      -1.335  -1.651   1.239  0.00  0.00    +0.101 C 
ENDROOT
BRANCH   1  16
ATOM     12  C   UNL     1      -0.017   1.378   0.010  0.00  0.00    +0.012 A 
ATOM     13  C   UNL     1       1.160   2.051   0.002  0.00  0.00    +0.045 A 
ATOM     14  S   UNL     1       2.348   0.719  -0.017  0.00  0.00    -0.105 S 
ATOM     15  C   UNL     1       1.196  -0.645  -0.013  0.00  0.00    +0.049 A 
ATOM     16  C   UNL     1       0.002  -0.004   0.002  0.00  0.00    -0.025 A 
ENDBRANCH   1  16
BRANCH  10  17
ATOM     17  N   UNL     1      -1.143  -3.735   2.316  0.00  0.00    -0.328 N 
ATOM     18  H   UNL     1      -0.969  -4.688   2.276  0.00  0.00    +0.145 HD
ATOM     19  H   UNL     1      -1.356  -3.315   3.164  0.00  0.00    +0.145 HD
ENDBRANCH  10  17
BRANCH  11  20
ATOM     20  C   UNL     1      -1.645  -1.060   2.506  0.00  0.00    +0.101 C 
ATOM     21  N   UNL     1      -1.892  -0.592   3.511  0.00  0.00    -0.191 NA
ENDBRANCH  11  20
BRANCH   7  22
ATOM     22  C   UNL     1      -2.109  -1.038  -4.819  0.00  0.00    +0.230 C 
BRANCH  22  23
ATOM     23  O   UNL     1      -2.134  -1.974  -5.898  0.00  0.00    -0.387 OA
ATOM     24  H   UNL     1      -2.356  -1.582  -6.754  0.00  0.00    +0.210 HD
ENDBRANCH  22  23
ENDBRANCH   7  22
TORSDOF 5
