REMARK  Name = ZINC36024485
REMARK  9 active torsions:
REMARK  status: ('A' for Active; 'I' for Inactive)
REMARK    1  A    between atoms: C_1  and  C_2
REMARK    2  A    between atoms: C_2  and  C_3
REMARK    3  A    between atoms: C_2  and  C_4
REMARK    4  A    between atoms: N_8  and  C_27
REMARK    5  A    between atoms: N_13  and  S_16
REMARK    6  A    between atoms: S_16  and  C_19
REMARK    7  A    between atoms: C_27  and  C_28
REMARK    8  A    between atoms: C_28  and  O_29
REMARK    9  A    between atoms: O_29  and  C_30
REMARK                            x       y       z     vdW  Elec       q    Type
REMARK                         _______ _______ _______ _____ _____    ______ ____
ROOT
ATOM      1  C   UNL     1      -1.615  -0.074   0.141  0.00  0.00    +0.022 C 
ATOM      2  C   UNL     1      -2.255   0.153   1.494  0.00  0.00    +0.201 C 
ATOM      3  O   UNL     1      -2.166   1.163   2.160  0.00  0.00    -0.277 OA
ATOM      4  N   UNL     1      -2.942  -0.958   1.833  0.00  0.00    -0.311 N 
ATOM      5  C   UNL     1      -2.815  -1.956   0.768  0.00  0.00    +0.006 C 
ATOM      6  N   UNL     1      -1.661  -1.542  -0.061  0.00  0.00    +0.401 N 
ATOM      7  C   UNL     1      -2.552  -3.337   1.366  0.00  0.00    +0.023 C 
ATOM      8  C   UNL     1      -3.736  -3.741   2.252  0.00  0.00    +0.109 C 
ATOM      9  N   UNL     1      -4.972  -3.640   1.464  0.00  0.00    -0.177 NA
ATOM     10  C   UNL     1      -5.277  -2.372   0.786  0.00  0.00    +0.109 C 
ATOM     11  C   UNL     1      -4.080  -1.980  -0.087  0.00  0.00    +0.023 C 
ATOM     12  H   UNL     1      -1.821  -1.763  -1.033  0.00  0.00    -0.082 HD
ATOM     13  H   UNL     1      -0.812  -1.974   0.269  0.00  0.00    -0.082 HD
ENDROOT
BRANCH   1  15
ATOM     14  C   UNL     1      -0.140   1.927   0.398  0.00  0.00    +0.006 C 
ATOM     15  C   UNL     1      -0.166   0.417   0.149  0.00  0.00    -0.023 C 
ATOM     16  C   UNL     1       0.609  -0.296   1.259  0.00  0.00    +0.006 C 
ENDBRANCH   1  15
BRANCH   9  17
ATOM     17  S   UNL     1      -6.002  -4.931   1.341  0.00  0.00    +0.061 S 
ATOM     18  O   UNL     1      -6.742  -4.747   0.142  0.00  0.00    -0.153 OA
ATOM     19  O   UNL     1      -5.224  -6.095   1.585  0.00  0.00    -0.153 OA
BRANCH  17  20
ATOM     20  C   UNL     1      -7.154  -4.806   2.668  0.00  0.00    +0.107 A 
ATOM     21  C   UNL     1      -6.873  -5.401   3.885  0.00  0.00    +0.030 A 
ATOM     22  C   UNL     1      -7.776  -5.305   4.927  0.00  0.00    +0.023 A 
ATOM     23  C   UNL     1      -8.961  -4.613   4.753  0.00  0.00    +0.059 A 
ATOM     24  C   UNL     1      -9.242  -4.017   3.536  0.00  0.00    +0.061 A 
ATOM     25  C   UNL     1      -8.334  -4.110   2.495  0.00  0.00    +0.050 A 
ATOM     26 CL   UNL     1     -10.729  -3.148   3.316  0.00  0.00    -0.082 Cl
ATOM     27 CL   UNL     1     -10.095  -4.492   6.062  0.00  0.00    -0.082 Cl
ENDBRANCH  17  20
ENDBRANCH   9  17
BRANCH   4  28
ATOM     28  C   UNL     1      -3.697  -1.138   3.076  0.00  0.00    +0.134 C 
BRANCH  28  29
ATOM     29  C   UNL     1      -2.773  -1.700   4.158  0.00  0.00    +0.178 C 
BRANCH  29  30
ATOM     30  O   UNL     1      -1.779  -0.728   4.487  0.00  0.00    -0.381 OA
ATOM     31  C   UNL     1      -0.859  -1.156   5.494  0.00  0.00    +0.194 C 
ENDBRANCH  29  30
ENDBRANCH  28  29
ENDBRANCH   4  28
TORSDOF 6
