REMARK  Name = ZINC09356326
REMARK  6 active torsions:
REMARK  status: ('A' for Active; 'I' for Inactive)
REMARK    1  A    between atoms: C_1  and  C_2
REMARK    2  A    between atoms: C_2  and  C_3
REMARK    3  A    between atoms: C_3  and  N_4
REMARK    4  A    between atoms: N_4  and  C_5
REMARK    5  A    between atoms: C_5  and  C_27
REMARK    6  A    between atoms: C_7  and  C_21
REMARK                            x       y       z     vdW  Elec       q    Type
REMARK                         _______ _______ _______ _____ _____    ______ ____
ROOT
ATOM      1  C   UNL     1      -2.515  -2.605  -0.012  0.00  0.00    +0.015 C 
ATOM      2  C   UNL     1      -2.671  -3.978  -0.036  0.00  0.00    +0.083 C 
ATOM      3  C   UNL     1      -3.937  -4.735   0.041  0.00  0.00    +0.103 C 
ATOM      4  N   UNL     1      -3.630  -6.005  -0.015  0.00  0.00    -0.169 NA
ATOM      5  N   UNL     1      -2.247  -6.163  -0.124  0.00  0.00    -0.131 N 
ATOM      6  C   UNL     1      -1.645  -4.958  -0.145  0.00  0.00    +0.276 C 
ATOM      7  O   UNL     1      -0.448  -4.747  -0.237  0.00  0.00    -0.268 OA
ATOM      8  C   UNL     1      -1.589  -7.381  -0.205  0.00  0.00    +0.189 A 
ATOM      9  N   UNL     1      -0.302  -7.617  -0.302  0.00  0.00    -0.223 NA
ATOM     10  C   UNL     1       0.204  -8.867  -0.373  0.00  0.00    +0.080 A 
ATOM     11  C   UNL     1       1.560  -9.256  -0.479  0.00  0.00    +0.029 A 
ATOM     12  C   UNL     1       1.905 -10.580  -0.542  0.00  0.00    +0.002 A 
ATOM     13  C   UNL     1       0.946 -11.583  -0.503  0.00  0.00    +0.001 A 
ATOM     14  C   UNL     1      -0.389 -11.239  -0.399  0.00  0.00    +0.017 A 
ATOM     15  C   UNL     1      -0.745  -9.915  -0.336  0.00  0.00    +0.041 A 
ATOM     16  S   UNL     1      -2.279  -9.030  -0.195  0.00  0.00    -0.050 S 
ATOM     17  C   UNL     1      -3.728  -1.710   0.020  0.00  0.00    +0.061 C 
ENDROOT
BRANCH   3  18
ATOM     18  C   UNL     1      -5.298  -4.163   0.159  0.00  0.00    +0.003 A 
ATOM     19  C   UNL     1      -5.827  -3.394  -0.877  0.00  0.00    +0.010 A 
ATOM     20  C   UNL     1      -7.096  -2.864  -0.761  0.00  0.00    +0.001 A 
ATOM     21  C   UNL     1      -7.843  -3.094   0.380  0.00  0.00    +0.000 A 
ATOM     22  C   UNL     1      -7.324  -3.856   1.411  0.00  0.00    +0.001 A 
ATOM     23  C   UNL     1      -6.058  -4.396   1.304  0.00  0.00    +0.010 A 
ENDBRANCH   3  18
BRANCH   1  24
ATOM     24  N   UNL     1      -1.278  -2.066  -0.018  0.00  0.00    -0.347 N 
ATOM     25  H   UNL     1      -0.498  -2.642  -0.039  0.00  0.00    +0.146 HD
BRANCH  24  26
ATOM     26  C   UNL     1      -1.114  -0.610   0.007  0.00  0.00    +0.101 C 
BRANCH  26  28
ATOM     27  C   UNL     1       0.549   1.255   0.021  0.00  0.00    +0.005 C 
ATOM     28  C   UNL     1       0.377  -0.265  -0.005  0.00  0.00    +0.015 C 
ENDBRANCH  26  28
ENDBRANCH  24  26
ENDBRANCH   1  24
TORSDOF 4
