REMARK  Name = ZINC67459848
REMARK  6 active torsions:
REMARK  status: ('A' for Active; 'I' for Inactive)
REMARK    1  A    between atoms: C_3  and  C_16
REMARK    2  A    between atoms: C_4  and  O_7
REMARK    3  A    between atoms: O_7  and  C_8
REMARK    4  A    between atoms: C_16  and  N_17
REMARK    5  A    between atoms: C_18  and  C_20
REMARK    6  A    between atoms: C_22  and  O_23
REMARK                            x       y       z     vdW  Elec       q    Type
REMARK                         _______ _______ _______ _____ _____    ______ ____
ROOT
ATOM      1  C   UNL     1      -0.021   1.357  -0.263  0.00  0.00    +0.020 A 
ATOM      2  C   UNL     1       1.173   2.059  -0.182  0.00  0.00    +0.012 A 
ATOM      3  C   UNL     1       2.356   1.344  -0.105  0.00  0.00    +0.032 A 
ATOM      4  C   UNL     1       2.307  -0.044  -0.111  0.00  0.00    +0.225 A 
ATOM      5  N   UNL     1       1.149  -0.678  -0.189  0.00  0.00    -0.221 NA
ATOM      6  C   UNL     1       0.005  -0.023  -0.263  0.00  0.00    +0.114 A 
ENDROOT
BRANCH   4   7
ATOM      7  O   UNL     1       3.459  -0.757  -0.035  0.00  0.00    -0.435 OA
BRANCH   7   8
ATOM      8  C   UNL     1       3.367  -2.110   0.063  0.00  0.00    +0.166 A 
ATOM      9  C   UNL     1       3.388  -2.719   1.309  0.00  0.00    +0.052 A 
ATOM     10  C   UNL     1       3.294  -4.094   1.407  0.00  0.00    +0.042 A 
ATOM     11  C   UNL     1       3.180  -4.865   0.263  0.00  0.00    +0.126 A 
ATOM     12  C   UNL     1       3.159  -4.261  -0.982  0.00  0.00    +0.080 A 
ATOM     13  C   UNL     1       3.247  -2.884  -1.084  0.00  0.00    +0.168 A 
ATOM     14  F   UNL     1       3.222  -2.293  -2.299  0.00  0.00    -0.202 F 
ATOM     15  F   UNL     1       3.088  -6.210   0.362  0.00  0.00    -0.205 F 
ENDBRANCH   7   8
ENDBRANCH   4   7
BRANCH   3  16
ATOM     16  C   UNL     1       3.678   2.062  -0.016  0.00  0.00    +0.145 C 
BRANCH  16  17
ATOM     17  N   UNL     1       4.310   2.085  -1.338  0.00  0.00    -0.306 N 
ATOM     18  C   UNL     1       5.509   2.679  -1.500  0.00  0.00    +0.262 C 
ATOM     19  O   UNL     1       6.066   3.195  -0.550  0.00  0.00    -0.269 OA
ATOM     20  H   UNL     1       3.866   1.673  -2.095  0.00  0.00    +0.149 HD
BRANCH  18  21
ATOM     21  C   UNL     1       6.144   2.702  -2.828  0.00  0.00    +0.124 A 
ATOM     22  C   UNL     1       7.364   3.265  -3.143  0.00  0.00    +0.100 A 
ATOM     23  C   UNL     1       7.584   3.063  -4.507  0.00  0.00    +0.232 A 
ATOM     24  N   UNL     1       6.559   2.414  -5.006  0.00  0.00    -0.136 NA
ATOM     25  N   UNL     1       5.639   2.166  -3.979  0.00  0.00    -0.269 N 
ATOM     26  H   UNL     1       4.794   1.698  -4.069  0.00  0.00    +0.189 HD
BRANCH  23  27
ATOM     27  O   UNL     1       8.679   3.472  -5.203  0.00  0.00    -0.491 OA
ATOM     28  H   UNL     1       9.395   2.822  -5.227  0.00  0.00    +0.294 HD
ENDBRANCH  23  27
ENDBRANCH  18  21
ENDBRANCH  16  17
ENDBRANCH   3  16
TORSDOF 6
