REMARK  Name = ZINC06500941
REMARK  4 active torsions:
REMARK  status: ('A' for Active; 'I' for Inactive)
REMARK    1  A    between atoms: C_1  and  C_2
REMARK    2  A    between atoms: C_4  and  N_27
REMARK    3  A    between atoms: C_7  and  N_8
REMARK    4  A    between atoms: C_19  and  C_20
REMARK                            x       y       z     vdW  Elec       q    Type
REMARK                         _______ _______ _______ _____ _____    ______ ____
ROOT
ATOM      1  N   UNL     1       0.026  -0.013   2.418  0.00  0.00    -0.204 N 
ATOM      2  C   UNL     1      -1.092   0.335   3.080  0.00  0.00    +0.258 C 
ATOM      3  O   UNL     1      -2.217  -0.024   2.781  0.00  0.00    -0.269 OA
ATOM      4  C   UNL     1      -0.781   1.164   4.158  0.00  0.00    +0.081 C 
ATOM      5  H   UNL     1       0.183   3.125   6.435  0.00  0.00    +0.194 HD
ATOM      6  C   UNL     1       0.712   0.894   4.392  0.00  0.00    +0.272 C 
ATOM      7  C   UNL     1       1.152   0.371   3.059  0.00  0.00    +0.263 C 
ATOM      8  O   UNL     1       2.288   0.308   2.639  0.00  0.00    -0.271 OA
ATOM      9  O   UNL     1       1.157   2.217   4.726  0.00  0.00    -0.256 OA
ATOM     10  N   UNL     1       0.093   2.617   5.614  0.00  0.00    -0.264 N 
ATOM     11  C   UNL     1      -1.085   2.132   5.064  0.00  0.00    +0.080 C 
ENDROOT
BRANCH   1  18
ATOM     12  C   UNL     1      -0.018   1.503   0.010  0.00  0.00    +0.046 C 
ATOM     13  C   UNL     1       0.002  -0.004   0.002  0.00  0.00    -0.026 A 
ATOM     14  C   UNL     1       0.006  -0.689  -1.198  0.00  0.00    +0.038 A 
ATOM     15  C   UNL     1       0.024  -2.071  -1.206  0.00  0.00    +0.127 A 
ATOM     16  C   UNL     1       0.039  -2.773  -0.014  0.00  0.00    +0.034 A 
ATOM     17  C   UNL     1       0.035  -2.094   1.188  0.00  0.00    +0.026 A 
ATOM     18  C   UNL     1       0.023  -0.705   1.200  0.00  0.00    +0.047 A 
BRANCH  15  19
ATOM     19  N   UNL     1       0.028  -2.802  -2.493  0.00  0.00    +0.056 N 
ATOM     20  O   UNL     1       0.015  -2.190  -3.536  0.00  0.00    -0.126 OA
ATOM     21  O   UNL     1       0.045  -4.011  -2.502  0.00  0.00    -0.126 OA
ENDBRANCH  15  19
ENDBRANCH   1  18
BRANCH  11  22
ATOM     22  C   UNL     1      -2.445   2.591   5.406  0.00  0.00    +0.001 A 
ATOM     23  C   UNL     1      -3.556   2.018   4.783  0.00  0.00    +0.013 A 
ATOM     24  C   UNL     1      -4.824   2.451   5.107  0.00  0.00    +0.039 A 
ATOM     25  C   UNL     1      -4.998   3.454   6.048  0.00  0.00    +0.123 A 
ATOM     26  C   UNL     1      -3.898   4.028   6.669  0.00  0.00    +0.039 A 
ATOM     27  C   UNL     1      -2.626   3.598   6.358  0.00  0.00    +0.013 A 
ATOM     28  F   UNL     1      -6.243   3.875   6.361  0.00  0.00    -0.205 F 
ENDBRANCH  11  22
TORSDOF 3
