REMARK  Name = ZINC67163339
REMARK  9 active torsions:
REMARK  status: ('A' for Active; 'I' for Inactive)
REMARK    1  A    between atoms: C_1  and  C_2
REMARK    2  A    between atoms: C_2  and  C_3
REMARK    3  A    between atoms: C_2  and  C_4
REMARK    4  A    between atoms: C_2  and  O_5
REMARK    5  A    between atoms: O_5  and  C_6
REMARK    6  A    between atoms: N_8  and  C_9
REMARK    7  A    between atoms: C_9  and  C_10
REMARK    8  A    between atoms: N_12  and  C_13
REMARK    9  A    between atoms: C_16  and  N_20
REMARK                            x       y       z     vdW  Elec       q    Type
REMARK                         _______ _______ _______ _____ _____    ______ ____
ROOT
ATOM      1  C   UNL     1       6.372  -1.019  -5.398  0.00  0.00    +0.035 A 
ATOM      2  C   UNL     1       7.708  -1.396  -5.424  0.00  0.00    +0.025 A 
ATOM      3  C   UNL     1       8.232  -2.007  -6.547  0.00  0.00    +0.026 A 
ATOM      4  C   UNL     1       7.423  -2.244  -7.650  0.00  0.00    +0.049 A 
ATOM      5  C   UNL     1       6.085  -1.867  -7.624  0.00  0.00    +0.064 A 
ATOM      6  C   UNL     1       5.561  -1.261  -6.498  0.00  0.00    +0.045 A 
ATOM      7 CL   UNL     1       5.073  -2.163  -9.003  0.00  0.00    -0.082 Cl
ENDROOT
BRANCH   4   8
ATOM      8  N   UNL     1       7.954  -2.862  -8.788  0.00  0.00    -0.318 N 
ATOM      9  C   UNL     1       8.558  -2.075  -9.876  0.00  0.00    +0.124 C 
ATOM     10  C   UNL     1      10.027  -2.483 -10.002  0.00  0.00    +0.123 C 
ATOM     11  N   UNL     1      10.162  -3.933  -9.994  0.00  0.00    -0.313 N 
ATOM     12  C   UNL     1       9.259  -4.775  -9.490  0.00  0.00    +0.230 C 
ATOM     13  O   UNL     1       9.520  -5.960  -9.470  0.00  0.00    -0.274 OA
ATOM     14  C   UNL     1       7.937  -4.324  -8.942  0.00  0.00    +0.200 C 
ATOM     15  H   UNL     1      10.965  -4.314 -10.383  0.00  0.00    +0.149 HD
ENDBRANCH   4   8
BRANCH   1  18
ATOM     16  C   UNL     1       4.571  -0.650  -3.885  0.00  0.00    +0.234 C 
ATOM     17  O   UNL     1       3.861  -1.345  -4.580  0.00  0.00    -0.274 OA
ATOM     18  N   UNL     1       5.841  -0.399  -4.259  0.00  0.00    -0.284 N 
ATOM     19  H   UNL     1       6.388   0.211  -3.740  0.00  0.00    +0.155 HD
BRANCH  16  20
ATOM     20  C   UNL     1       4.033  -0.066  -2.605  0.00  0.00    +0.203 C 
BRANCH  20  23
ATOM     21  C   UNL     1       1.950  -0.077  -1.341  0.00  0.00    +0.401 C 
ATOM     22  O   UNL     1       2.483   0.634  -0.512  0.00  0.00    -0.226 OA
ATOM     23  N   UNL     1       2.640  -0.482  -2.425  0.00  0.00    -0.273 N 
ATOM     24  H   UNL     1       2.215  -1.050  -3.087  0.00  0.00    +0.153 HD
BRANCH  21  25
ATOM     25  O   UNL     1       0.669  -0.460  -1.176  0.00  0.00    -0.445 OA
BRANCH  25  27
ATOM     26  C   UNL     1      -0.027   1.537  -0.006  0.00  0.00    +0.055 C 
ATOM     27  C   UNL     1      -0.001   0.007  -0.004  0.00  0.00    +0.107 C 
ATOM     28  C   UNL     1       0.740  -0.489   1.240  0.00  0.00    +0.055 C 
ATOM     29  C   UNL     1      -1.435  -0.527   0.010  0.00  0.00    +0.055 C 
ENDBRANCH  25  27
ENDBRANCH  21  25
ENDBRANCH  20  23
ENDBRANCH  16  20
ENDBRANCH   1  18
TORSDOF 6
