REMARK  Name = ZINC44713203
REMARK  1 active torsions:
REMARK  status: ('A' for Active; 'I' for Inactive)
REMARK    1  A    between atoms: CA_4  and  C_12
REMARK                            x       y       z     vdW  Elec       q    Type
REMARK                         _______ _______ _______ _____ _____    ______ ____
ROOT
ATOM      1  C   UNL     1      -0.017   1.391   0.010  0.00  0.00    +0.029 A 
ATOM      2  C   UNL     1       1.186   2.074   0.002  0.00  0.00    +0.084 A 
ATOM      3  N   UNL     1       2.337   1.435  -0.013  0.00  0.00    -0.354 N 
ATOM      4  CA  UNL     1       2.417   0.109  -0.021  0.00  0.00    +0.153 A 
ATOM      5  C   UNL     1       1.250  -0.666  -0.014  0.00  0.00    +0.079 A 
ATOM      6  C   UNL     1       0.002  -0.004   0.002  0.00  0.00    +0.022 A 
ATOM      7  C   UNL     1      -1.013  -1.055   0.006  0.00  0.00    +0.066 A 
ATOM      8  C   UNL     1      -0.359  -2.230  -0.006  0.00  0.00    +0.103 A 
ATOM      9  N   UNL     1       0.994  -2.010  -0.020  0.00  0.00    -0.358 N 
ATOM     10  H   UNL     1       1.670  -2.706  -0.031  0.00  0.00    +0.165 HD
ATOM     11 CL   UNL     1      -2.735  -0.831   0.024  0.00  0.00    -0.081 Cl
ATOM     12  H   UNL     1       3.158   1.952  -0.018  0.00  0.00    +0.166 HD
ENDROOT
BRANCH   4  13
ATOM     13  C   UNL     1       3.738  -0.549  -0.038  0.00  0.00    +0.404 C 
ATOM     14  O   UNL     1       4.757   0.127  -0.045  0.00  0.00    -0.239 OA
ATOM     15  OXT UNL     1       3.813  -1.769  -0.046  0.00  0.00    -0.239 OA
ENDBRANCH   4  13
TORSDOF 1
