REMARK  Name = ZINC22452528
REMARK  5 active torsions:
REMARK  status: ('A' for Active; 'I' for Inactive)
REMARK    1  A    between atoms: C_1  and  C_2
REMARK    2  A    between atoms: C_2  and  C_3
REMARK    3  A    between atoms: C_3  and  C_4
REMARK    4  A    between atoms: C_17  and  C_19
REMARK    5  A    between atoms: C_19  and  C_20
REMARK                            x       y       z     vdW  Elec       q    Type
REMARK                         _______ _______ _______ _____ _____    ______ ____
ROOT
ATOM      1  C   UNL     1      -2.065   6.866  -0.720  0.00  0.00    +0.050 A 
ATOM      2  C   UNL     1      -2.636   7.369   0.412  0.00  0.00    +0.093 A 
ATOM      3  C   UNL     1      -2.885   6.502   1.491  0.00  0.00    +0.253 A 
ATOM      4  O   UNL     1      -3.395   6.918   2.518  0.00  0.00    -0.268 OA
ATOM      5  N   UNL     1      -2.554   5.199   1.365  0.00  0.00    -0.295 N 
ATOM      6  H   UNL     1      -2.747   4.500   2.193  0.00  0.00    +0.172 HD
ATOM      7  C   UNL     1      -1.982   4.755   0.213  0.00  0.00    +0.199 A 
ATOM      8  N   UNL     1      -1.752   5.575  -0.793  0.00  0.00    -0.221 NA
ATOM      9  N   UNL     1      -1.645   3.434   0.096  0.00  0.00    -0.298 N 
ATOM     10  C   UNL     1      -0.539   3.090   0.998  0.00  0.00    +0.108 C 
ATOM     11  C   UNL     1      -0.284   1.582   0.947  0.00  0.00    +0.019 C 
ATOM     12  C   UNL     1       0.057   1.175  -0.489  0.00  0.00    +0.003 C 
ATOM     13  C   UNL     1      -1.090   1.587  -1.415  0.00  0.00    +0.022 C 
ATOM     14  C   UNL     1      -1.320   3.096  -1.296  0.00  0.00    +0.076 C 
ENDROOT
BRANCH  14  15
ATOM     15  C   UNL     1      -2.478   3.509  -2.205  0.00  0.00    +0.019 C 
ATOM     16  C   UNL     1      -3.768   2.840  -1.725  0.00  0.00    +0.006 C 
ENDBRANCH  14  15
BRANCH   1  17
ATOM     17  C   UNL     1      -1.788   7.775  -1.890  0.00  0.00    +0.055 C 
BRANCH  17  19
ATOM     18  C   UNL     1      -0.061   9.193  -3.008  0.00  0.00    +0.004 C 
ATOM     19  C   UNL     1      -0.342   8.271  -1.820  0.00  0.00    +0.003 C 
ENDBRANCH  17  19
ENDBRANCH   1  17
TORSDOF 3
