REMARK  Name = ZINC16250031
REMARK  3 active torsions:
REMARK  status: ('A' for Active; 'I' for Inactive)
REMARK    1  A    between atoms: C_1  and  C_2
REMARK    2  A    between atoms: C_3  and  N_9
REMARK    3  A    between atoms: C_20  and  C_23
REMARK                            x       y       z     vdW  Elec       q    Type
REMARK                         _______ _______ _______ _____ _____    ______ ____
ROOT
ATOM      1  N   UNL     1       3.683  -0.631   0.689  0.00  0.00    -0.284 N 
ATOM      2  C   UNL     1       3.696  -2.006   0.670  0.00  0.00    +0.208 A 
ATOM      3  N   UNL     1       2.579  -2.646   0.899  0.00  0.00    -0.215 NA
ATOM      4  C   UNL     1       2.509  -4.000   0.893  0.00  0.00    +0.078 A 
ATOM      5  C   UNL     1       1.306  -4.667   1.135  0.00  0.00    +0.028 A 
ATOM      6  C   UNL     1       1.272  -6.044   1.125  0.00  0.00    +0.002 A 
ATOM      7  C   UNL     1       2.423  -6.780   0.878  0.00  0.00    +0.001 A 
ATOM      8  C   UNL     1       3.622  -6.146   0.638  0.00  0.00    +0.014 A 
ATOM      9  C   UNL     1       3.678  -4.755   0.643  0.00  0.00    +0.045 A 
ATOM     10  C   UNL     1       4.926  -4.024   0.393  0.00  0.00    +0.173 A 
ATOM     11  N   UNL     1       4.879  -2.648   0.418  0.00  0.00    -0.250 N 
ATOM     12  C   UNL     1       6.150  -2.235   0.159  0.00  0.00    +0.137 A 
ATOM     13  N   UNL     1       6.884  -3.304  -0.005  0.00  0.00    -0.134 NA
ATOM     14  N   UNL     1       6.165  -4.364   0.132  0.00  0.00    -0.129 NA
ATOM     15  C   UNL     1       6.624  -0.807   0.077  0.00  0.00    +0.088 C 
ATOM     16  H   UNL     1       4.515  -0.137   0.617  0.00  0.00    +0.155 HD
ENDROOT
BRANCH   1  19
ATOM     17  C   UNL     1       3.716   1.950   1.886  0.00  0.00    +0.047 C 
ATOM     18  C   UNL     1       2.441   1.318   1.389  0.00  0.00    -0.011 A 
ATOM     19  C   UNL     1       2.471   0.056   0.811  0.00  0.00    +0.038 A 
ATOM     20  C   UNL     1       1.294  -0.523   0.354  0.00  0.00    +0.023 A 
ATOM     21  C   UNL     1       0.098   0.157   0.475  0.00  0.00    +0.003 A 
ATOM     22  C   UNL     1       0.071   1.413   1.051  0.00  0.00    +0.020 A 
ATOM     23  C   UNL     1       1.242   1.994   1.508  0.00  0.00    +0.046 A 
ATOM     24 CL   UNL     1       1.203   3.572   2.230  0.00  0.00    -0.083 Cl
ENDBRANCH   1  19
TORSDOF 1
