REMARK  Name = ZINC17440275
REMARK  8 active torsions:
REMARK  status: ('A' for Active; 'I' for Inactive)
REMARK    1  A    between atoms: C_1  and  C_2
REMARK    2  A    between atoms: C_2  and  C_3
REMARK    3  A    between atoms: C_3  and  S_4
REMARK    4  A    between atoms: S_4  and  C_5
REMARK    5  A    between atoms: N_9  and  C_10
REMARK    6  A    between atoms: C_10  and  C_11
REMARK    7  A    between atoms: C_11  and  C_12
REMARK    8  A    between atoms: N_24  and  C_25
REMARK                            x       y       z     vdW  Elec       q    Type
REMARK                         _______ _______ _______ _____ _____    ______ ____
ROOT
ATOM      1  C   UNL     1      -3.112  -2.797   0.017  0.00  0.00    +0.172 A 
ATOM      2  N   UNL     1      -4.124  -1.951   0.025  0.00  0.00    -0.204 NA
ATOM      3  C   UNL     1      -5.277  -2.620   0.034  0.00  0.00    +0.169 A 
ATOM      4  C   UNL     1      -4.975  -3.978   0.031  0.00  0.00    +0.152 A 
ATOM      5  N   UNL     1      -3.590  -4.071   0.015  0.00  0.00    -0.313 N 
ATOM      6  C   UNL     1      -6.024  -4.915   0.039  0.00  0.00    +0.280 A 
ATOM      7  O   UNL     1      -5.782  -6.109   0.037  0.00  0.00    -0.265 OA
ATOM      8  N   UNL     1      -7.300  -4.477   0.049  0.00  0.00    -0.273 N 
ATOM      9  H   UNL     1      -8.025  -5.121   0.055  0.00  0.00    +0.173 HD
ATOM     10  C   UNL     1      -7.581  -3.163   0.052  0.00  0.00    +0.331 A 
ATOM     11  O   UNL     1      -8.743  -2.805   0.062  0.00  0.00    -0.246 OA
ATOM     12  N   UNL     1      -6.607  -2.232   0.044  0.00  0.00    -0.280 N 
ATOM     13  C   UNL     1      -6.955  -0.809   0.048  0.00  0.00    +0.155 C 
ENDROOT
BRANCH   1  14
ATOM     14  S   UNL     1      -1.409  -2.348   0.003  0.00  0.00    -0.088 S 
BRANCH  14  15
ATOM     15  C   UNL     1      -1.433  -0.534   0.013  0.00  0.00    +0.077 C 
BRANCH  15  17
ATOM     16  C   UNL     1      -0.019   1.526   0.010  0.00  0.00    +0.004 C 
ATOM     17  C   UNL     1       0.002  -0.004   0.002  0.00  0.00    +0.008 C 
ENDBRANCH  15  17
ENDBRANCH  14  15
ENDBRANCH   1  14
BRANCH   5  18
ATOM     18  C   UNL     1      -2.796  -5.302   0.001  0.00  0.00    +0.129 C 
BRANCH  18  19
ATOM     19  C   UNL     1      -2.507  -5.739   1.438  0.00  0.00    +0.057 C 
BRANCH  19  20
ATOM     20  C   UNL     1      -1.690  -7.005   1.424  0.00  0.00    -0.046 A 
ATOM     21  C   UNL     1      -2.322  -8.235   1.418  0.00  0.00    +0.004 A 
ATOM     22  C   UNL     1      -1.573  -9.396   1.405  0.00  0.00    +0.000 A 
ATOM     23  C   UNL     1      -0.192  -9.328   1.398  0.00  0.00    +0.000 A 
ATOM     24  C   UNL     1       0.440  -8.099   1.404  0.00  0.00    +0.000 A 
ATOM     25  C   UNL     1      -0.309  -6.937   1.413  0.00  0.00    +0.004 A 
ENDBRANCH  19  20
ENDBRANCH  18  19
ENDBRANCH   5  18
TORSDOF 6
