REMARK  Name = ZINC40371531
REMARK  5 active torsions:
REMARK  status: ('A' for Active; 'I' for Inactive)
REMARK    1  A    between atoms: C_1  and  C_2
REMARK    2  A    between atoms: C_5  and  C_7
REMARK    3  A    between atoms: N_9  and  C_10
REMARK    4  A    between atoms: C_10  and  C_18
REMARK    5  A    between atoms: N_19  and  O_20
REMARK                            x       y       z     vdW  Elec       q    Type
REMARK                         _______ _______ _______ _____ _____    ______ ____
ROOT
ATOM      1  C   UNL     1       2.894  -5.494  -0.096  0.00  0.00    +0.093 C 
ATOM      2  C   UNL     1       2.113  -6.222   0.994  0.00  0.00    +0.033 C 
ATOM      3  C   UNL     1       3.010  -6.858   2.056  0.00  0.00    +0.002 C 
ATOM      4  C   UNL     1       3.005  -5.953   3.303  0.00  0.00    +0.000 C 
ATOM      5  C   UNL     1       3.827  -4.699   3.018  0.00  0.00    +0.000 C 
ATOM      6  C   UNL     1       5.129  -5.056   2.315  0.00  0.00    +0.000 C 
ATOM      7  C   UNL     1       5.085  -4.617   0.856  0.00  0.00    +0.002 C 
ATOM      8  C   UNL     1       4.398  -5.662  -0.011  0.00  0.00    +0.033 C 
ENDROOT
BRANCH   1   9
ATOM      9  C   UNL     1       2.437  -6.059  -1.435  0.00  0.00    +0.155 C 
ATOM     10  N   UNL     1       3.283  -6.658  -2.206  0.00  0.00    -0.075 NA
ATOM     11  N   UNL     1       1.122  -5.931  -1.824  0.00  0.00    -0.342 N 
ATOM     12  H   UNL     1       0.472  -5.547  -1.216  0.00  0.00    +0.144 HD
ATOM     13  H   UNL     1       0.847  -6.225  -2.707  0.00  0.00    +0.144 HD
BRANCH  10  14
ATOM     14  O   UNL     1       2.858  -7.183  -3.451  0.00  0.00    -0.408 OA
ATOM     15  H   UNL     1       3.562  -7.612  -3.957  0.00  0.00    +0.328 HD
ENDBRANCH  10  14
ENDBRANCH   1   9
BRANCH   1  18
ATOM     16  C   UNL     1       2.899  -3.269  -1.099  0.00  0.00    +0.251 C 
ATOM     17  O   UNL     1       3.623  -3.698  -1.978  0.00  0.00    -0.270 OA
ATOM     18  N   UNL     1       2.522  -4.073  -0.085  0.00  0.00    -0.299 N 
ATOM     19  H   UNL     1       2.004  -3.713   0.652  0.00  0.00    +0.150 HD
BRANCH  16  24
ATOM     20  C   UNL     1       0.621   1.735  -0.314  0.00  0.00    +0.051 C 
ATOM     21  C   UNL     1       1.348   0.491  -0.756  0.00  0.00    -0.013 A 
ATOM     22  C   UNL     1       2.123   0.326  -1.856  0.00  0.00    +0.011 A 
ATOM     23  C   UNL     1       2.705  -0.898  -2.086  0.00  0.00    +0.021 A 
ATOM     24  C   UNL     1       2.437  -1.879  -1.143  0.00  0.00    +0.074 A 
ATOM     25  S   UNL     1       1.389  -1.006   0.005  0.00  0.00    -0.089 S 
ENDBRANCH  16  24
ENDBRANCH   1  18
TORSDOF 4
