REMARK  Name = ZINC39073194
REMARK  1 active torsions:
REMARK  status: ('A' for Active; 'I' for Inactive)
REMARK    1  A    between atoms: N_9  and  N_10
REMARK                            x       y       z     vdW  Elec       q    Type
REMARK                         _______ _______ _______ _____ _____    ______ ____
ROOT
ATOM      1  N   UNL     1       0.132  -2.745  -0.044  0.00  0.00    -0.090 NA
ATOM      2  S   UNL     1      -0.796  -3.995   0.788  0.00  0.00    -0.012 S 
ATOM      3  C   UNL     1      -2.390  -3.275   0.999  0.00  0.00    +0.025 C 
ATOM      4  C   UNL     1      -3.039  -3.094   2.159  0.00  0.00    +0.013 C 
ATOM      5  C   UNL     1      -4.339  -2.471   1.926  0.00  0.00    -0.002 C 
ATOM      6  C   UNL     1      -4.529  -2.249   0.629  0.00  0.00    -0.002 C 
ATOM      7  C   UNL     1      -3.292  -2.740  -0.090  0.00  0.00    +0.126 C 
ATOM      8  N   UNL     1      -3.640  -3.808  -1.037  0.00  0.00    -0.238 NA
ATOM      9  S   UNL     1      -2.226  -4.790  -1.428  0.00  0.00    +0.017 S 
ATOM     10  N   UNL     1      -1.460  -3.924  -2.762  0.00  0.00    -0.180 NA
ATOM     11  S   UNL     1       0.153  -4.562  -3.088  0.00  0.00    +0.028 S 
ATOM     12  N   UNL     1       1.237  -3.282  -2.539  0.00  0.00    -0.178 NA
ATOM     13  S   UNL     1       1.567  -3.429  -0.812  0.00  0.00    +0.049 S 
ATOM     14  H   UNL     1      -4.059  -3.429  -1.872  0.00  0.00    +0.137 HD
ATOM     15  H   UNL     1      -1.427  -2.933  -2.578  0.00  0.00    +0.151 HD
ATOM     16  H   UNL     1       2.094  -3.281  -3.072  0.00  0.00    +0.151 HD
ENDROOT
BRANCH   1  25
ATOM     17  C   UNL     1       1.507  -0.807   0.291  0.00  0.00    +0.137 C 
ATOM     18  C   UNL     1       1.730   0.358   1.262  0.00  0.00    +0.179 C 
ATOM     19  O   UNL     1       2.400   1.419   0.578  0.00  0.00    -0.377 OA
ATOM     20  C   UNL     1       1.657   1.976  -0.509  0.00  0.00    +0.179 C 
ATOM     21  C   UNL     1       1.430   0.894  -1.571  0.00  0.00    +0.137 C 
ATOM     22  N   UNL     1       0.844  -0.285  -0.914  0.00  0.00    -0.280 N 
ATOM     23  C   UNL     1      -0.268  -0.870  -1.403  0.00  0.00    +0.318 C 
ATOM     24  O   UNL     1      -0.932  -0.303  -2.249  0.00  0.00    -0.251 OA
ATOM     25  N   UNL     1      -0.643  -2.085  -0.954  0.00  0.00    -0.211 N 
ATOM     26  H   UNL     1      -1.463  -2.489  -1.278  0.00  0.00    +0.173 HD
ENDBRANCH   1  25
TORSDOF 1
