REMARK  Name = ZINC36375235
REMARK  9 active torsions:
REMARK  status: ('A' for Active; 'I' for Inactive)
REMARK    1  A    between atoms: C_1  and  C_2
REMARK    2  A    between atoms: C_6  and  O_27
REMARK    3  A    between atoms: C_9  and  C_25
REMARK    4  A    between atoms: C_9  and  O_26
REMARK    5  A    between atoms: C_12  and  O_24
REMARK    6  A    between atoms: C_14  and  C_22
REMARK    7  A    between atoms: C_14  and  O_23
REMARK    8  A    between atoms: O_27  and  C_28
REMARK    9  A    between atoms: C_28  and  C_30
REMARK                            x       y       z     vdW  Elec       q    Type
REMARK                         _______ _______ _______ _____ _____    ______ ____
ROOT
ATOM      1  C   UNL     1      -0.019   1.526   0.010  0.00  0.00    +0.020 C 
ATOM      2  C   UNL     1       0.002  -0.004   0.002  0.00  0.00    +0.105 C 
ATOM      3  C   UNL     1       0.767  -0.531  -1.231  0.00  0.00    +0.085 C 
ATOM      4  C   UNL     1      -0.157  -1.007  -2.321  0.00  0.00    +0.187 C 
ATOM      5  C   UNL     1       0.575  -1.498  -3.542  0.00  0.00    +0.084 C 
ATOM      6  C   UNL     1       1.136  -2.887  -3.446  0.00  0.00    +0.088 C 
ATOM      7  C   UNL     1       2.387  -2.975  -2.612  0.00  0.00    -0.031 C 
ATOM      8  C   UNL     1       3.340  -3.861  -2.806  0.00  0.00    +0.009 C 
ATOM      9  C   UNL     1       4.440  -3.711  -1.781  0.00  0.00    +0.169 C 
ATOM     10  C   UNL     1       3.801  -2.872  -0.646  0.00  0.00    +0.102 C 
ATOM     11  C   UNL     1       2.716  -2.117  -1.431  0.00  0.00    +0.093 C 
ATOM     12  C   UNL     1       1.570  -1.677  -0.612  0.00  0.00    +0.194 C 
ATOM     13  O   UNL     1       1.892  -1.195   0.700  0.00  0.00    -0.460 OA
ATOM     14  C   UNL     1       0.808  -0.535   1.177  0.00  0.00    +0.311 C 
ATOM     15  O   UNL     1       0.527  -0.391   2.344  0.00  0.00    -0.251 OA
ATOM     16  C   UNL     1       3.184  -3.771   0.427  0.00  0.00    +0.045 C 
ATOM     17  C   UNL     1       1.452  -3.386  -4.857  0.00  0.00    +0.046 C 
ENDROOT
BRANCH  10  18
ATOM     18  O   UNL     1       4.750  -1.967  -0.075  0.00  0.00    -0.385 OA
ATOM     19  H   UNL     1       5.512  -2.402   0.332  0.00  0.00    +0.210 HD
ENDBRANCH  10  18
BRANCH   9  20
ATOM     20  O   UNL     1       5.558  -3.023  -2.345  0.00  0.00    -0.385 OA
ATOM     21  H   UNL     1       5.964  -3.480  -3.095  0.00  0.00    +0.210 HD
ENDBRANCH   9  20
BRANCH   6  22
ATOM     22  O   UNL     1       0.144  -3.742  -2.873  0.00  0.00    -0.384 OA
ATOM     23  H   UNL     1      -0.674  -3.792  -3.385  0.00  0.00    +0.211 HD
ENDBRANCH   6  22
BRANCH   4  24
ATOM     24  O   UNL     1      -1.012   0.072  -2.703  0.00  0.00    -0.461 OA
BRANCH  24  25
ATOM     25  C   UNL     1      -2.235  -0.249  -3.152  0.00  0.00    +0.304 C 
ATOM     26  O   UNL     1      -2.569  -1.408  -3.218  0.00  0.00    -0.251 OA
ATOM     27  C   UNL     1      -3.192   0.836  -3.573  0.00  0.00    +0.136 C 
ENDBRANCH  24  25
ENDBRANCH   4  24
TORSDOF 5
