REMARK  Name = ZINC05482447
REMARK  7 active torsions:
REMARK  status: ('A' for Active; 'I' for Inactive)
REMARK    1  A    between atoms: C_1  and  C_2
REMARK    2  A    between atoms: C_3  and  C_21
REMARK    3  A    between atoms: C_4  and  C_14
REMARK    4  A    between atoms: C_6  and  C_10
REMARK    5  A    between atoms: C_7  and  N_9
REMARK    6  A    between atoms: C_10  and  O_12
REMARK    7  A    between atoms: O_12  and  C_13
REMARK                            x       y       z     vdW  Elec       q    Type
REMARK                         _______ _______ _______ _____ _____    ______ ____
ROOT
ATOM      1  C   UNL     1      -2.616   6.825  -2.417  0.00  0.00    +0.087 C 
ATOM      2  C   UNL     1      -1.993   6.327  -1.138  0.00  0.00    +0.118 C 
ATOM      3  C   UNL     1      -0.779   5.773  -1.181  0.00  0.00    +0.079 C 
ATOM      4  C   UNL     1      -0.109   5.259   0.064  0.00  0.00    +0.105 C 
ATOM      5  C   UNL     1      -0.794   5.816   1.282  0.00  0.00    +0.106 C 
ATOM      6  C   UNL     1      -2.029   6.377   1.188  0.00  0.00    +0.195 C 
ATOM      7  O   UNL     1      -2.676   6.454   0.013  0.00  0.00    -0.445 OA
ENDROOT
BRANCH   4   8
ATOM      8  C   UNL     1      -0.187   3.755   0.090  0.00  0.00    -0.033 A 
ATOM      9  C   UNL     1      -1.419   3.126   0.093  0.00  0.00    +0.004 A 
ATOM     10  C   UNL     1      -1.491   1.746   0.111  0.00  0.00    +0.001 A 
ATOM     11  C   UNL     1      -0.331   0.994   0.136  0.00  0.00    +0.014 A 
ATOM     12  C   UNL     1       0.901   1.622   0.133  0.00  0.00    +0.014 A 
ATOM     13  C   UNL     1       0.973   3.003   0.110  0.00  0.00    +0.019 A 
ATOM     14  I   UNL     1       2.658   0.481   0.163  0.00  0.00    -0.044 I 
ENDBRANCH   4   8
BRANCH   6  15
ATOM     15  N   UNL     1      -2.625   6.875   2.316  0.00  0.00    -0.329 N 
ATOM     16  H   UNL     1      -2.132   6.909   3.151  0.00  0.00    +0.145 HD
ATOM     17  H   UNL     1      -3.540   7.194   2.280  0.00  0.00    +0.145 HD
ENDBRANCH   6  15
BRANCH   5  18
ATOM     18  C   UNL     1      -0.152   5.756   2.528  0.00  0.00    +0.341 C 
ATOM     19  O   UNL     1       0.728   6.554   2.798  0.00  0.00    -0.245 OA
BRANCH  18  20
ATOM     20  O   UNL     1      -0.510   4.814   3.427  0.00  0.00    -0.465 OA
ATOM     21  C   UNL     1       0.186   4.811   4.675  0.00  0.00    +0.280 C 
ENDBRANCH  18  20
ENDBRANCH   5  18
BRANCH   3  22
ATOM     22  C   UNL     1      -0.103   5.666  -2.438  0.00  0.00    +0.099 C 
ATOM     23  N   UNL     1       0.433   5.581  -3.436  0.00  0.00    -0.191 NA
ENDBRANCH   3  22
TORSDOF 5
