REMARK  Name = ZINC43262567
REMARK  7 active torsions:
REMARK  status: ('A' for Active; 'I' for Inactive)
REMARK    1  A    between atoms: C_1  and  C_2
REMARK    2  A    between atoms: C_6  and  C_22
REMARK    3  A    between atoms: N_9  and  C_10
REMARK    4  A    between atoms: C_10  and  C_12
REMARK    5  A    between atoms: C_10  and  C_18
REMARK    6  A    between atoms: C_18  and  C_20
REMARK    7  A    between atoms: C_18  and  N_21
REMARK                            x       y       z     vdW  Elec       q    Type
REMARK                         _______ _______ _______ _____ _____    ______ ____
ROOT
ATOM      1  C   UNL     1       2.492   0.508   0.916  0.00  0.00    +0.079 C 
ENDROOT
BRANCH   1   8
ATOM      2  C   UNL     1       0.668   2.157  -0.451  0.00  0.00    +0.024 C 
ATOM      3  C   UNL     1       0.285   0.730  -0.055  0.00  0.00    +0.054 C 
ATOM      4  C   UNL     1      -1.212   0.670   0.256  0.00  0.00    +0.019 C 
ATOM      5  C   UNL     1      -1.586  -0.755   0.671  0.00  0.00    +0.015 C 
ATOM      6  C   UNL     1      -0.741  -1.165   1.881  0.00  0.00    +0.089 C 
ATOM      7  C   UNL     1       0.743  -1.052   1.523  0.00  0.00    +0.098 C 
ATOM      8  N   UNL     1       1.050   0.330   1.134  0.00  0.00    -0.293 NA
BRANCH   6   9
ATOM      9  C   UNL     1      -1.061  -2.588   2.260  0.00  0.00    +0.215 C 
ATOM     10  O   UNL     1      -0.188  -3.429   2.248  0.00  0.00    -0.276 OA
ATOM     11  N   UNL     1      -2.318  -2.925   2.612  0.00  0.00    -0.329 N 
ATOM     12  H   UNL     1      -3.016  -2.252   2.621  0.00  0.00    +0.145 HD
ATOM     13  H   UNL     1      -2.524  -3.841   2.856  0.00  0.00    +0.145 HD
ENDBRANCH   6   9
ENDBRANCH   1   8
BRANCH   1  14
ATOM     14  C   UNL     1       3.185   0.660   2.246  0.00  0.00    +0.006 A 
ATOM     15  C   UNL     1       4.123   1.564   2.621  0.00  0.00    +0.014 A 
ATOM     16  C   UNL     1       4.624   1.516   3.908  0.00  0.00    +0.023 A 
ATOM     17  C   UNL     1       4.163   0.564   4.758  0.00  0.00    +0.055 A 
ATOM     18  S   UNL     1       2.978  -0.298   3.738  0.00  0.00    -0.085 S 
ATOM     19 BR   UNL     1       4.644   0.240   6.557  0.00  0.00    -0.043 Br
ENDBRANCH   1  14
BRANCH   1  20
ATOM     20  C   UNL     1       3.052  -0.715   0.187  0.00  0.00    -0.056 C 
ATOM     21  C   UNL     1       2.408  -0.821  -1.197  0.00  0.00    -0.012 C 
BRANCH  20  22
ATOM     22  N   UNL     1       4.507  -0.573   0.040  0.00  0.00    +0.381 N 
ATOM     23  H   UNL     1       4.931  -0.503   0.953  0.00  0.00    -0.090 HD
ATOM     24  H   UNL     1       4.876  -1.379  -0.441  0.00  0.00    -0.090 HD
ATOM     25  H   UNL     1       4.712   0.259  -0.491  0.00  0.00    -0.090 HD
ENDBRANCH  20  22
ENDBRANCH   1  20
TORSDOF 5
