REMARK  Name = ZINC13709977
REMARK  8 active torsions:
REMARK  status: ('A' for Active; 'I' for Inactive)
REMARK    1  A    between atoms: C_1  and  C_2
REMARK    2  A    between atoms: C_2  and  C_4
REMARK    3  A    between atoms: C_2  and  O_18
REMARK    4  A    between atoms: N_6  and  C_7
REMARK    5  A    between atoms: C_9  and  C_14
REMARK    6  A    between atoms: C_14  and  O_16
REMARK    7  A    between atoms: O_16  and  C_17
REMARK    8  A    between atoms: O_18  and  C_19
REMARK                            x       y       z     vdW  Elec       q    Type
REMARK                         _______ _______ _______ _____ _____    ______ ____
ROOT
ATOM      1  C   UNL     1       0.655  -0.324  -1.180  0.00  0.00    +0.258 C 
ATOM      2  O   UNL     1      -0.050  -0.989  -1.910  0.00  0.00    -0.271 OA
ATOM      3  N   UNL     1       1.934  -0.073  -1.524  0.00  0.00    -0.281 N 
ATOM      4  H   UNL     1       2.522   0.387  -0.904  0.00  0.00    +0.155 HD
ENDROOT
BRANCH   3   5
ATOM      5  C   UNL     1       2.414  -0.475  -2.776  0.00  0.00    +0.053 A 
ATOM      6  C   UNL     1       1.534  -0.648  -3.833  0.00  0.00    +0.039 A 
ATOM      7  C   UNL     1       2.018  -1.049  -5.079  0.00  0.00    +0.061 A 
ATOM      8  C   UNL     1       3.385  -1.274  -5.253  0.00  0.00    +0.016 A 
ATOM      9  C   UNL     1       4.253  -1.100  -4.196  0.00  0.00    +0.022 A 
ATOM     10  C   UNL     1       3.775  -0.697  -2.961  0.00  0.00    +0.062 A 
ATOM     11 CL   UNL     1       4.876  -0.472  -1.638  0.00  0.00    -0.082 Cl
BRANCH   7  12
ATOM     12  C   UNL     1       1.086  -1.234  -6.210  0.00  0.00    +0.339 C 
ATOM     13  O   UNL     1      -0.102  -1.038  -6.056  0.00  0.00    -0.245 OA
BRANCH  12  14
ATOM     14  O   UNL     1       1.555  -1.622  -7.412  0.00  0.00    -0.464 OA
ATOM     15  C   UNL     1       0.583  -1.784  -8.478  0.00  0.00    +0.280 C 
ENDBRANCH  12  14
ENDBRANCH   7  12
ENDBRANCH   3   5
BRANCH   1  17
ATOM     16  C   UNL     1       0.072   1.750   0.048  0.00  0.00    +0.062 C 
ATOM     17  C   UNL     1       0.101   0.222   0.111  0.00  0.00    +0.256 C 
BRANCH  17  18
ATOM     18  O   UNL     1      -1.225  -0.272   0.306  0.00  0.00    -0.478 OA
BRANCH  18  19
ATOM     19  C   UNL     1      -1.609  -0.521   1.587  0.00  0.00    +0.140 A 
ATOM     20  C   UNL     1      -0.771  -0.186   2.640  0.00  0.00    +0.047 A 
ATOM     21  C   UNL     1      -1.162  -0.440   3.941  0.00  0.00    +0.004 A 
ATOM     22  C   UNL     1      -2.389  -1.026   4.193  0.00  0.00    +0.002 A 
ATOM     23  C   UNL     1      -3.227  -1.361   3.145  0.00  0.00    +0.023 A 
ATOM     24  C   UNL     1      -2.842  -1.105   1.842  0.00  0.00    +0.083 A 
ATOM     25 CL   UNL     1      -3.897  -1.518   0.527  0.00  0.00    -0.080 Cl
ENDBRANCH  18  19
ENDBRANCH  17  18
ENDBRANCH   1  17
TORSDOF 6
