REMARK  Name = ZINC40369835
REMARK  5 active torsions:
REMARK  status: ('A' for Active; 'I' for Inactive)
REMARK    1  A    between atoms: C_1  and  C_2
REMARK    2  A    between atoms: C_2  and  C_4
REMARK    3  A    between atoms: C_2  and  N_8
REMARK    4  A    between atoms: N_5  and  O_6
REMARK    5  A    between atoms: C_9  and  C_11
REMARK                            x       y       z     vdW  Elec       q    Type
REMARK                         _______ _______ _______ _____ _____    ______ ____
ROOT
ATOM      1  N   UNL     1      -1.372  -0.511   0.012  0.00  0.00    -0.299 N 
ATOM      2  C   UNL     1      -2.051  -0.643  -1.145  0.00  0.00    +0.280 C 
ATOM      3  O   UNL     1      -1.522  -0.340  -2.198  0.00  0.00    -0.267 OA
ATOM      4  H   UNL     1      -1.794  -0.752   0.852  0.00  0.00    +0.150 HD
ENDROOT
BRANCH   2   5
ATOM      5  C   UNL     1      -3.426  -1.150  -1.134  0.00  0.00    +0.191 A 
ATOM      6  C   UNL     1      -4.221  -1.337  -2.229  0.00  0.00    +0.056 A 
ATOM      7  C   UNL     1      -5.446  -1.833  -1.759  0.00  0.00    +0.058 A 
ATOM      8  C   UNL     1      -5.347  -1.927  -0.413  0.00  0.00    +0.171 A 
ATOM      9  O   UNL     1      -4.126  -1.520  -0.042  0.00  0.00    -0.444 OA
ATOM     10 BR   UNL     1      -6.706  -2.540   0.751  0.00  0.00    -0.008 Br
ENDBRANCH   2   5
BRANCH   1  12
ATOM     11  C   UNL     1      -0.019   1.526   0.010  0.00  0.00    +0.036 C 
ATOM     12  C   UNL     1       0.002  -0.004   0.002  0.00  0.00    +0.137 C 
BRANCH  12  13
ATOM     13  C   UNL     1       0.731  -0.503   1.223  0.00  0.00    +0.152 C 
ATOM     14  N   UNL     1       2.018  -0.609   1.208  0.00  0.00    -0.075 NA
ATOM     15  N   UNL     1       0.025  -0.847   2.354  0.00  0.00    -0.342 N 
ATOM     16  H   UNL     1      -0.942  -0.767   2.365  0.00  0.00    +0.144 HD
ATOM     17  H   UNL     1       0.494  -1.168   3.140  0.00  0.00    +0.144 HD
BRANCH  14  18
ATOM     18  O   UNL     1       2.703  -1.078   2.356  0.00  0.00    -0.408 OA
ATOM     19  H   UNL     1       3.663  -1.123   2.249  0.00  0.00    +0.328 HD
ENDBRANCH  14  18
ENDBRANCH  12  13
ENDBRANCH   1  12
TORSDOF 4
