REMARK  Name = ZINC15274634
REMARK  7 active torsions:
REMARK  status: ('A' for Active; 'I' for Inactive)
REMARK    1  A    between atoms: C_1  and  C_2
REMARK    2  A    between atoms: C_2  and  N_3
REMARK    3  A    between atoms: C_7  and  C_9
REMARK    4  A    between atoms: C_9  and  O_10
REMARK    5  A    between atoms: O_10  and  C_11
REMARK    6  A    between atoms: C_11  and  C_13
REMARK    7  A    between atoms: C_27  and  C_28
REMARK                            x       y       z     vdW  Elec       q    Type
REMARK                         _______ _______ _______ _____ _____    ______ ____
ROOT
ATOM      1  C   UNL     1       1.012   3.533  -0.022  0.00  0.00    +0.073 A 
ATOM      2  C   UNL     1       1.287   4.257   1.219  0.00  0.00    +0.015 A 
ATOM      3  C   UNL     1       1.354   3.598   2.451  0.00  0.00    +0.011 A 
ATOM      4  C   UNL     1       1.620   4.310   3.583  0.00  0.00    +0.001 A 
ATOM      5  C   UNL     1       1.833   5.686   3.527  0.00  0.00    +0.002 A 
ATOM      6  C   UNL     1       1.780   6.357   2.345  0.00  0.00    +0.028 A 
ATOM      7  C   UNL     1       1.507   5.656   1.155  0.00  0.00    +0.072 A 
ATOM      8  N   UNL     1       1.447   6.286  -0.017  0.00  0.00    -0.247 NA
ATOM      9  C   UNL     1       1.193   5.656  -1.153  0.00  0.00    +0.072 A 
ATOM     10  C   UNL     1       0.972   4.268  -1.201  0.00  0.00    -0.007 A 
ATOM     11  C   UNL     1       0.700   3.550  -2.493  0.00  0.00    +0.038 C 
ATOM     12  C   UNL     1       0.156   4.505  -3.553  0.00  0.00    +0.009 C 
ATOM     13  C   UNL     1       1.121   5.687  -3.714  0.00  0.00    +0.037 C 
ATOM     14  C   UNL     1       1.135   6.444  -2.404  0.00  0.00    -0.021 C 
ATOM     15  C   UNL     1       1.098   7.788  -2.377  0.00  0.00    +0.013 C 
ENDROOT
BRANCH  15  16
ATOM     16  C   UNL     1       1.214   8.553  -3.631  0.00  0.00    -0.021 A 
ATOM     17  C   UNL     1       2.008   8.070  -4.676  0.00  0.00    +0.012 A 
ATOM     18  C   UNL     1       2.110   8.784  -5.850  0.00  0.00    +0.050 A 
ATOM     19  C   UNL     1       1.436   9.989  -5.996  0.00  0.00    +0.166 A 
ATOM     20  C   UNL     1       0.647  10.479  -4.955  0.00  0.00    +0.167 A 
ATOM     21  C   UNL     1       0.535   9.766  -3.777  0.00  0.00    +0.057 A 
ATOM     22  O   UNL     1       0.099  11.667  -5.347  0.00  0.00    -0.453 OA
ATOM     23  C   UNL     1       0.883  12.099  -6.474  0.00  0.00    +0.466 C 
ATOM     24  O   UNL     1       1.380  10.870  -7.036  0.00  0.00    -0.453 OA
ENDBRANCH  15  16
BRANCH   1  25
ATOM     25  C   UNL     1       0.779   2.074  -0.022  0.00  0.00    +0.341 C 
ATOM     26  O   UNL     1       1.713   1.310  -0.160  0.00  0.00    -0.245 OA
BRANCH  25  27
ATOM     27  O   UNL     1      -0.470   1.591   0.130  0.00  0.00    -0.452 OA
BRANCH  27  28
ATOM     28  C   UNL     1      -0.624   0.148   0.120  0.00  0.00    +0.328 C 
BRANCH  28  33
ATOM     29  N   UNL     1      -4.147  -3.100   0.512  0.00  0.00    -0.299 N 
ATOM     30  C   UNL     1      -3.763  -1.809   0.488  0.00  0.00    +0.306 C 
ATOM     31  O   UNL     1      -4.590  -0.927   0.614  0.00  0.00    -0.252 OA
ATOM     32  N   UNL     1      -2.462  -1.495   0.326  0.00  0.00    -0.237 N 
ATOM     33  C   UNL     1      -2.078  -0.203   0.302  0.00  0.00    +0.258 C 
ATOM     34  O   UNL     1      -2.903   0.677   0.428  0.00  0.00    -0.272 OA
ATOM     35  H   UNL     1      -3.487  -3.804   0.411  0.00  0.00    +0.150 HD
ATOM     36  H   UNL     1      -1.802  -2.199   0.225  0.00  0.00    +0.159 HD
BRANCH  29  38
ATOM     37  C   UNL     1      -5.723  -4.963   0.678  0.00  0.00    +0.024 C 
ATOM     38  C   UNL     1      -5.560  -3.441   0.689  0.00  0.00    +0.102 C 
ENDBRANCH  29  38
ENDBRANCH  28  33
ENDBRANCH  27  28
ENDBRANCH  25  27
ENDBRANCH   1  25
TORSDOF 6
