REMARK  Name = ZINC08684537
REMARK  4 active torsions:
REMARK  status: ('A' for Active; 'I' for Inactive)
REMARK    1  A    between atoms: C_1  and  C_2
REMARK    2  A    between atoms: C_5  and  C_11
REMARK    3  A    between atoms: C_7  and  N_8
REMARK    4  A    between atoms: C_24  and  C_26
REMARK                            x       y       z     vdW  Elec       q    Type
REMARK                         _______ _______ _______ _____ _____    ______ ____
ROOT
ATOM      1  C   UNL     1      -0.193  -4.678  -0.199  0.00  0.00    +0.248 C 
ATOM      2  O   UNL     1      -0.386  -3.491  -0.372  0.00  0.00    -0.270 OA
ATOM      3  N   UNL     1      -0.109  -5.509  -1.256  0.00  0.00    -0.278 N 
ATOM      4  C   UNL     1      -0.359  -4.966  -2.580  0.00  0.00    +0.205 C 
ATOM      5  C   UNL     1       0.911  -4.920  -3.366  0.00  0.00    +0.235 C 
ATOM      6  O   UNL     1       1.042  -3.992  -4.137  0.00  0.00    -0.274 OA
ATOM      7  N   UNL     1       1.891  -5.775  -3.308  0.00  0.00    -0.284 N 
ATOM      8  C   UNL     1       2.340  -6.726  -2.422  0.00  0.00    +0.039 A 
ATOM      9  C   UNL     1       3.655  -7.170  -2.643  0.00  0.00    +0.026 A 
ATOM     10  C   UNL     1       4.237  -8.116  -1.835  0.00  0.00    +0.040 A 
ATOM     11  C   UNL     1       3.519  -8.650  -0.777  0.00  0.00    +0.124 A 
ATOM     12  C   UNL     1       2.228  -8.221  -0.553  0.00  0.00    +0.046 A 
ATOM     13  C   UNL     1       1.631  -7.262  -1.368  0.00  0.00    +0.001 A 
ATOM     14  C   UNL     1       0.230  -6.886  -1.016  0.00  0.00    +0.139 C 
ATOM     15  F   UNL     1       4.079  -9.581   0.026  0.00  0.00    -0.205 F 
ATOM     16  H   UNL     1       2.451  -5.730  -4.099  0.00  0.00    +0.155 HD
ENDROOT
BRANCH   1  21
ATOM     17  C   UNL     1       0.362  -6.750   5.141  0.00  0.00    +0.046 C 
ATOM     18  C   UNL     1       0.217  -6.208   3.743  0.00  0.00    -0.020 A 
ATOM     19  C   UNL     1       1.151  -6.536   2.776  0.00  0.00    +0.006 A 
ATOM     20  C   UNL     1       1.024  -6.043   1.494  0.00  0.00    +0.013 A 
ATOM     21  C   UNL     1      -0.051  -5.211   1.173  0.00  0.00    +0.039 A 
ATOM     22  C   UNL     1      -0.989  -4.884   2.153  0.00  0.00    +0.046 A 
ATOM     23  C   UNL     1      -0.853  -5.389   3.430  0.00  0.00    +0.130 A 
BRANCH  23  24
ATOM     24  N   UNL     1      -1.851  -5.048   4.469  0.00  0.00    +0.057 N 
ATOM     25  O   UNL     1      -2.182  -5.877   5.284  0.00  0.00    -0.126 OA
ATOM     26  O   UNL     1      -2.335  -3.941   4.502  0.00  0.00    -0.126 OA
ENDBRANCH  23  24
ENDBRANCH   1  21
BRANCH  14  27
ATOM     27  C   UNL     1      -0.707  -7.755  -1.814  0.00  0.00    -0.023 A 
ATOM     28  C   UNL     1      -0.673  -7.720  -3.196  0.00  0.00    +0.006 A 
ATOM     29  C   UNL     1      -1.533  -8.517  -3.928  0.00  0.00    +0.000 A 
ATOM     30  C   UNL     1      -2.427  -9.348  -3.280  0.00  0.00    +0.000 A 
ATOM     31  C   UNL     1      -2.460  -9.383  -1.898  0.00  0.00    +0.000 A 
ATOM     32  C   UNL     1      -1.597  -8.590  -1.165  0.00  0.00    +0.006 A 
ENDBRANCH  14  27
TORSDOF 3
