REMARK  Name = ZINC40823275
REMARK  7 active torsions:
REMARK  status: ('A' for Active; 'I' for Inactive)
REMARK    1  A    between atoms: C_1  and  C_2
REMARK    2  A    between atoms: C_6  and  C_7
REMARK    3  A    between atoms: N_9  and  C_10
REMARK    4  A    between atoms: N_21  and  N_22
REMARK    5  A    between atoms: C_23  and  C_25
REMARK    6  A    between atoms: C_25  and  C_26
REMARK    7  A    between atoms: C_26  and  C_27
REMARK                            x       y       z     vdW  Elec       q    Type
REMARK                         _______ _______ _______ _____ _____    ______ ____
ROOT
ATOM      1  C   UNL     1      -0.040   1.504   0.012  0.00  0.00    +0.048 C 
ATOM      2  C   UNL     1      -0.022  -0.003   0.003  0.00  0.00    +0.009 A 
ATOM      3  C   UNL     1      -0.025  -0.837  -1.123  0.00  0.00    +0.043 A 
ATOM      4  C   UNL     1      -0.006  -2.146  -0.665  0.00  0.00    +0.115 A 
ATOM      5  O   UNL     1       0.013  -2.112   0.664  0.00  0.00    -0.454 OA
ATOM      6  C   UNL     1       0.007  -0.829   1.091  0.00  0.00    +0.193 A 
ATOM      7  C   UNL     1      -0.010  -3.337  -1.590  0.00  0.00    +0.075 C 
ATOM      8  C   UNL     1      -0.542  -2.911  -2.961  0.00  0.00    +0.014 C 
ATOM      9  C   UNL     1       0.229  -1.696  -3.488  0.00  0.00    +0.058 C 
ATOM     10  C   UNL     1      -0.043  -0.518  -2.564  0.00  0.00    +0.074 C 
ATOM     11  N   UNL     1      -0.275   0.684  -3.012  0.00  0.00    -0.150 NA
ENDROOT
BRANCH   6  12
ATOM     12  C   UNL     1       0.026  -0.395   2.492  0.00  0.00    +0.284 C 
ATOM     13  O   UNL     1       0.015   0.792   2.762  0.00  0.00    -0.266 OA
ATOM     14  N   UNL     1       0.054  -1.310   3.481  0.00  0.00    -0.278 N 
ATOM     15  H   UNL     1      -0.004  -2.255   3.269  0.00  0.00    +0.155 HD
BRANCH  14  16
ATOM     16  C   UNL     1       0.167  -0.898   4.813  0.00  0.00    +0.052 A 
ATOM     17  C   UNL     1      -0.437   0.281   5.230  0.00  0.00    +0.025 A 
ATOM     18  C   UNL     1      -0.325   0.685   6.546  0.00  0.00    +0.002 A 
ATOM     19  C   UNL     1       0.388  -0.083   7.449  0.00  0.00    +0.002 A 
ATOM     20  C   UNL     1       0.991  -1.257   7.038  0.00  0.00    +0.022 A 
ATOM     21  C   UNL     1       0.878  -1.671   5.723  0.00  0.00    +0.062 A 
ATOM     22 CL   UNL     1       1.629  -3.149   5.209  0.00  0.00    -0.082 Cl
ENDBRANCH  14  16
ENDBRANCH   6  12
BRANCH  11  23
ATOM     23  N   UNL     1      -0.279   0.929  -4.392  0.00  0.00    -0.105 NA
ATOM     24  C   UNL     1      -0.511   2.130  -4.839  0.00  0.00    +0.340 C 
ATOM     25  O   UNL     1      -0.747   3.139  -3.974  0.00  0.00    -0.262 OA
BRANCH  24  26
ATOM     26  C   UNL     1      -0.515   2.393  -6.323  0.00  0.00    +0.398 C 
ATOM     27  F   UNL     1       0.387   3.421  -6.617  0.00  0.00    -0.188 F 
ATOM     28  F   UNL     1      -0.137   1.231  -7.004  0.00  0.00    -0.188 F 
BRANCH  26  29
ATOM     29  C   UNL     1      -1.921   2.807  -6.763  0.00  0.00    +0.412 C 
ATOM     30  F   UNL     1      -2.823   1.779  -6.469  0.00  0.00    -0.189 F 
ATOM     31  F   UNL     1      -2.300   3.969  -6.082  0.00  0.00    -0.189 F 
BRANCH  29  32
ATOM     32  C   UNL     1      -1.926   3.074  -8.270  0.00  0.00    +0.461 C 
ATOM     33  F   UNL     1      -1.547   1.912  -8.951  0.00  0.00    -0.165 F 
ATOM     34  F   UNL     1      -3.211   3.452  -8.672  0.00  0.00    -0.165 F 
ATOM     35  F   UNL     1      -1.024   4.102  -8.564  0.00  0.00    -0.165 F 
ENDBRANCH  29  32
ENDBRANCH  26  29
ENDBRANCH  24  26
ENDBRANCH  11  23
TORSDOF 6
