REMARK  Name = ZINC67173817
REMARK  2 active torsions:
REMARK  status: ('A' for Active; 'I' for Inactive)
REMARK    1  A    between atoms: C_6  and  C_7
REMARK    2  A    between atoms: C_10  and  C_13
REMARK                            x       y       z     vdW  Elec       q    Type
REMARK                         _______ _______ _______ _____ _____    ______ ____
ROOT
ATOM      1  C   UNL     1      -1.271  -0.765   0.010  0.00  0.00    +0.000 A 
ATOM      2  C   UNL     1      -1.260  -2.164   0.008  0.00  0.00    +0.012 A 
ATOM      3  C   UNL     1      -2.470  -2.831   0.017  0.00  0.00    +0.032 A 
ATOM      4  C   UNL     1      -3.653  -2.093   0.026  0.00  0.00    +0.109 A 
ATOM      5  N   UNL     1      -3.626  -0.766   0.028  0.00  0.00    -0.251 NA
ATOM      6  C   UNL     1      -2.494  -0.096   0.025  0.00  0.00    +0.120 A 
ENDROOT
BRANCH   4   7
ATOM      7  C   UNL     1      -4.956  -2.799   0.035  0.00  0.00    +0.189 A 
ATOM      8  N   UNL     1      -6.096  -2.128   0.039  0.00  0.00    -0.203 NA
ATOM      9  C   UNL     1      -7.218  -2.825   0.046  0.00  0.00    +0.176 A 
ATOM     10  S   UNL     1      -6.666  -4.412   0.047  0.00  0.00    +0.049 S 
ATOM     11  N   UNL     1      -5.017  -4.115   0.033  0.00  0.00    -0.186 NA
ATOM     12  N   UNL     1      -8.521  -2.364   0.052  0.00  0.00    -0.336 N 
ATOM     13  H   UNL     1      -8.699  -1.411   0.051  0.00  0.00    +0.144 HD
ATOM     14  H   UNL     1      -9.259  -2.994   0.058  0.00  0.00    +0.144 HD
ENDBRANCH   4   7
BRANCH   1  20
ATOM     15  C   UNL     1      -0.017   1.390   0.010  0.00  0.00    +0.011 A 
ATOM     16  C   UNL     1       1.170   2.094   0.002  0.00  0.00    +0.039 A 
ATOM     17  C   UNL     1       2.379   1.417  -0.013  0.00  0.00    +0.123 A 
ATOM     18  C   UNL     1       2.402   0.032  -0.021  0.00  0.00    +0.039 A 
ATOM     19  C   UNL     1       1.221  -0.680  -0.014  0.00  0.00    +0.011 A 
ATOM     20  C   UNL     1       0.002  -0.004   0.002  0.00  0.00    -0.016 A 
ATOM     21  F   UNL     1       3.538   2.111  -0.020  0.00  0.00    -0.205 F 
ENDBRANCH   1  20
TORSDOF 2
