REMARK  Name = ZINC34896594
REMARK  10 active torsions:
REMARK  status: ('A' for Active; 'I' for Inactive)
REMARK    1  A    between atoms: C_1  and  C_2
REMARK    2  A    between atoms: C_8  and  N_10
REMARK    3  A    between atoms: C_11  and  C_13
REMARK    4  A    between atoms: C_13  and  N_14
REMARK    5  A    between atoms: C_17  and  C_21
REMARK    6  A    between atoms: C_17  and  C_22
REMARK    7  A    between atoms: C_25  and  O_30
REMARK    8  A    between atoms: C_26  and  O_28
REMARK    9  A    between atoms: O_28  and  C_29
REMARK   10  A    between atoms: O_30  and  C_31
REMARK                            x       y       z     vdW  Elec       q    Type
REMARK                         _______ _______ _______ _____ _____    ______ ____
ROOT
ATOM      1  N   UNL     1       0.984   0.635   5.955  0.00  0.00    -0.215 N 
ATOM      2  C   UNL     1       1.227  -0.390   6.795  0.00  0.00    +0.251 C 
ATOM      3  O   UNL     1       0.719  -1.490   6.774  0.00  0.00    -0.272 OA
ATOM      4  C   UNL     1       2.268   0.119   7.772  0.00  0.00    +0.135 C 
ATOM      5  N   UNL     1       2.514   1.502   7.327  0.00  0.00    -0.281 N 
ATOM      6  C   UNL     1       1.723   1.708   6.258  0.00  0.00    +0.310 C 
ATOM      7  O   UNL     1       1.681   2.754   5.640  0.00  0.00    -0.252 OA
ATOM      8  C   UNL     1       1.720   0.104   9.200  0.00  0.00    +0.047 C 
ATOM      9  H   UNL     1       3.129   2.138   7.724  0.00  0.00    +0.152 HD
ENDROOT
BRANCH   4  10
ATOM     10  C   UNL     1       3.529  -0.700   7.678  0.00  0.00    -0.012 A 
ATOM     11  C   UNL     1       3.461  -2.031   7.309  0.00  0.00    +0.010 A 
ATOM     12  C   UNL     1       4.615  -2.787   7.221  0.00  0.00    +0.050 A 
ATOM     13  C   UNL     1       5.844  -2.211   7.502  0.00  0.00    +0.162 A 
ATOM     14  C   UNL     1       5.912  -0.872   7.873  0.00  0.00    +0.162 A 
ATOM     15  C   UNL     1       4.752  -0.118   7.954  0.00  0.00    +0.055 A 
BRANCH  14  16
ATOM     16  O   UNL     1       7.116  -0.302   8.149  0.00  0.00    -0.491 OA
ATOM     17  C   UNL     1       7.110   1.077   8.523  0.00  0.00    +0.277 C 
ENDBRANCH  14  16
BRANCH  13  18
ATOM     18  O   UNL     1       6.980  -2.954   7.417  0.00  0.00    -0.491 OA
ATOM     19  C   UNL     1       6.833  -4.322   7.031  0.00  0.00    +0.277 C 
ENDBRANCH  13  18
ENDBRANCH   4  10
BRANCH   1  20
ATOM     20  C   UNL     1       0.033   0.579   4.842  0.00  0.00    +0.213 C 
BRANCH  20  22
ATOM     21  N   UNL     1       0.056  -0.038   2.447  0.00  0.00    -0.311 N 
ATOM     22  C   UNL     1       0.738   0.093   3.602  0.00  0.00    +0.231 C 
ATOM     23  O   UNL     1       1.919  -0.179   3.644  0.00  0.00    -0.274 OA
ATOM     24  H   UNL     1      -0.888   0.180   2.413  0.00  0.00    +0.149 HD
BRANCH  21  31
ATOM     25  C   UNL     1      -0.019   1.526   0.010  0.00  0.00    +0.009 C 
ATOM     26  C   UNL     1       0.002  -0.004   0.002  0.00  0.00    +0.006 C 
ATOM     27  C   UNL     1      -1.433  -0.534   0.013  0.00  0.00    +0.005 C 
ATOM     28  C   UNL     1      -1.413  -2.063   0.004  0.00  0.00    +0.000 C 
ATOM     29  C   UNL     1      -0.673  -2.570   1.244  0.00  0.00    +0.002 C 
ATOM     30  C   UNL     1       0.763  -2.041   1.233  0.00  0.00    +0.022 C 
ATOM     31  C   UNL     1       0.742  -0.511   1.242  0.00  0.00    +0.076 C 
ENDBRANCH  21  31
ENDBRANCH  20  22
ENDBRANCH   1  20
TORSDOF 6
