REMARK  Name = ZINC59117982
REMARK  6 active torsions:
REMARK  status: ('A' for Active; 'I' for Inactive)
REMARK    1  A    between atoms: C_1  and  C_2
REMARK    2  A    between atoms: N_6  and  C_14
REMARK    3  A    between atoms: C_14  and  C_15
REMARK    4  A    between atoms: C_15  and  C_16
REMARK    5  A    between atoms: N_18  and  C_19
REMARK    6  A    between atoms: C_19  and  C_20
REMARK                            x       y       z     vdW  Elec       q    Type
REMARK                         _______ _______ _______ _____ _____    ______ ____
ROOT
ATOM      1  C   UNL     1      -4.751  -3.396  -0.898  0.00  0.00    +0.215 C 
ATOM      2  O   UNL     1      -5.429  -3.288   0.103  0.00  0.00    -0.276 OA
ATOM      3  N   UNL     1      -5.150  -4.207  -1.898  0.00  0.00    -0.311 N 
ATOM      4  H   UNL     1      -4.608  -4.293  -2.698  0.00  0.00    +0.149 HD
ENDROOT
BRANCH   1   5
ATOM      5  C   UNL     1      -3.464  -2.622  -1.023  0.00  0.00    +0.115 C 
BRANCH   5   6
ATOM      6  C   UNL     1      -3.247  -1.785   0.240  0.00  0.00    +0.123 C 
BRANCH   6  11
ATOM      7  C   UNL     1      -0.948   2.452  -0.515  0.00  0.00    +0.062 C 
ATOM      8  C   UNL     1      -0.686   0.946  -0.577  0.00  0.00    +0.256 C 
ATOM      9  C   UNL     1      -1.989   0.203  -0.425  0.00  0.00    +0.260 C 
ATOM     10  O   UNL     1      -3.027   0.714  -0.791  0.00  0.00    -0.271 OA
ATOM     11  N   UNL     1      -1.996  -1.033   0.118  0.00  0.00    -0.265 N 
ATOM     12  C   UNL     1      -0.787  -1.586   0.565  0.00  0.00    +0.078 A 
ATOM     13  C   UNL     1      -0.683  -2.942   0.828  0.00  0.00    +0.027 A 
ATOM     14  C   UNL     1       0.518  -3.466   1.268  0.00  0.00    +0.002 A 
ATOM     15  C   UNL     1       1.614  -2.642   1.446  0.00  0.00    +0.004 A 
ATOM     16  C   UNL     1       1.516  -1.287   1.185  0.00  0.00    +0.047 A 
ATOM     17  C   UNL     1       0.318  -0.755   0.743  0.00  0.00    +0.143 A 
ATOM     18  O   UNL     1       0.204   0.574   0.479  0.00  0.00    -0.478 OA
ENDBRANCH   6  11
ENDBRANCH   5   6
ENDBRANCH   1   5
BRANCH   3  19
ATOM     19  C   UNL     1      -6.401  -4.959  -1.776  0.00  0.00    +0.141 C 
BRANCH  19  20
ATOM     20  C   UNL     1      -6.615  -5.783  -3.019  0.00  0.00    -0.014 A 
ATOM     21  C   UNL     1      -7.306  -5.254  -4.102  0.00  0.00    +0.010 A 
ATOM     22  C   UNL     1      -7.480  -6.043  -5.224  0.00  0.00    +0.042 A 
ATOM     23  C   UNL     1      -6.960  -7.334  -5.230  0.00  0.00    +0.099 A 
ATOM     24  N   UNL     1      -6.307  -7.802  -4.178  0.00  0.00    -0.349 N 
ATOM     25  C   UNL     1      -6.121  -7.070  -3.096  0.00  0.00    +0.089 A 
ATOM     26  N   UNL     1      -7.128  -8.138  -6.351  0.00  0.00    -0.317 N 
ATOM     27  C   UNL     1      -7.713  -7.558  -7.539  0.00  0.00    +0.106 C 
ATOM     28  C   UNL     1      -9.254  -7.711  -7.487  0.00  0.00    +0.019 C 
ATOM     29  C   UNL     1      -9.634  -9.118  -7.687  0.00  0.00    +0.002 C 
ATOM     30  C   UNL     1      -9.124 -10.067  -6.607  0.00  0.00    +0.002 C 
ATOM     31  C   UNL     1      -7.718 -10.497  -6.943  0.00  0.00    +0.019 C 
ATOM     32  C   UNL     1      -6.696  -9.548  -6.282  0.00  0.00    +0.106 C 
ATOM     33  H   UNL     1      -5.954  -8.705  -4.205  0.00  0.00    +0.167 HD
ENDBRANCH  19  20
ENDBRANCH   3  19
TORSDOF 5
