REMARK  Name = ZINC13079413
REMARK  5 active torsions:
REMARK  status: ('A' for Active; 'I' for Inactive)
REMARK    1  A    between atoms: C_4  and  N_9
REMARK    2  A    between atoms: C_5  and  C_7
REMARK    3  A    between atoms: N_9  and  S_10
REMARK    4  A    between atoms: S_10  and  C_13
REMARK    5  A    between atoms: C_17  and  N_19
REMARK                            x       y       z     vdW  Elec       q    Type
REMARK                         _______ _______ _______ _____ _____    ______ ____
ROOT
ATOM      1  C   UNL     1       4.084   5.846  -0.454  0.00  0.00    +0.110 A 
ATOM      2  C   UNL     1       2.893   6.548  -0.402  0.00  0.00    +0.029 A 
ATOM      3  C   UNL     1       1.688   5.871  -0.400  0.00  0.00    +0.004 A 
ATOM      4  C   UNL     1       1.669   4.491  -0.457  0.00  0.00    +0.023 A 
ATOM      5  C   UNL     1       2.863   3.783  -0.504  0.00  0.00    +0.034 A 
ATOM      6  C   UNL     1       4.072   4.466  -0.506  0.00  0.00    +0.052 A 
ENDROOT
BRANCH   5   7
ATOM      7  N   UNL     1       2.847   2.386  -0.556  0.00  0.00    -0.299 N 
ATOM      8  C   UNL     1       1.796   1.684   0.008  0.00  0.00    +0.135 A 
ATOM      9  C   UNL     1       1.706   0.273  -0.144  0.00  0.00    +0.051 A 
ATOM     10  C   UNL     1       2.622  -0.630  -0.860  0.00  0.00    -0.025 A 
ATOM     11  C   UNL     1       2.310  -1.936  -0.858  0.00  0.00    -0.004 A 
ATOM     12  S   UNL     1       0.806  -2.052   0.084  0.00  0.00    -0.073 S 
ATOM     13  C   UNL     1       0.597  -0.336   0.471  0.00  0.00    +0.114 A 
ATOM     14  N   UNL     1      -0.293   0.371   1.142  0.00  0.00    -0.228 NA
ATOM     15  C   UNL     1      -0.158   1.679   1.249  0.00  0.00    +0.224 A 
ATOM     16  N   UNL     1       0.858   2.316   0.697  0.00  0.00    -0.220 NA
ATOM     17  C   UNL     1       3.312  -2.761  -1.621  0.00  0.00    +0.043 C 
ATOM     18  C   UNL     1       4.083  -1.735  -2.481  0.00  0.00    +0.010 C 
ATOM     19  C   UNL     1       3.919  -0.446  -1.651  0.00  0.00    +0.037 C 
ATOM     20  H   UNL     1       3.573   1.909  -0.987  0.00  0.00    +0.154 HD
ENDBRANCH   5   7
BRANCH   1  21
ATOM     21  S   UNL     1       5.617   6.714  -0.456  0.00  0.00    +0.072 S 
ATOM     22  O   UNL     1       5.370   7.976   0.148  0.00  0.00    -0.150 OA
ATOM     23  O   UNL     1       6.596   5.811   0.040  0.00  0.00    -0.150 OA
BRANCH  21  24
ATOM     24  N   UNL     1       6.008   7.014  -2.037  0.00  0.00    -0.215 N 
ATOM     25  H   UNL     1       6.834   6.665  -2.407  0.00  0.00    +0.174 HD
BRANCH  24  29
ATOM     26  C   UNL     1       3.444   9.269  -4.423  0.00  0.00    +0.001 A 
ATOM     27  C   UNL     1       3.599   9.575  -3.080  0.00  0.00    +0.002 A 
ATOM     28  C   UNL     1       4.444   8.827  -2.286  0.00  0.00    +0.025 A 
ATOM     29  C   UNL     1       5.154   7.765  -2.833  0.00  0.00    +0.062 A 
ATOM     30  C   UNL     1       4.999   7.453  -4.192  0.00  0.00    +0.085 A 
ATOM     31  C   UNL     1       4.135   8.217  -4.982  0.00  0.00    +0.017 A 
BRANCH  30  32
ATOM     32  C   UNL     1       5.742   6.326  -4.783  0.00  0.00    +0.388 C 
ATOM     33  O   UNL     1       6.491   5.664  -4.093  0.00  0.00    -0.241 OA
ATOM     34  O   UNL     1       5.590   6.030  -6.089  0.00  0.00    -0.241 OA
ENDBRANCH  30  32
ENDBRANCH  24  29
ENDBRANCH  21  24
ENDBRANCH   1  21
TORSDOF 5
