REMARK  Name = ZINC09955474
REMARK  13 active torsions:
REMARK  status: ('A' for Active; 'I' for Inactive)
REMARK    1  A    between atoms: C_1  and  C_2
REMARK    2  A    between atoms: C_2  and  C_3
REMARK    3  A    between atoms: C_3  and  N_4
REMARK    4  A    between atoms: N_4  and  C_5
REMARK    5  A    between atoms: C_6  and  N_21
REMARK    6  A    between atoms: N_7  and  C_14
REMARK    7  A    between atoms: C_14  and  C_15
REMARK    8  A    between atoms: C_22  and  C_24
REMARK    9  A    between atoms: C_24  and  C_26
REMARK   10  A    between atoms: C_24  and  N_29
REMARK   11  A    between atoms: C_26  and  C_27
REMARK   12  A    between atoms: C_26  and  C_28
REMARK   13  A    between atoms: C_30  and  C_32
REMARK                            x       y       z     vdW  Elec       q    Type
REMARK                         _______ _______ _______ _____ _____    ______ ____
ROOT
ATOM      1  N   UNL     1       1.233  -2.513  -1.977  0.00  0.00    -0.263 N 
ATOM      2  C   UNL     1       1.625  -2.547  -0.686  0.00  0.00    +0.241 C 
ATOM      3  O   UNL     1       1.982  -1.528  -0.133  0.00  0.00    -0.273 OA
ENDROOT
BRANCH   1   4
ATOM      4  C   UNL     1       0.886  -3.709  -2.640  0.00  0.00    +0.140 A 
ATOM      5  C   UNL     1       1.829  -4.696  -2.846  0.00  0.00    +0.128 A 
ATOM      6  N   UNL     1       1.460  -5.851  -3.497  0.00  0.00    -0.276 N 
ATOM      7  C   UNL     1       0.197  -6.016  -3.927  0.00  0.00    +0.331 A 
ATOM      8  O   UNL     1      -0.109  -7.044  -4.500  0.00  0.00    -0.246 OA
ATOM      9  N   UNL     1      -0.735  -5.066  -3.735  0.00  0.00    -0.273 N 
ATOM     10  H   UNL     1      -1.640  -5.209  -4.055  0.00  0.00    +0.173 HD
ATOM     11  C   UNL     1      -0.428  -3.918  -3.099  0.00  0.00    +0.277 A 
ATOM     12  O   UNL     1      -1.282  -3.065  -2.925  0.00  0.00    -0.266 OA
BRANCH   5  13
ATOM     13  N   UNL     1       3.120  -4.527  -2.408  0.00  0.00    -0.343 N 
ATOM     14  H   UNL     1       3.345  -3.772  -1.841  0.00  0.00    +0.144 HD
ATOM     15  H   UNL     1       3.807  -5.162  -2.664  0.00  0.00    +0.144 HD
ENDBRANCH   5  13
BRANCH   6  16
ATOM     16  C   UNL     1       2.451  -6.907  -3.723  0.00  0.00    +0.163 C 
BRANCH  16  17
ATOM     17  C   UNL     1       2.444  -7.859  -2.555  0.00  0.00    -0.028 A 
ATOM     18  C   UNL     1       3.269  -7.629  -1.470  0.00  0.00    +0.005 A 
ATOM     19  C   UNL     1       3.263  -8.503  -0.399  0.00  0.00    +0.000 A 
ATOM     20  C   UNL     1       2.431  -9.607  -0.413  0.00  0.00    +0.000 A 
ATOM     21  C   UNL     1       1.605  -9.837  -1.497  0.00  0.00    +0.000 A 
ATOM     22  C   UNL     1       1.608  -8.960  -2.566  0.00  0.00    +0.005 A 
ENDBRANCH  16  17
ENDBRANCH   6  16
ENDBRANCH   1   4
BRANCH   1  23
ATOM     23  C   UNL     1       1.167  -1.235  -2.689  0.00  0.00    +0.114 C 
BRANCH  23  25
ATOM     24  C   UNL     1      -0.182   0.842  -3.018  0.00  0.00    +0.005 C 
ATOM     25  C   UNL     1      -0.170  -0.553  -2.390  0.00  0.00    +0.016 C 
ENDBRANCH  23  25
ENDBRANCH   1  23
BRANCH   2  26
ATOM     26  C   UNL     1       1.619  -3.852   0.069  0.00  0.00    +0.162 C 
BRANCH  26  27
ATOM     27  N   UNL     1       2.587  -3.784   1.167  0.00  0.00    -0.300 N 
ATOM     28  C   UNL     1       3.132  -4.916   1.655  0.00  0.00    +0.245 C 
ATOM     29  O   UNL     1       2.821  -5.992   1.185  0.00  0.00    -0.270 OA
ATOM     30  H   UNL     1       2.835  -2.925   1.543  0.00  0.00    +0.150 HD
BRANCH  28  31
ATOM     31  C   UNL     1       4.108  -4.848   2.764  0.00  0.00    +0.037 A 
ATOM     32  C   UNL     1       4.463  -3.614   3.311  0.00  0.00    +0.013 A 
ATOM     33  C   UNL     1       5.374  -3.557   4.345  0.00  0.00    +0.001 A 
ATOM     34  C   UNL     1       5.936  -4.720   4.840  0.00  0.00    +0.000 A 
ATOM     35  C   UNL     1       5.589  -5.947   4.302  0.00  0.00    +0.001 A 
ATOM     36  C   UNL     1       4.675  -6.018   3.272  0.00  0.00    +0.013 A 
ENDBRANCH  28  31
ENDBRANCH  26  27
BRANCH  26  37
ATOM     37  C   UNL     1       0.221  -4.107   0.636  0.00  0.00    +0.012 C 
ATOM     38  C   UNL     1       0.180  -5.490   1.288  0.00  0.00    +0.009 C 
ATOM     39  C   UNL     1      -0.107  -3.040   1.682  0.00  0.00    +0.009 C 
ENDBRANCH  26  37
ENDBRANCH   2  26
TORSDOF 10
