REMARK  Name = ZINC22618384
REMARK  5 active torsions:
REMARK  status: ('A' for Active; 'I' for Inactive)
REMARK    1  A    between atoms: C_10  and  N_12
REMARK    2  A    between atoms: C_13  and  C_15
REMARK    3  A    between atoms: C_20  and  N_21
REMARK    4  A    between atoms: N_21  and  S_22
REMARK    5  A    between atoms: S_22  and  C_25
REMARK                            x       y       z     vdW  Elec       q    Type
REMARK                         _______ _______ _______ _____ _____    ______ ____
ROOT
ATOM      1  C   UNL     1       4.629  -2.774  -3.809  0.00  0.00    +0.059 A 
ATOM      2  C   UNL     1       5.413  -1.977  -4.648  0.00  0.00    +0.015 A 
ATOM      3  C   UNL     1       6.581  -1.422  -4.175  0.00  0.00    +0.001 A 
ATOM      4  C   UNL     1       6.986  -1.649  -2.869  0.00  0.00    +0.002 A 
ATOM      5  C   UNL     1       6.221  -2.429  -2.026  0.00  0.00    +0.025 A 
ATOM      6  C   UNL     1       5.042  -3.002  -2.487  0.00  0.00    +0.060 A 
ENDROOT
BRANCH   1   8
ATOM      7  N   UNL     1       2.985  -3.148  -5.580  0.00  0.00    -0.304 N 
ATOM      8  C   UNL     1       3.377  -3.370  -4.309  0.00  0.00    +0.246 C 
ATOM      9  O   UNL     1       2.698  -4.063  -3.576  0.00  0.00    -0.270 OA
ATOM     10  H   UNL     1       3.599  -2.522  -6.243  0.00  0.00    +0.150 HD
BRANCH   7  20
ATOM     11  C   UNL     1      -1.501  -1.233  -4.856  0.00  0.00    +0.000 A 
ATOM     12  C   UNL     1      -0.459  -1.514  -3.991  0.00  0.00    +0.000 A 
ATOM     13  C   UNL     1       0.577  -2.324  -4.408  0.00  0.00    +0.006 A 
ATOM     14  C   UNL     1       0.582  -2.861  -5.689  0.00  0.00    -0.024 A 
ATOM     15  C   UNL     1      -0.453  -2.577  -6.551  0.00  0.00    -0.042 A 
ATOM     16  C   UNL     1      -1.496  -1.762  -6.129  0.00  0.00    +0.004 A 
ATOM     17  C   UNL     1      -0.510  -3.117  -7.957  0.00  0.00    +0.035 C 
ATOM     18  C   UNL     1       0.442  -4.301  -8.116  0.00  0.00    +0.007 C 
ATOM     19  C   UNL     1       1.823  -3.885  -7.595  0.00  0.00    +0.027 C 
ATOM     20  C   UNL     1       1.741  -3.741  -6.076  0.00  0.00    +0.104 C 
ENDBRANCH   7  20
ENDBRANCH   1   8
BRANCH   6  21
ATOM     21  N   UNL     1       4.272  -3.792  -1.643  0.00  0.00    -0.216 N 
ATOM     22  H   UNL     1       3.740  -4.668  -2.042  0.00  0.00    +0.174 HD
BRANCH  21  23
ATOM     23  S   UNL     1       4.156  -3.414  -0.034  0.00  0.00    +0.072 S 
ATOM     24  O   UNL     1       5.486  -3.307   0.455  0.00  0.00    -0.150 OA
ATOM     25  O   UNL     1       3.209  -4.312   0.526  0.00  0.00    -0.150 OA
BRANCH  23  26
ATOM     26  C   UNL     1       3.449  -1.804   0.073  0.00  0.00    +0.111 A 
ATOM     27  C   UNL     1       4.270  -0.689   0.081  0.00  0.00    +0.031 A 
ATOM     28  C   UNL     1       3.725   0.577   0.165  0.00  0.00    +0.030 A 
ATOM     29  C   UNL     1       2.349   0.732   0.242  0.00  0.00    +0.067 A 
ATOM     30  C   UNL     1       1.521  -0.392   0.234  0.00  0.00    +0.069 A 
ATOM     31  C   UNL     1       2.078  -1.659   0.149  0.00  0.00    +0.056 A 
ATOM     32  N   UNL     1       0.211   0.073   0.321  0.00  0.00    -0.306 N 
ATOM     33  H   UNL     1      -0.626  -0.640   0.332  0.00  0.00    +0.170 HD
ATOM     34  C   UNL     1       0.241   1.418   0.379  0.00  0.00    +0.325 A 
ATOM     35  O   UNL     1      -0.737   2.138   0.456  0.00  0.00    -0.247 OA
ATOM     36  N   UNL     1       1.517   1.845   0.333  0.00  0.00    -0.306 N 
ATOM     37  H   UNL     1       1.950   2.856   0.356  0.00  0.00    +0.170 HD
ENDBRANCH  23  26
ENDBRANCH  21  23
ENDBRANCH   6  21
TORSDOF 5
