REMARK  Name = ZINC15205952
REMARK  8 active torsions:
REMARK  status: ('A' for Active; 'I' for Inactive)
REMARK    1  A    between atoms: C_1  and  C_2
REMARK    2  A    between atoms: C_11  and  O_13
REMARK    3  A    between atoms: O_13  and  C_14
REMARK    4  A    between atoms: C_16  and  O_29
REMARK    5  A    between atoms: C_18  and  O_28
REMARK    6  A    between atoms: C_20  and  O_27
REMARK    7  A    between atoms: C_22  and  C_25
REMARK    8  A    between atoms: C_25  and  O_26
REMARK                            x       y       z     vdW  Elec       q    Type
REMARK                         _______ _______ _______ _____ _____    ______ ____
ROOT
ATOM      1  C   UNL     1      -0.013   1.086   0.008  0.00  0.00    +0.339 C 
ATOM      2  C   UNL     1      -0.754   1.593  -1.232  0.00  0.00    +0.214 C 
ATOM      3  C   UNL     1      -0.823   3.123  -1.185  0.00  0.00    +0.180 C 
ATOM      4  C   UNL     1      -1.506   3.553   0.117  0.00  0.00    +0.177 C 
ATOM      5  C   UNL     1      -0.735   2.970   1.304  0.00  0.00    +0.179 C 
ATOM      6  O   UNL     1      -0.682   1.547   1.183  0.00  0.00    -0.331 OA
ENDROOT
BRANCH   4   7
ATOM      7  O   UNL     1      -1.511   4.979   0.204  0.00  0.00    -0.386 OA
ATOM      8  H   UNL     1      -1.982   5.416  -0.518  0.00  0.00    +0.210 HD
ENDBRANCH   4   7
BRANCH   3   9
ATOM      9  O   UNL     1       0.499   3.663  -1.233  0.00  0.00    -0.386 OA
ATOM     10  H   UNL     1       0.991   3.429  -2.032  0.00  0.00    +0.210 HD
ENDBRANCH   3   9
BRANCH   2  11
ATOM     11  O   UNL     1      -0.054   1.182  -2.408  0.00  0.00    -0.383 OA
ATOM     12  H   UNL     1       0.032   0.223  -2.500  0.00  0.00    +0.210 HD
ENDBRANCH   2  11
BRANCH   1  13
ATOM     13  O   UNL     1       1.328   1.581  -0.002  0.00  0.00    -0.461 OA
BRANCH  13  24
ATOM     14  C   UNL     1       4.400  -1.621   4.751  0.00  0.00    +0.045 C 
ATOM     15  C   UNL     1       4.846  -0.569   3.769  0.00  0.00    -0.033 A 
ATOM     16  C   UNL     1       6.124  -0.109   3.772  0.00  0.00    +0.096 A 
ATOM     17  C   UNL     1       6.517   0.877   2.843  0.00  0.00    +0.337 A 
ATOM     18  O   UNL     1       7.666   1.280   2.857  0.00  0.00    -0.245 OA
ATOM     19  O   UNL     1       5.657   1.381   1.945  0.00  0.00    -0.422 OA
ATOM     20  C   UNL     1       4.373   0.968   1.888  0.00  0.00    +0.143 A 
ATOM     21  C   UNL     1       3.913  -0.014   2.786  0.00  0.00    +0.021 A 
ATOM     22  C   UNL     1       2.583  -0.446   2.731  0.00  0.00    +0.015 A 
ATOM     23  C   UNL     1       1.733   0.092   1.809  0.00  0.00    +0.046 A 
ATOM     24  C   UNL     1       2.184   1.060   0.913  0.00  0.00    +0.128 A 
ATOM     25  C   UNL     1       3.498   1.499   0.954  0.00  0.00    +0.092 A 
ENDBRANCH  13  24
ENDBRANCH   1  13
BRANCH   5  26
ATOM     26  C   UNL     1      -1.445   3.345   2.607  0.00  0.00    +0.190 C 
BRANCH  26  27
ATOM     27  O   UNL     1      -0.666   2.900   3.719  0.00  0.00    -0.392 OA
ATOM     28  H   UNL     1      -1.056   3.105   4.580  0.00  0.00    +0.210 HD
ENDBRANCH  26  27
ENDBRANCH   5  26
TORSDOF 7
