REMARK  Name = ZINC23779508
REMARK  9 active torsions:
REMARK  status: ('A' for Active; 'I' for Inactive)
REMARK    1  A    between atoms: C_1  and  C_2
REMARK    2  A    between atoms: C_2  and  O_3
REMARK    3  A    between atoms: O_3  and  C_4
REMARK    4  A    between atoms: C_7  and  C_10
REMARK    5  A    between atoms: C_12  and  C_20
REMARK    6  A    between atoms: C_13  and  C_19
REMARK    7  A    between atoms: N_14  and  C_18
REMARK    8  A    between atoms: C_20  and  O_22
REMARK    9  A    between atoms: O_22  and  C_23
REMARK                            x       y       z     vdW  Elec       q    Type
REMARK                         _______ _______ _______ _____ _____    ______ ____
ROOT
ATOM      1  C   UNL     1      -0.205   5.465  -0.011  0.00  0.00    +0.141 C 
ATOM      2  C   UNL     1      -0.637   5.798  -1.424  0.00  0.00    +0.078 C 
ATOM      3  C   UNL     1      -1.574   6.758  -1.586  0.00  0.00    +0.021 C 
ATOM      4  N   UNL     1      -2.112   7.405  -0.511  0.00  0.00    -0.289 N 
ATOM      5  C   UNL     1      -1.768   7.151   0.758  0.00  0.00    +0.137 C 
ATOM      6  S   UNL     1      -2.523   8.036   2.014  0.00  0.00    -0.018 S 
ATOM      7  N   UNL     1      -0.847   6.220   1.078  0.00  0.00    -0.315 N 
ATOM      8  C   UNL     1      -3.124   8.435  -0.760  0.00  0.00    +0.137 C 
ATOM      9  C   UNL     1      -2.033   7.121  -2.975  0.00  0.00    +0.061 C 
ATOM     10  H   UNL     1      -0.571   6.019   2.124  0.00  0.00    +0.149 HD
ENDROOT
BRANCH   1  14
ATOM     11  C   UNL     1      -0.953   1.310   0.649  0.00  0.00    +0.121 A 
ATOM     12  C   UNL     1      -1.992   2.224   0.735  0.00  0.00    +0.046 A 
ATOM     13  C   UNL     1      -1.747   3.568   0.526  0.00  0.00    +0.009 A 
ATOM     14  C   UNL     1      -0.469   4.000   0.222  0.00  0.00    -0.022 A 
ATOM     15  C   UNL     1       0.568   3.089   0.131  0.00  0.00    +0.009 A 
ATOM     16  C   UNL     1       0.329   1.745   0.343  0.00  0.00    +0.046 A 
BRANCH  11  17
ATOM     17  O   UNL     1      -1.190  -0.012   0.858  0.00  0.00    -0.492 OA
BRANCH  17  19
ATOM     18  C   UNL     1      -2.605  -1.904   1.368  0.00  0.00    +0.048 C 
ATOM     19  C   UNL     1      -2.533  -0.389   1.168  0.00  0.00    +0.225 C 
ENDBRANCH  17  19
ENDBRANCH  11  17
ENDBRANCH   1  14
BRANCH   2  20
ATOM     20  C   UNL     1      -0.079   5.127  -2.537  0.00  0.00    +0.339 C 
ATOM     21  O   UNL     1      -0.514   5.335  -3.654  0.00  0.00    -0.245 OA
BRANCH  20  22
ATOM     22  O   UNL     1       0.936   4.256  -2.360  0.00  0.00    -0.465 OA
ATOM     23  C   UNL     1       1.451   3.614  -3.528  0.00  0.00    +0.280 C 
ENDBRANCH  20  22
ENDBRANCH   2  20
TORSDOF 5
