REMARK  Name = ZINC43321292
REMARK  5 active torsions:
REMARK  status: ('A' for Active; 'I' for Inactive)
REMARK    1  A    between atoms: C_1  and  C_2
REMARK    2  A    between atoms: C_3  and  N_9
REMARK    3  A    between atoms: N_9  and  S_10
REMARK    4  A    between atoms: S_10  and  C_13
REMARK    5  A    between atoms: C_14  and  C_19
REMARK                            x       y       z     vdW  Elec       q    Type
REMARK                         _______ _______ _______ _____ _____    ______ ____
ROOT
ATOM      1  S   UNL     1      -0.006  -0.813  -3.848  0.00  0.00    +0.109 S 
ATOM      2  O   UNL     1       1.249  -1.475  -3.933  0.00  0.00    -0.147 OA
ATOM      3  O   UNL     1      -1.242  -1.511  -3.921  0.00  0.00    -0.147 OA
ENDROOT
BRANCH   1   4
ATOM      4  C   UNL     1      -0.029   0.388  -5.137  0.00  0.00    +0.207 A 
ATOM      5  C   UNL     1      -1.081   1.294  -5.410  0.00  0.00    +0.125 A 
ATOM      6  C   UNL     1      -0.691   2.054  -6.497  0.00  0.00    +0.120 A 
ATOM      7  N   UNL     1       0.529   1.633  -6.864  0.00  0.00    -0.305 N 
ATOM      8  N   UNL     1       0.922   0.603  -6.003  0.00  0.00    -0.282 N 
ATOM      9  H   UNL     1       1.052   1.986  -7.600  0.00  0.00    +0.186 HD
ATOM     10  H   UNL     1       1.764   0.124  -6.044  0.00  0.00    +0.188 HD
BRANCH   5  11
ATOM     11  C   UNL     1      -2.350   1.407  -4.676  0.00  0.00    +0.391 C 
ATOM     12  O   UNL     1      -3.182   2.237  -5.015  0.00  0.00    -0.240 OA
ATOM     13  O   UNL     1      -2.574   0.669  -3.725  0.00  0.00    -0.240 OA
ENDBRANCH   5  11
ENDBRANCH   1   4
BRANCH   1  14
ATOM     14  N   UNL     1      -0.010   0.010  -2.411  0.00  0.00    -0.096 NA
BRANCH  14  17
ATOM     15  C   UNL     1      -0.018   1.503   0.010  0.00  0.00    +0.049 C 
ATOM     16  C   UNL     1       0.002  -0.004   0.002  0.00  0.00    +0.009 A 
ATOM     17  C   UNL     1       0.006  -0.693  -1.204  0.00  0.00    +0.080 A 
ATOM     18  C   UNL     1       0.025  -2.082  -1.208  0.00  0.00    +0.027 A 
ATOM     19  C   UNL     1       0.041  -2.775  -0.013  0.00  0.00    +0.005 A 
ATOM     20  C   UNL     1       0.036  -2.088   1.187  0.00  0.00    +0.039 A 
ATOM     21  C   UNL     1       0.023  -0.703   1.195  0.00  0.00    +0.128 A 
ATOM     22  F   UNL     1       0.025  -0.035   2.369  0.00  0.00    -0.205 F 
ENDBRANCH  14  17
ENDBRANCH   1  14
TORSDOF 4
