REMARK  Name = ZINC43908095
REMARK  4 active torsions:
REMARK  status: ('A' for Active; 'I' for Inactive)
REMARK    1  A    between atoms: C_1  and  C_2
REMARK    2  A    between atoms: C_5  and  S_10
REMARK    3  A    between atoms: S_10  and  C_11
REMARK    4  A    between atoms: C_15  and  C_17
REMARK                            x       y       z     vdW  Elec       q    Type
REMARK                         _______ _______ _______ _____ _____    ______ ____
ROOT
ATOM      1  C   UNL     1       4.810  -1.607  -0.657  0.00  0.00    +0.168 A 
ATOM      2  N   UNL     1       5.878  -2.437  -0.809  0.00  0.00    -0.339 N 
ATOM      3  H   UNL     1       5.872  -3.310  -1.233  0.00  0.00    +0.167 HD
ATOM      4  C   UNL     1       6.967  -1.810  -0.254  0.00  0.00    +0.113 A 
ATOM      5  C   UNL     1       6.534  -0.616   0.222  0.00  0.00    +0.090 A 
ATOM      6  N   UNL     1       5.207  -0.517  -0.044  0.00  0.00    -0.222 NA
ENDROOT
BRANCH   5   7
ATOM      7  C   UNL     1       7.364   0.403   0.908  0.00  0.00    +0.002 A 
ATOM      8  C   UNL     1       8.725   0.177   1.109  0.00  0.00    +0.010 A 
ATOM      9  C   UNL     1       9.493   1.130   1.748  0.00  0.00    +0.001 A 
ATOM     10  C   UNL     1       8.915   2.307   2.188  0.00  0.00    +0.000 A 
ATOM     11  C   UNL     1       7.565   2.536   1.991  0.00  0.00    +0.001 A 
ATOM     12  C   UNL     1       6.789   1.594   1.349  0.00  0.00    +0.010 A 
ENDBRANCH   5   7
BRANCH   1  13
ATOM     13  S   UNL     1       3.167  -1.938  -1.199  0.00  0.00    -0.073 S 
BRANCH  13  17
ATOM     14  C   UNL     1      -0.019   1.526   0.010  0.00  0.00    +0.052 C 
ATOM     15  C   UNL     1       0.002  -0.004   0.002  0.00  0.00    +0.175 C 
ATOM     16  C   UNL     1       0.779  -0.537  -1.232  0.00  0.00    +0.070 C 
ATOM     17  C   UNL     1       2.237  -0.460  -0.711  0.00  0.00    +0.166 C 
ATOM     18  C   UNL     1       2.083  -0.398   0.797  0.00  0.00    +0.321 C 
ATOM     19  O   UNL     1       2.986  -0.267   1.590  0.00  0.00    -0.250 OA
ATOM     20  O   UNL     1       0.773  -0.511   1.111  0.00  0.00    -0.461 OA
ENDBRANCH  13  17
ENDBRANCH   1  13
TORSDOF 3
