REMARK  Name = ZINC19769057
REMARK  11 active torsions:
REMARK  status: ('A' for Active; 'I' for Inactive)
REMARK    1  A    between atoms: C_1  and  C_2
REMARK    2  A    between atoms: C_2  and  C_3
REMARK    3  A    between atoms: N_7  and  C_19
REMARK    4  A    between atoms: C_10  and  C_15
REMARK    5  A    between atoms: C_15  and  C_17
REMARK    6  A    between atoms: C_15  and  N_18
REMARK    7  A    between atoms: C_19  and  C_20
REMARK    8  A    between atoms: N_22  and  C_23
REMARK    9  A    between atoms: C_23  and  C_24
REMARK   10  A    between atoms: C_24  and  C_25
REMARK   11  A    between atoms: C_24  and  C_26
REMARK                            x       y       z     vdW  Elec       q    Type
REMARK                         _______ _______ _______ _____ _____    ______ ____
ROOT
ATOM      1  C   UNL     1       2.129  -0.376   7.832  0.00  0.00    +0.259 C 
ATOM      2  C   UNL     1       1.313   0.188   6.697  0.00  0.00    +0.261 C 
ATOM      3  O   UNL     1       1.481   1.333   6.335  0.00  0.00    -0.271 OA
ATOM      4  N   UNL     1       0.393  -0.588   6.085  0.00  0.00    -0.256 N 
ATOM      5  C   UNL     1       0.121  -1.862   6.603  0.00  0.00    +0.079 A 
ATOM      6  C   UNL     1      -0.635  -2.769   5.878  0.00  0.00    +0.029 A 
ATOM      7  C   UNL     1      -0.883  -4.027   6.397  0.00  0.00    -0.060 A 
ATOM      8  C   UNL     1      -0.379  -4.380   7.635  0.00  0.00    +0.005 A 
ATOM      9  C   UNL     1       0.379  -3.482   8.359  0.00  0.00    +0.048 A 
ATOM     10  C   UNL     1       0.623  -2.217   7.852  0.00  0.00    +0.143 A 
ATOM     11  O   UNL     1       1.343  -1.314   8.570  0.00  0.00    -0.478 OA
ENDROOT
BRANCH   1  13
ATOM     12  C   UNL     1       4.258  -1.542   8.424  0.00  0.00    +0.008 C 
ATOM     13  C   UNL     1       3.366  -1.079   7.270  0.00  0.00    +0.051 C 
ENDBRANCH   1  13
BRANCH   7  14
ATOM     14  C   UNL     1      -1.706  -5.015   5.611  0.00  0.00    -0.047 C 
ATOM     15  C   UNL     1      -0.776  -6.007   4.907  0.00  0.00    -0.009 C 
BRANCH  14  16
ATOM     16  N   UNL     1      -2.599  -5.743   6.521  0.00  0.00    +0.382 N 
ATOM     17  H   UNL     1      -3.200  -6.464   5.947  0.00  0.00    -0.089 HD
ATOM     18  H   UNL     1      -3.267  -5.030   7.027  0.00  0.00    -0.089 HD
ATOM     19  H   UNL     1      -2.000  -6.279   7.272  0.00  0.00    -0.089 HD
ENDBRANCH  14  16
ENDBRANCH   7  14
BRANCH   4  20
ATOM     20  C   UNL     1      -0.315  -0.103   4.898  0.00  0.00    +0.209 C 
BRANCH  20  21
ATOM     21  C   UNL     1       0.457  -0.484   3.661  0.00  0.00    +0.231 C 
ATOM     22  O   UNL     1       1.496  -1.101   3.761  0.00  0.00    -0.274 OA
ATOM     23  N   UNL     1      -0.008  -0.140   2.444  0.00  0.00    -0.314 N 
ATOM     24  H   UNL     1      -0.951   0.419   2.353  0.00  0.00    +0.149 HD
BRANCH  23  25
ATOM     25  C   UNL     1       0.742  -0.511   1.242  0.00  0.00    +0.107 C 
BRANCH  25  26
ATOM     26  C   UNL     1       0.002  -0.004   0.002  0.00  0.00    -0.000 C 
ATOM     27  C   UNL     1      -0.019   1.526   0.010  0.00  0.00    +0.009 C 
ATOM     28  C   UNL     1       0.718  -0.497  -1.257  0.00  0.00    +0.009 C 
ENDBRANCH  25  26
ENDBRANCH  23  25
ENDBRANCH  20  21
ENDBRANCH   4  20
TORSDOF 7
