REMARK  Name = ZINC62827402
REMARK  5 active torsions:
REMARK  status: ('A' for Active; 'I' for Inactive)
REMARK    1  A    between atoms: C_1  and  C_2
REMARK    2  A    between atoms: C_2  and  C_4
REMARK    3  A    between atoms: C_2  and  N_9
REMARK    4  A    between atoms: N_12  and  C_13
REMARK    5  A    between atoms: C_14  and  C_20
REMARK                            x       y       z     vdW  Elec       q    Type
REMARK                         _______ _______ _______ _____ _____    ______ ____
ROOT
ATOM      1  N   UNL     1       0.667  -0.019  -1.681  0.00  0.00    -0.293 N 
ATOM      2  C   UNL     1       2.013  -0.087  -1.637  0.00  0.00    +0.304 C 
ATOM      3  O   UNL     1       2.641   0.718  -0.977  0.00  0.00    -0.252 OA
ATOM      4  N   UNL     1       2.662  -1.049  -2.323  0.00  0.00    -0.268 N 
ATOM      5  H   UNL     1       0.166  -0.661  -2.207  0.00  0.00    +0.151 HD
ATOM      6  H   UNL     1       2.159  -1.739  -2.784  0.00  0.00    +0.156 HD
ENDROOT
BRANCH   4   7
ATOM      7  C   UNL     1       4.053  -1.051  -2.372  0.00  0.00    +0.063 A 
ATOM      8  C   UNL     1       4.716  -1.070  -3.610  0.00  0.00    +0.085 A 
ATOM      9  C   UNL     1       6.114  -1.071  -3.644  0.00  0.00    +0.017 A 
ATOM     10  C   UNL     1       6.830  -1.054  -2.468  0.00  0.00    +0.002 A 
ATOM     11  C   UNL     1       6.173  -1.035  -1.248  0.00  0.00    +0.017 A 
ATOM     12  C   UNL     1       4.793  -1.028  -1.197  0.00  0.00    +0.040 A 
ATOM     13 BR   UNL     1       3.909  -0.993   0.475  0.00  0.00    -0.048 Br
BRANCH   8  14
ATOM     14  C   UNL     1       3.945  -1.090  -4.863  0.00  0.00    +0.388 C 
ATOM     15  O   UNL     1       4.522  -1.211  -5.935  0.00  0.00    -0.241 OA
ATOM     16  O   UNL     1       2.726  -0.985  -4.833  0.00  0.00    -0.241 OA
ENDBRANCH   8  14
ENDBRANCH   4   7
BRANCH   1  18
ATOM     17  C   UNL     1      -0.091   2.304  -1.774  0.00  0.00    +0.033 C 
ATOM     18  C   UNL     1      -0.038   1.026  -0.935  0.00  0.00    +0.102 C 
BRANCH  18  19
ATOM     19  C   UNL     1      -1.440   0.566  -0.630  0.00  0.00    -0.020 A 
ATOM     20  C   UNL     1      -2.017   0.839   0.596  0.00  0.00    +0.013 A 
ATOM     21  C   UNL     1      -3.280   0.411   0.838  0.00  0.00    +0.045 A 
ATOM     22  S   UNL     1      -3.693  -0.406  -0.695  0.00  0.00    -0.105 S 
ATOM     23  C   UNL     1      -2.157  -0.117  -1.556  0.00  0.00    +0.050 A 
ENDBRANCH  18  19
ENDBRANCH   1  18
TORSDOF 4
