REMARK  Name = ZINC57739683
REMARK  9 active torsions:
REMARK  status: ('A' for Active; 'I' for Inactive)
REMARK    1  A    between atoms: C_1  and  C_2
REMARK    2  A    between atoms: C_2  and  C_3
REMARK    3  A    between atoms: C_3  and  C_4
REMARK    4  A    between atoms: C_4  and  N_5
REMARK    5  A    between atoms: C_6  and  N_28
REMARK    6  A    between atoms: C_7  and  N_14
REMARK    7  A    between atoms: N_14  and  C_15
REMARK    8  A    between atoms: C_15  and  C_16
REMARK    9  A    between atoms: C_17  and  C_19
REMARK                            x       y       z     vdW  Elec       q    Type
REMARK                         _______ _______ _______ _____ _____    ______ ____
ROOT
ATOM      1  N   UNL     1       1.078  -1.985  -2.774  0.00  0.00    -0.280 N 
ATOM      2  C   UNL     1       0.470  -2.526  -3.883  0.00  0.00    +0.127 A 
ATOM      3  C   UNL     1       1.253  -3.005  -4.914  0.00  0.00    +0.140 A 
ATOM      4  C   UNL     1       2.654  -2.924  -4.798  0.00  0.00    +0.277 A 
ATOM      5  O   UNL     1       3.369  -3.340  -5.694  0.00  0.00    -0.266 OA
ATOM      6  N   UNL     1       3.199  -2.385  -3.689  0.00  0.00    -0.273 N 
ATOM      7  H   UNL     1       4.163  -2.329  -3.608  0.00  0.00    +0.173 HD
ATOM      8  C   UNL     1       2.420  -1.919  -2.697  0.00  0.00    +0.331 A 
ATOM      9  O   UNL     1       2.938  -1.432  -1.710  0.00  0.00    -0.246 OA
ENDROOT
BRANCH   3  10
ATOM     10  N   UNL     1       0.660  -3.566  -6.064  0.00  0.00    -0.260 N 
ATOM     11  C   UNL     1       0.835  -4.872  -6.344  0.00  0.00    +0.258 C 
ATOM     12  O   UNL     1       1.555  -5.554  -5.638  0.00  0.00    -0.269 OA
BRANCH  11  13
ATOM     13  C   UNL     1       0.157  -5.473  -7.501  0.00  0.00    +0.076 A 
ATOM     14  C   UNL     1       0.106  -6.782  -7.868  0.00  0.00    +0.029 A 
ATOM     15  C   UNL     1      -0.602  -7.160  -9.022  0.00  0.00    -0.010 A 
ATOM     16  C   UNL     1      -0.770  -8.461  -9.564  0.00  0.00    +0.009 A 
ATOM     17  C   UNL     1      -1.491  -8.654 -10.697  0.00  0.00    +0.001 A 
ATOM     18  C   UNL     1      -2.090  -7.595 -11.369  0.00  0.00    +0.001 A 
ATOM     19  C   UNL     1      -1.953  -6.313 -10.877  0.00  0.00    +0.015 A 
ATOM     20  C   UNL     1      -1.223  -6.101  -9.727  0.00  0.00    +0.020 A 
ATOM     21  S   UNL     1      -0.808  -4.667  -8.767  0.00  0.00    -0.084 S 
ENDBRANCH  11  13
BRANCH  10  22
ATOM     22  C   UNL     1      -0.147  -2.728  -6.955  0.00  0.00    +0.111 C 
ATOM     23  C   UNL     1       0.714  -2.255  -8.128  0.00  0.00    +0.025 C 
ENDBRANCH  10  22
ENDBRANCH   3  10
BRANCH   2  24
ATOM     24  N   UNL     1      -0.900  -2.589  -3.963  0.00  0.00    -0.343 N 
ATOM     25  H   UNL     1      -1.443  -2.317  -3.207  0.00  0.00    +0.144 HD
ATOM     26  H   UNL     1      -1.324  -2.906  -4.776  0.00  0.00    +0.144 HD
ENDBRANCH   2  24
BRANCH   1  27
ATOM     27  C   UNL     1       0.260  -1.473  -1.672  0.00  0.00    +0.128 C 
BRANCH  27  28
ATOM     28  C   UNL     1      -0.054   0.005  -1.914  0.00  0.00    +0.021 C 
BRANCH  28  30
ATOM     29  C   UNL     1      -1.222   2.018  -1.005  0.00  0.00    +0.004 C 
ATOM     30  C   UNL     1      -0.909   0.540  -0.763  0.00  0.00    -0.002 C 
ENDBRANCH  28  30
ENDBRANCH  27  28
ENDBRANCH   1  27
TORSDOF 7
