REMARK  Name = ZINC14972648
REMARK  9 active torsions:
REMARK  status: ('A' for Active; 'I' for Inactive)
REMARK    1  A    between atoms: C_1  and  C_2
REMARK    2  A    between atoms: C_7  and  C_10
REMARK    3  A    between atoms: C_11  and  C_13
REMARK    4  A    between atoms: C_17  and  C_22
REMARK    5  A    between atoms: C_22  and  O_37
REMARK    6  A    between atoms: N_25  and  C_28
REMARK    7  A    between atoms: C_28  and  C_29
REMARK    8  A    between atoms: C_34  and  O_35
REMARK    9  A    between atoms: O_35  and  C_36
REMARK                            x       y       z     vdW  Elec       q    Type
REMARK                         _______ _______ _______ _____ _____    ______ ____
ROOT
ATOM      1  C   UNL     1      -1.920  -4.275  -0.497  0.00  0.00    +0.191 A 
ATOM      2  C   UNL     1      -2.472  -5.194  -1.330  0.00  0.00    +0.063 A 
ATOM      3  C   UNL     1      -2.061  -6.502  -0.819  0.00  0.00    +0.021 A 
ATOM      4  C   UNL     1      -2.292  -7.820  -1.220  0.00  0.00    +0.018 A 
ATOM      5  C   UNL     1      -1.749  -8.850  -0.505  0.00  0.00    -0.015 A 
ATOM      6  C   UNL     1      -0.970  -8.595   0.615  0.00  0.00    +0.010 A 
ATOM      7  C   UNL     1      -0.731  -7.302   1.027  0.00  0.00    +0.047 A 
ATOM      8  C   UNL     1      -1.272  -6.237   0.315  0.00  0.00    +0.136 A 
ATOM      9  O   UNL     1      -1.211  -4.900   0.466  0.00  0.00    -0.450 OA
ENDROOT
BRANCH   1  18
ATOM     10  C   UNL     1      -0.053   1.549  -0.037  0.00  0.00    +0.039 C 
ATOM     11  C   UNL     1      -0.011   0.020  -0.066  0.00  0.00    +0.133 C 
ATOM     12  C   UNL     1      -1.438  -0.534   0.012  0.00  0.00    +0.139 C 
ATOM     13  N   UNL     1      -1.361  -1.995   0.172  0.00  0.00    -0.290 N 
ATOM     14  C   UNL     1      -0.490  -2.530   1.230  0.00  0.00    +0.139 C 
ATOM     15  C   UNL     1       0.891  -1.879   1.093  0.00  0.00    +0.133 C 
ATOM     16  O   UNL     1       0.741  -0.458   1.052  0.00  0.00    -0.371 OA
ATOM     17  C   UNL     1       1.760  -2.268   2.291  0.00  0.00    +0.039 C 
ATOM     18  C   UNL     1      -2.068  -2.818  -0.627  0.00  0.00    +0.282 C 
ATOM     19  O   UNL     1      -2.829  -2.356  -1.456  0.00  0.00    -0.267 OA
ENDBRANCH   1  18
BRANCH   5  20
ATOM     20  C   UNL     1      -1.998 -10.273  -0.936  0.00  0.00    +0.088 C 
ATOM     21  C   UNL     1      -0.897 -10.714  -1.906  0.00  0.00    +0.021 C 
ATOM     22  C   UNL     1      -1.111 -12.183  -2.277  0.00  0.00    -0.075 C 
ATOM     23  N   UNL     1      -1.058 -13.010  -1.065  0.00  0.00    +0.383 N 
ATOM     24  C   UNL     1      -2.155 -12.641  -0.162  0.00  0.00    -0.075 C 
ATOM     25  C   UNL     1      -1.981 -11.189   0.290  0.00  0.00    +0.021 C 
ATOM     26  H   UNL     1      -0.175 -12.864  -0.598  0.00  0.00    -0.081 HD
BRANCH  20  27
ATOM     27  O   UNL     1      -3.269 -10.361  -1.582  0.00  0.00    -0.384 OA
ATOM     28  H   UNL     1      -3.350  -9.807  -2.370  0.00  0.00    +0.211 HD
ENDBRANCH  20  27
BRANCH  23  29
ATOM     29  C   UNL     1      -1.185 -14.426  -1.435  0.00  0.00    -0.039 C 
BRANCH  29  30
ATOM     30  C   UNL     1      -1.009 -15.283  -0.208  0.00  0.00    -0.022 A 
ATOM     31  C   UNL     1       0.205 -15.894   0.040  0.00  0.00    +0.005 A 
ATOM     32  C   UNL     1       0.368 -16.681   1.164  0.00  0.00    +0.000 A 
ATOM     33  C   UNL     1      -0.683 -16.858   2.045  0.00  0.00    +0.004 A 
ATOM     34  C   UNL     1      -1.899 -16.250   1.802  0.00  0.00    +0.046 A 
ATOM     35  C   UNL     1      -2.063 -15.455   0.676  0.00  0.00    +0.121 A 
BRANCH  35  36
ATOM     36  O   UNL     1      -3.257 -14.851   0.438  0.00  0.00    -0.495 OA
ATOM     37  C   UNL     1      -4.298 -15.072   1.392  0.00  0.00    +0.277 C 
ENDBRANCH  35  36
ENDBRANCH  29  30
ENDBRANCH  23  29
ENDBRANCH   5  20
TORSDOF 6
