REMARK  Name = ZINC20617040
REMARK  11 active torsions:
REMARK  status: ('A' for Active; 'I' for Inactive)
REMARK    1  A    between atoms: C_1  and  C_2
REMARK    2  A    between atoms: C_2  and  O_3
REMARK    3  A    between atoms: O_3  and  C_4
REMARK    4  A    between atoms: C_4  and  C_6
REMARK    5  A    between atoms: C_9  and  N_12
REMARK    6  A    between atoms: C_14  and  C_26
REMARK    7  A    between atoms: C_17  and  C_24
REMARK    8  A    between atoms: C_20  and  C_23
REMARK    9  A    between atoms: C_24  and  O_25
REMARK   10  A    between atoms: N_28  and  C_29
REMARK   11  A    between atoms: C_32  and  C_35
REMARK                            x       y       z     vdW  Elec       q    Type
REMARK                         _______ _______ _______ _____ _____    ______ ____
ROOT
ATOM      1  N   UNL     1      -3.866  -1.196  -0.318  0.00  0.00    -0.325 N 
ATOM      2  C   UNL     1      -4.823  -0.520   0.284  0.00  0.00    +0.212 A 
ATOM      3  C   UNL     1      -4.820   0.956   0.289  0.00  0.00    +0.098 A 
ATOM      4  C   UNL     1      -6.048   1.591   0.416  0.00  0.00    +0.030 A 
ATOM      5  C   UNL     1      -7.233   0.738   0.523  0.00  0.00    +0.027 A 
ATOM      6  C   UNL     1      -8.528   1.253   0.386  0.00  0.00    +0.007 A 
ATOM      7  C   UNL     1      -9.596   0.386   0.500  0.00  0.00    +0.117 A 
ATOM      8  N   UNL     1      -9.411  -0.900   0.733  0.00  0.00    -0.256 NA
ATOM      9  C   UNL     1      -8.213  -1.432   0.871  0.00  0.00    +0.081 A 
ATOM     10  C   UNL     1      -7.078  -0.639   0.774  0.00  0.00    +0.159 A 
ATOM     11  O   UNL     1      -5.838  -1.161   0.916  0.00  0.00    -0.437 OA
ATOM     12  C   UNL     1      -8.075  -2.909   1.135  0.00  0.00    +0.069 C 
ATOM     13  H   UNL     1      -3.004  -0.665  -0.748  0.00  0.00    +0.169 HD
ENDROOT
BRANCH   1  17
ATOM     14  C   UNL     1      -4.102  -5.307  -0.591  0.00  0.00    +0.059 A 
ATOM     15  C   UNL     1      -4.729  -4.504  -1.552  0.00  0.00    +0.017 A 
ATOM     16  C   UNL     1      -4.651  -3.145  -1.462  0.00  0.00    +0.026 A 
ATOM     17  C   UNL     1      -3.944  -2.553  -0.408  0.00  0.00    +0.042 A 
ATOM     18  C   UNL     1      -3.312  -3.356   0.549  0.00  0.00    +0.026 A 
ATOM     19  C   UNL     1      -3.394  -4.715   0.462  0.00  0.00    +0.017 A 
BRANCH  14  20
ATOM     20  C   UNL     1      -4.186  -6.773  -0.689  0.00  0.00    +0.339 C 
ATOM     21  O   UNL     1      -4.800  -7.287  -1.603  0.00  0.00    -0.245 OA
BRANCH  20  22
ATOM     22  O   UNL     1      -3.582  -7.546   0.236  0.00  0.00    -0.461 OA
BRANCH  22  24
ATOM     23  C   UNL     1      -2.962  -9.689   1.212  0.00  0.00    +0.048 C 
ATOM     24  C   UNL     1      -3.707  -8.984   0.077  0.00  0.00    +0.229 C 
ENDBRANCH  22  24
ENDBRANCH  20  22
ENDBRANCH  14  20
ENDBRANCH   1  17
BRANCH   3  25
ATOM     25  C   UNL     1      -3.567   1.723   0.171  0.00  0.00    +0.253 C 
ATOM     26  O   UNL     1      -3.595   2.939   0.179  0.00  0.00    -0.270 OA
ATOM     27  N   UNL     1      -2.390   1.077   0.055  0.00  0.00    -0.281 N 
ATOM     28  H   UNL     1      -2.370  -0.019  -0.036  0.00  0.00    +0.155 HD
BRANCH  27  29
ATOM     29  C   UNL     1      -1.193   1.800   0.051  0.00  0.00    +0.034 A 
ATOM     30  C   UNL     1      -1.080   2.964   0.801  0.00  0.00    +0.023 A 
ATOM     31  C   UNL     1       0.106   3.672   0.799  0.00  0.00    +0.005 A 
ATOM     32  C   UNL     1       1.178   3.227   0.048  0.00  0.00    -0.050 A 
ATOM     33  C   UNL     1       1.067   2.072  -0.704  0.00  0.00    +0.005 A 
ATOM     34  C   UNL     1      -0.116   1.359  -0.707  0.00  0.00    +0.023 A 
ATOM     35  C   UNL     1       2.470   4.003   0.048  0.00  0.00    +0.044 C 
ENDBRANCH  27  29
ENDBRANCH   3  25
BRANCH   6  36
ATOM     36  C   UNL     1      -8.751   2.719   0.120  0.00  0.00    +0.193 C 
BRANCH  36  37
ATOM     37  O   UNL     1     -10.153   2.978   0.024  0.00  0.00    -0.390 OA
ATOM     38  H   UNL     1     -10.511   4.000  -0.170  0.00  0.00    +0.210 HD
ENDBRANCH  36  37
ENDBRANCH   6  36
TORSDOF 8
