REMARK  Name = ZINC67062067
REMARK  5 active torsions:
REMARK  status: ('A' for Active; 'I' for Inactive)
REMARK    1  A    between atoms: C_1  and  C_2
REMARK    2  A    between atoms: N_4  and  C_5
REMARK    3  A    between atoms: C_9  and  C_11
REMARK    4  A    between atoms: C_11  and  N_12
REMARK    5  A    between atoms: C_19  and  C_21
REMARK                            x       y       z     vdW  Elec       q    Type
REMARK                         _______ _______ _______ _____ _____    ______ ____
ROOT
ATOM      1  N   UNL     1      -1.491  -5.179  -3.991  0.00  0.00    -0.295 N 
ATOM      2  C   UNL     1      -1.726  -5.872  -5.123  0.00  0.00    +0.303 C 
ATOM      3  O   UNL     1      -0.798  -6.338  -5.755  0.00  0.00    -0.253 OA
ATOM      4  N   UNL     1      -2.991  -6.049  -5.555  0.00  0.00    -0.278 N 
ATOM      5  C   UNL     1      -4.204  -5.536  -4.893  0.00  0.00    +0.110 C 
ATOM      6  C   UNL     1      -5.262  -5.443  -6.021  0.00  0.00    +0.021 C 
ATOM      7  C   UNL     1      -4.926  -6.699  -6.867  0.00  0.00    +0.029 C 
ATOM      8  C   UNL     1      -3.388  -6.780  -6.767  0.00  0.00    +0.111 C 
ATOM      9  H   UNL     1      -2.232  -4.808  -3.487  0.00  0.00    +0.151 HD
ENDROOT
BRANCH   8  10
ATOM     10  C   UNL     1      -2.959  -8.221  -6.660  0.00  0.00    +0.018 A 
ATOM     11  C   UNL     1      -2.758  -8.791  -5.417  0.00  0.00    +0.009 A 
ATOM     12  C   UNL     1      -2.365 -10.112  -5.315  0.00  0.00    +0.004 A 
ATOM     13  C   UNL     1      -2.169 -10.867  -6.457  0.00  0.00    +0.049 A 
ATOM     14  C   UNL     1      -2.368 -10.301  -7.707  0.00  0.00    +0.162 A 
ATOM     15  C   UNL     1      -2.771  -8.975  -7.809  0.00  0.00    +0.167 A 
ATOM     16  O   UNL     1      -2.985  -8.403  -9.025  0.00  0.00    -0.485 OA
ATOM     17  C   UNL     1      -2.428  -9.077 -10.159  0.00  0.00    +0.270 C 
ATOM     18  C   UNL     1      -2.753 -10.572 -10.038  0.00  0.00    +0.270 C 
ATOM     19  O   UNL     1      -2.167 -11.056  -8.821  0.00  0.00    -0.485 OA
ENDBRANCH   8  10
BRANCH   1  20
ATOM     20  C   UNL     1      -0.117  -4.987  -3.522  0.00  0.00    +0.141 C 
BRANCH  20  25
ATOM     21  C   UNL     1      -0.071  -2.068  -1.121  0.00  0.00    +0.034 A 
ATOM     22  C   UNL     1      -0.152  -2.719   0.103  0.00  0.00    +0.023 A 
ATOM     23  C   UNL     1      -0.222  -4.098   0.147  0.00  0.00    +0.002 A 
ATOM     24  C   UNL     1      -0.210  -4.830  -1.026  0.00  0.00    +0.005 A 
ATOM     25  C   UNL     1      -0.129  -4.185  -2.246  0.00  0.00    -0.029 A 
ATOM     26  C   UNL     1      -0.066  -2.806  -2.297  0.00  0.00    +0.028 A 
BRANCH  21  30
ATOM     27  C   UNL     1      -0.617   1.507  -2.165  0.00  0.00    +0.109 C 
ATOM     28  C   UNL     1      -0.604  -0.000  -2.169  0.00  0.00    +0.214 C 
ATOM     29  O   UNL     1      -1.137  -0.609  -3.073  0.00  0.00    -0.276 OA
ATOM     30  N   UNL     1       0.000  -0.672  -1.169  0.00  0.00    -0.286 N 
ATOM     31  H   UNL     1       0.484  -0.187  -0.482  0.00  0.00    +0.155 HD
ENDBRANCH  21  30
ENDBRANCH  20  25
ENDBRANCH   1  20
TORSDOF 4
