REMARK  Name = ZINC54899630
REMARK  6 active torsions:
REMARK  status: ('A' for Active; 'I' for Inactive)
REMARK    1  A    between atoms: C_3  and  N_23
REMARK    2  A    between atoms: C_6  and  C_7
REMARK    3  A    between atoms: C_7  and  C_8
REMARK    4  A    between atoms: C_8  and  N_9
REMARK    5  A    between atoms: C_10  and  C_12
REMARK    6  A    between atoms: N_14  and  C_15
REMARK                            x       y       z     vdW  Elec       q    Type
REMARK                         _______ _______ _______ _____ _____    ______ ____
ROOT
ATOM      1  N   UNL     1      -3.016  -1.759  -1.420  0.00  0.00    -0.307 N 
ATOM      2  C   UNL     1      -3.602  -2.102  -2.584  0.00  0.00    +0.299 C 
ATOM      3  O   UNL     1      -3.093  -1.782  -3.638  0.00  0.00    -0.265 OA
ATOM      4  H   UNL     1      -3.423  -2.014  -0.578  0.00  0.00    +0.149 HD
ENDROOT
BRANCH   2   5
ATOM      5  C   UNL     1      -4.880  -2.876  -2.577  0.00  0.00    +0.303 C 
ATOM      6  O   UNL     1      -5.389  -3.196  -1.522  0.00  0.00    -0.265 OA
ATOM      7  N   UNL     1      -5.466  -3.220  -3.740  0.00  0.00    -0.276 N 
ATOM      8  H   UNL     1      -5.095  -2.909  -4.581  0.00  0.00    +0.155 HD
BRANCH   7   9
ATOM      9  C   UNL     1      -6.610  -4.023  -3.736  0.00  0.00    +0.054 A 
ATOM     10  C   UNL     1      -7.542  -3.902  -2.714  0.00  0.00    +0.044 A 
ATOM     11  C   UNL     1      -8.672  -4.698  -2.713  0.00  0.00    +0.043 A 
ATOM     12  C   UNL     1      -8.874  -5.617  -3.729  0.00  0.00    +0.021 A 
ATOM     13  C   UNL     1      -7.948  -5.740  -4.747  0.00  0.00    +0.023 A 
ATOM     14  C   UNL     1      -6.819  -4.942  -4.758  0.00  0.00    +0.062 A 
ATOM     15 CL   UNL     1      -5.660  -5.093  -6.042  0.00  0.00    -0.082 Cl
ATOM     16 CL   UNL     1      -9.838  -4.547  -1.436  0.00  0.00    -0.083 Cl
ENDBRANCH   7   9
ENDBRANCH   2   5
BRANCH   1  17
ATOM     17  C   UNL     1      -1.763  -1.000  -1.428  0.00  0.00    +0.109 C 
BRANCH  17  18
ATOM     18  C   UNL     1      -1.314  -0.742   0.012  0.00  0.00    +0.054 C 
BRANCH  18  24
ATOM     19  C   UNL     1      -0.054   1.421   0.012  0.00  0.00    +0.006 A 
ATOM     20  C   UNL     1       1.128   2.137   0.005  0.00  0.00    +0.033 A 
ATOM     21  C   UNL     1       2.339   1.472  -0.009  0.00  0.00    +0.126 A 
ATOM     22  C   UNL     1       2.369   0.089  -0.016  0.00  0.00    +0.033 A 
ATOM     23  C   UNL     1       1.186  -0.627  -0.008  0.00  0.00    +0.006 A 
ATOM     24  C   UNL     1      -0.025   0.039   0.005  0.00  0.00    -0.046 A 
BRANCH  21  25
ATOM     25  N   UNL     1       3.605   2.239  -0.018  0.00  0.00    +0.056 N 
ATOM     26  O   UNL     1       3.579   3.447  -0.012  0.00  0.00    -0.126 OA
ATOM     27  O   UNL     1       4.665   1.657  -0.030  0.00  0.00    -0.126 OA
ENDBRANCH  21  25
ENDBRANCH  18  24
ENDBRANCH  17  18
ENDBRANCH   1  17
TORSDOF 6
