REMARK  Name = ZINC16958604
REMARK  10 active torsions:
REMARK  status: ('A' for Active; 'I' for Inactive)
REMARK    1  A    between atoms: C_1  and  O_2
REMARK    2  A    between atoms: O_2  and  C_3
REMARK    3  A    between atoms: C_6  and  C_9
REMARK    4  A    between atoms: N_12  and  C_18
REMARK    5  A    between atoms: C_15  and  C_16
REMARK    6  A    between atoms: C_20  and  O_33
REMARK    7  A    between atoms: C_22  and  O_32
REMARK    8  A    between atoms: C_24  and  O_31
REMARK    9  A    between atoms: C_26  and  C_29
REMARK   10  A    between atoms: C_29  and  O_30
REMARK                            x       y       z     vdW  Elec       q    Type
REMARK                         _______ _______ _______ _____ _____    ______ ____
ROOT
ATOM      1  C   UNL     1      -0.017   1.413   0.013  0.00  0.00    +0.007 A 
ATOM      2  C   UNL     1       0.008   0.002   0.139  0.00  0.00    -0.019 A 
ATOM      3  C   UNL     1       1.185  -0.651   0.108  0.00  0.00    +0.026 A 
ATOM      4  N   UNL     1       2.360   0.037  -0.026  0.00  0.00    -0.309 N 
ATOM      5  C   UNL     1       2.398   1.373  -0.143  0.00  0.00    +0.107 A 
ATOM      6  S   UNL     1       3.899   2.179  -0.307  0.00  0.00    -0.031 S 
ATOM      7  C   UNL     1       1.191   2.112  -0.130  0.00  0.00    +0.091 A 
ATOM      8  C   UNL     1       1.283  -2.154   0.207  0.00  0.00    +0.054 C 
ATOM      9  C   UNL     1       0.001  -2.742   0.791  0.00  0.00    +0.006 C 
ATOM     10  C   UNL     1      -1.188  -2.185  -0.002  0.00  0.00    +0.005 C 
ATOM     11  C   UNL     1      -1.315  -0.697   0.314  0.00  0.00    +0.037 C 
ENDROOT
BRANCH   1  15
ATOM     12  C   UNL     1      -3.714   3.506   0.051  0.00  0.00    +0.120 A 
ATOM     13  C   UNL     1      -2.795   3.703   1.075  0.00  0.00    +0.046 A 
ATOM     14  C   UNL     1      -1.595   3.026   1.067  0.00  0.00    +0.012 A 
ATOM     15  C   UNL     1      -1.302   2.141   0.026  0.00  0.00    -0.016 A 
ATOM     16  C   UNL     1      -2.226   1.949  -1.004  0.00  0.00    +0.012 A 
ATOM     17  C   UNL     1      -3.426   2.626  -0.985  0.00  0.00    +0.046 A 
BRANCH  12  19
ATOM     18  C   UNL     1      -5.793   3.925  -1.019  0.00  0.00    +0.277 C 
ATOM     19  O   UNL     1      -4.895   4.175   0.064  0.00  0.00    -0.495 OA
ENDBRANCH  12  19
ENDBRANCH   1  15
BRANCH   4  20
ATOM     20  C   UNL     1       3.619  -0.711  -0.041  0.00  0.00    +0.252 C 
ATOM     21  C   UNL     1       4.177  -0.742  -1.467  0.00  0.00    +0.195 C 
ATOM     22  C   UNL     1       5.523  -1.473  -1.464  0.00  0.00    +0.178 C 
ATOM     23  C   UNL     1       6.470  -0.773  -0.485  0.00  0.00    +0.177 C 
ATOM     24  C   UNL     1       5.824  -0.740   0.902  0.00  0.00    +0.177 C 
ATOM     25  O   UNL     1       4.562  -0.074   0.823  0.00  0.00    -0.346 OA
BRANCH  23  26
ATOM     26  O   UNL     1       7.705  -1.489  -0.420  0.00  0.00    -0.386 OA
ATOM     27  H   UNL     1       8.167  -1.553  -1.267  0.00  0.00    +0.210 HD
ENDBRANCH  23  26
BRANCH  22  28
ATOM     28  O   UNL     1       6.085  -1.445  -2.778  0.00  0.00    -0.386 OA
ATOM     29  H   UNL     1       6.940  -1.891  -2.850  0.00  0.00    +0.210 HD
ENDBRANCH  22  28
BRANCH  21  30
ATOM     30  O   UNL     1       3.262  -1.430  -2.322  0.00  0.00    -0.385 OA
ATOM     31  H   UNL     1       3.552  -1.488  -3.243  0.00  0.00    +0.210 HD
ENDBRANCH  21  30
BRANCH  24  32
ATOM     32  C   UNL     1       6.737   0.011   1.873  0.00  0.00    +0.190 C 
BRANCH  32  33
ATOM     33  O   UNL     1       6.191  -0.058   3.192  0.00  0.00    -0.392 OA
ATOM     34  H   UNL     1       6.720   0.398   3.861  0.00  0.00    +0.210 HD
ENDBRANCH  32  33
ENDBRANCH  24  32
ENDBRANCH   4  20
BRANCH   7  35
ATOM     35  C   UNL     1       1.202   3.538  -0.261  0.00  0.00    +0.102 C 
ATOM     36  N   UNL     1       1.211   4.670  -0.364  0.00  0.00    -0.191 NA
ENDBRANCH   7  35
TORSDOF 9
