REMARK  Name = ZINC08879923
REMARK  15 active torsions:
REMARK  status: ('A' for Active; 'I' for Inactive)
REMARK    1  A    between atoms: C_1  and  C_2
REMARK    2  A    between atoms: C_2  and  C_3
REMARK    3  A    between atoms: C_2  and  C_4
REMARK    4  A    between atoms: C_4  and  N_5
REMARK    5  A    between atoms: C_6  and  N_37
REMARK    6  A    between atoms: C_7  and  N_14
REMARK    7  A    between atoms: N_14  and  C_15
REMARK    8  A    between atoms: C_15  and  C_16
REMARK    9  A    between atoms: C_16  and  C_17
REMARK   10  A    between atoms: C_16  and  C_18
REMARK   11  A    between atoms: C_19  and  C_21
REMARK   12  A    between atoms: C_21  and  N_22
REMARK   13  A    between atoms: N_22  and  C_23
REMARK   14  A    between atoms: C_24  and  C_26
REMARK   15  A    between atoms: N_29  and  C_31
REMARK                            x       y       z     vdW  Elec       q    Type
REMARK                         _______ _______ _______ _____ _____    ______ ____
ROOT
ATOM      1  N   UNL     1       1.502   1.961   0.575  0.00  0.00    -0.263 N 
ATOM      2  C   UNL     1       0.588   0.982   0.416  0.00  0.00    +0.237 C 
ATOM      3  O   UNL     1       0.947  -0.145   0.148  0.00  0.00    -0.274 OA
ENDROOT
BRANCH   1   6
ATOM      4  N   UNL     1       4.775   0.503   1.388  0.00  0.00    -0.280 N 
ATOM      5  C   UNL     1       3.430   0.782   1.452  0.00  0.00    +0.127 A 
ATOM      6  C   UNL     1       2.879   1.655   0.536  0.00  0.00    +0.140 A 
ATOM      7  C   UNL     1       3.713   2.229  -0.442  0.00  0.00    +0.277 A 
ATOM      8  O   UNL     1       3.251   2.999  -1.267  0.00  0.00    -0.266 OA
ATOM      9  N   UNL     1       5.026   1.926  -0.457  0.00  0.00    -0.273 N 
ATOM     10  H   UNL     1       5.620   2.340  -1.146  0.00  0.00    +0.173 HD
ATOM     11  C   UNL     1       5.545   1.073   0.444  0.00  0.00    +0.331 A 
ATOM     12  O   UNL     1       6.732   0.814   0.404  0.00  0.00    -0.246 OA
BRANCH   5  13
ATOM     13  N   UNL     1       2.644   0.199   2.417  0.00  0.00    -0.343 N 
ATOM     14  H   UNL     1       1.713   0.458   2.505  0.00  0.00    +0.144 HD
ATOM     15  H   UNL     1       3.020  -0.470   3.009  0.00  0.00    +0.144 HD
ENDBRANCH   5  13
BRANCH   4  16
ATOM     16  C   UNL     1       5.373  -0.422   2.354  0.00  0.00    +0.131 C 
BRANCH  16  18
ATOM     17  C   UNL     1       6.045  -2.796   2.751  0.00  0.00    +0.009 C 
ATOM     18  C   UNL     1       5.310  -1.848   1.801  0.00  0.00    +0.003 C 
ATOM     19  C   UNL     1       3.849  -2.282   1.677  0.00  0.00    +0.009 C 
ENDBRANCH  16  18
ENDBRANCH   4  16
ENDBRANCH   1   6
BRANCH   1  20
ATOM     20  C   UNL     1       1.066   3.344   0.788  0.00  0.00    +0.117 C 
BRANCH  20  21
ATOM     21  C   UNL     1       0.922   3.607   2.288  0.00  0.00    +0.001 C 
ATOM     22  C   UNL     1       2.302   3.564   2.948  0.00  0.00    +0.009 C 
ATOM     23  C   UNL     1       0.296   4.986   2.506  0.00  0.00    +0.009 C 
ENDBRANCH  20  21
ENDBRANCH   1  20
BRANCH   2  24
ATOM     24  C   UNL     1      -0.880   1.290   0.566  0.00  0.00    +0.204 C 
BRANCH  24  25
ATOM     25  N   UNL     1      -1.660   0.070   0.341  0.00  0.00    -0.290 N 
ATOM     26  C   UNL     1      -1.981  -0.812   1.466  0.00  0.00    +0.133 C 
ATOM     27  C   UNL     1      -2.082  -0.240  -0.901  0.00  0.00    +0.268 C 
ATOM     28  O   UNL     1      -1.736   0.438  -1.848  0.00  0.00    -0.268 OA
BRANCH  27  29
ATOM     29  C   UNL     1      -2.966  -1.405  -1.111  0.00  0.00    +0.167 A 
ATOM     30  C   UNL     1      -3.389  -1.910  -2.353  0.00  0.00    +0.169 A 
ATOM     31  N   UNL     1      -4.155  -2.944  -2.097  0.00  0.00    -0.155 NA
ATOM     32  N   UNL     1      -4.218  -3.079  -0.704  0.00  0.00    -0.150 N 
ATOM     33  N   UNL     1      -3.504  -2.153  -0.164  0.00  0.00    -0.142 NA
BRANCH  32  34
ATOM     34  C   UNL     1      -4.939  -4.060  -0.011  0.00  0.00    +0.086 A 
ATOM     35  C   UNL     1      -4.917  -4.090   1.377  0.00  0.00    +0.029 A 
ATOM     36  C   UNL     1      -5.634  -5.055   2.057  0.00  0.00    +0.002 A 
ATOM     37  C   UNL     1      -6.364  -5.997   1.357  0.00  0.00    +0.000 A 
ATOM     38  C   UNL     1      -6.384  -5.973  -0.025  0.00  0.00    +0.002 A 
ATOM     39  C   UNL     1      -5.674  -5.008  -0.711  0.00  0.00    +0.029 A 
ENDBRANCH  32  34
ENDBRANCH  27  29
ENDBRANCH  24  25
ENDBRANCH   2  24
TORSDOF 10
