REMARK  Name = ZINC53112666
REMARK  6 active torsions:
REMARK  status: ('A' for Active; 'I' for Inactive)
REMARK    1  A    between atoms: C_4  and  S_8
REMARK    2  A    between atoms: C_5  and  N_7
REMARK    3  A    between atoms: S_8  and  N_11
REMARK    4  A    between atoms: N_11  and  C_12
REMARK    5  A    between atoms: C_12  and  C_18
REMARK    6  A    between atoms: C_18  and  O_19
REMARK                            x       y       z     vdW  Elec       q    Type
REMARK                         _______ _______ _______ _____ _____    ______ ____
ROOT
ATOM      1  S   UNL     1       4.757  -0.881   0.227  0.00  0.00    +0.061 S 
ATOM      2  O   UNL     1       5.753   0.019   0.692  0.00  0.00    -0.153 OA
ATOM      3  O   UNL     1       3.601  -0.443  -0.473  0.00  0.00    -0.153 OA
ENDROOT
BRANCH   1   7
ATOM      4  C   UNL     1       6.857  -3.854  -2.472  0.00  0.00    +0.002 A 
ATOM      5  C   UNL     1       5.763  -3.147  -2.936  0.00  0.00    +0.002 A 
ATOM      6  C   UNL     1       5.122  -2.240  -2.112  0.00  0.00    +0.030 A 
ATOM      7  C   UNL     1       5.574  -2.038  -0.822  0.00  0.00    +0.126 A 
ATOM      8  C   UNL     1       6.672  -2.747  -0.353  0.00  0.00    +0.051 A 
ATOM      9  C   UNL     1       7.314  -3.657  -1.184  0.00  0.00    +0.025 A 
BRANCH   8  10
ATOM     10  N   UNL     1       7.131  -2.545   0.950  0.00  0.00    -0.356 N 
ATOM     11  H   UNL     1       6.604  -2.023   1.575  0.00  0.00    +0.142 HD
ATOM     12  H   UNL     1       7.978  -2.926   1.231  0.00  0.00    +0.142 HD
ENDBRANCH   8  10
ENDBRANCH   1   7
BRANCH   1  13
ATOM     13  N   UNL     1       4.220  -1.717   1.552  0.00  0.00    -0.182 NA
ATOM     14  H   UNL     1       4.732  -1.702   2.376  0.00  0.00    +0.149 HD
BRANCH  13  15
ATOM     15  C   UNL     1       2.970  -2.479   1.480  0.00  0.00    +0.063 C 
ATOM     16  C   UNL     1       1.802  -1.521   1.243  0.00  0.00    +0.026 C 
ATOM     17  C   UNL     1       1.722  -0.518   2.396  0.00  0.00    +0.002 C 
ATOM     18  C   UNL     1       1.506  -1.270   3.711  0.00  0.00    +0.000 C 
ATOM     19  C   UNL     1       2.675  -2.228   3.948  0.00  0.00    +0.002 C 
ATOM     20  C   UNL     1       2.755  -3.230   2.795  0.00  0.00    +0.026 C 
BRANCH  15  21
ATOM     21  C   UNL     1       3.050  -3.481   0.327  0.00  0.00    +0.179 C 
BRANCH  21  22
ATOM     22  O   UNL     1       3.074  -2.776  -0.916  0.00  0.00    -0.393 OA
ATOM     23  H   UNL     1       3.124  -3.350  -1.693  0.00  0.00    +0.209 HD
ENDBRANCH  21  22
ENDBRANCH  15  21
ENDBRANCH  13  15
ENDBRANCH   1  13
TORSDOF 6
