REMARK  Name = ZINC32594336
REMARK  15 active torsions:
REMARK  status: ('A' for Active; 'I' for Inactive)
REMARK    1  A    between atoms: C_1  and  C_2
REMARK    2  A    between atoms: C_2  and  C_3
REMARK    3  A    between atoms: C_3  and  C_5
REMARK    4  A    between atoms: C_3  and  N_6
REMARK    5  A    between atoms: C_7  and  C_31
REMARK    6  A    between atoms: N_9  and  C_12
REMARK    7  A    between atoms: C_14  and  N_27
REMARK    8  A    between atoms: C_16  and  O_26
REMARK    9  A    between atoms: C_18  and  O_25
REMARK   10  A    between atoms: C_20  and  C_23
REMARK   11  A    between atoms: C_23  and  O_24
REMARK   12  A    between atoms: C_28  and  C_30
REMARK   13  A    between atoms: C_31  and  O_32
REMARK   14  A    between atoms: O_32  and  C_33
REMARK   15  A    between atoms: C_37  and  C_39
REMARK                            x       y       z     vdW  Elec       q    Type
REMARK                         _______ _______ _______ _____ _____    ______ ____
ROOT
ATOM      1  N   UNL     1      -0.875  -6.018  -1.951  0.00  0.00    -0.301 N 
ATOM      2  C   UNL     1       0.077  -5.988  -0.962  0.00  0.00    +0.170 A 
ATOM      3  N   UNL     1       0.289  -4.757  -0.623  0.00  0.00    -0.150 NA
ATOM      4  N   UNL     1      -0.546  -3.941  -1.398  0.00  0.00    -0.209 N 
ATOM      5  C   UNL     1      -1.253  -4.751  -2.214  0.00  0.00    +0.181 A 
ATOM      6  S   UNL     1      -2.417  -4.260  -3.369  0.00  0.00    -0.011 S 
ENDROOT
BRANCH   4   7
ATOM      7  C   UNL     1      -0.631  -2.480  -1.338  0.00  0.00    +0.262 C 
ATOM      8  C   UNL     1      -1.402  -2.064  -0.082  0.00  0.00    +0.155 C 
ATOM      9  C   UNL     1      -1.435  -0.535   0.005  0.00  0.00    +0.170 C 
ATOM     10  C   UNL     1       0.002  -0.004   0.002  0.00  0.00    +0.176 C 
ATOM     11  C   UNL     1       0.718  -0.499  -1.257  0.00  0.00    +0.177 C 
ATOM     12  O   UNL     1       0.686  -1.927  -1.292  0.00  0.00    -0.345 OA
BRANCH   8  13
ATOM     13  N   UNL     1      -2.771  -2.581  -0.154  0.00  0.00    -0.306 N 
ATOM     14  C   UNL     1      -3.470  -2.796   0.977  0.00  0.00    +0.210 C 
ATOM     15  O   UNL     1      -2.967  -2.562   2.055  0.00  0.00    -0.276 OA
ATOM     16  C   UNL     1      -4.878  -3.328   0.903  0.00  0.00    +0.109 C 
ATOM     17  H   UNL     1      -3.228  -2.794  -1.132  0.00  0.00    +0.149 HD
ENDBRANCH   8  13
BRANCH  10  18
ATOM     18  O   UNL     1      -0.017   1.425   0.010  0.00  0.00    -0.387 OA
ATOM     19  H   UNL     1       0.928   1.988   0.009  0.00  0.00    +0.210 HD
ENDBRANCH  10  18
BRANCH   9  20
ATOM     20  O   UNL     1      -2.088  -0.139   1.212  0.00  0.00    -0.387 OA
ATOM     21  H   UNL     1      -2.207   0.928   1.449  0.00  0.00    +0.210 HD
ENDBRANCH   9  20
BRANCH  11  22
ATOM     22  C   UNL     1       2.172  -0.022  -1.238  0.00  0.00    +0.190 C 
BRANCH  22  23
ATOM     23  O   UNL     1       2.808  -0.384  -2.465  0.00  0.00    -0.392 OA
ATOM     24  H   UNL     1       3.863  -0.123  -2.636  0.00  0.00    +0.210 HD
ENDBRANCH  22  23
ENDBRANCH  11  22
ENDBRANCH   4   7
BRANCH   1  25
ATOM     25  C   UNL     1      -1.391  -7.221  -2.609  0.00  0.00    +0.088 C 
ATOM     26  C   UNL     1      -1.106  -7.143  -4.110  0.00  0.00    +0.031 C 
BRANCH  25  28
ATOM     27  C   UNL     1      -3.419  -8.637  -2.959  0.00  0.00    +0.006 C 
ATOM     28  C   UNL     1      -2.901  -7.319  -2.380  0.00  0.00    +0.021 C 
ENDBRANCH  25  28
ENDBRANCH   1  25
BRANCH   2  29
ATOM     29  C   UNL     1       0.765  -7.192  -0.371  0.00  0.00    +0.305 C 
BRANCH  29  30
ATOM     30  O   UNL     1       1.950  -7.477  -1.117  0.00  0.00    -0.484 OA
BRANCH  30  31
ATOM     31  C   UNL     1       2.693  -8.540  -0.712  0.00  0.00    +0.121 A 
ATOM     32  C   UNL     1       2.294  -9.290   0.385  0.00  0.00    +0.045 A 
ATOM     33  C   UNL     1       3.048 -10.373   0.791  0.00  0.00    +0.004 A 
ATOM     34  C   UNL     1       4.206 -10.704   0.112  0.00  0.00    +0.003 A 
ATOM     35  C   UNL     1       4.610  -9.955  -0.978  0.00  0.00    -0.047 A 
ATOM     36  C   UNL     1       3.856  -8.874  -1.391  0.00  0.00    +0.049 A 
ATOM     37  C   UNL     1       5.873 -10.318  -1.715  0.00  0.00    +0.044 C 
ENDBRANCH  30  31
ENDBRANCH  29  30
ENDBRANCH   2  29
TORSDOF 11
