REMARK  Name = ZINC04873325
REMARK  6 active torsions:
REMARK  status: ('A' for Active; 'I' for Inactive)
REMARK    1  A    between atoms: C_1  and  C_2
REMARK    2  A    between atoms: C_2  and  C_3
REMARK    3  A    between atoms: C_5  and  C_19
REMARK    4  A    between atoms: C_7  and  C_10
REMARK    5  A    between atoms: C_7  and  C_11
REMARK    6  A    between atoms: N_8  and  O_9
REMARK                            x       y       z     vdW  Elec       q    Type
REMARK                         _______ _______ _______ _____ _____    ______ ____
ROOT
ATOM      1  C   UNL     1      -1.048   1.585  -1.024  0.00  0.00    +0.137 C 
ATOM      2  C   UNL     1      -0.049   1.206  -2.095  0.00  0.00    +0.086 C 
ATOM      3  N   UNL     1      -0.679   0.772  -3.135  0.00  0.00    -0.140 N 
ATOM      4  C   UNL     1      -2.128   0.804  -2.911  0.00  0.00    +0.179 C 
ATOM      5  N   UNL     1      -2.311   0.931  -1.444  0.00  0.00    -0.149 NA
ATOM      6  C   UNL     1      -2.746   2.008  -3.625  0.00  0.00    +0.063 C 
ATOM      7  O   UNL     1      -0.057   0.328  -4.327  0.00  0.00    -0.167 OA
ENDROOT
BRANCH   4   8
ATOM      8  C   UNL     1      -2.759  -0.473  -3.406  0.00  0.00    -0.002 A 
ATOM      9  C   UNL     1      -3.789  -1.056  -2.692  0.00  0.00    +0.010 A 
ATOM     10  C   UNL     1      -4.371  -2.224  -3.147  0.00  0.00    +0.039 A 
ATOM     11  C   UNL     1      -3.915  -2.815  -4.313  0.00  0.00    +0.123 A 
ATOM     12  C   UNL     1      -2.880  -2.233  -5.025  0.00  0.00    +0.039 A 
ATOM     13  C   UNL     1      -2.303  -1.062  -4.570  0.00  0.00    +0.010 A 
ATOM     14  F   UNL     1      -4.480  -3.960  -4.757  0.00  0.00    -0.205 F 
ENDBRANCH   4   8
BRANCH   2  15
ATOM     15  C   UNL     1       1.419   1.315  -1.969  0.00  0.00    -0.001 A 
ATOM     16  C   UNL     1       1.982   2.305  -1.163  0.00  0.00    +0.010 A 
ATOM     17  C   UNL     1       3.354   2.397  -1.046  0.00  0.00    +0.001 A 
ATOM     18  C   UNL     1       4.170   1.518  -1.734  0.00  0.00    +0.000 A 
ATOM     19  C   UNL     1       3.619   0.537  -2.539  0.00  0.00    +0.001 A 
ATOM     20  C   UNL     1       2.249   0.430  -2.661  0.00  0.00    +0.010 A 
ENDBRANCH   2  15
BRANCH   1  22
ATOM     21  C   UNL     1      -1.638   1.423   1.398  0.00  0.00    +0.006 C 
ATOM     22  C   UNL     1      -0.598   1.055   0.338  0.00  0.00    +0.024 C 
ENDBRANCH   1  22
BRANCH   5  23
ATOM     23  O   UNL     1      -3.467   1.770  -1.128  0.00  0.00    -0.309 OA
ATOM     24  H   UNL     1      -3.453   2.637  -1.557  0.00  0.00    +0.237 HD
ENDBRANCH   5  23
TORSDOF 4
