REMARK  Name = ZINC22058398
REMARK  10 active torsions:
REMARK  status: ('A' for Active; 'I' for Inactive)
REMARK    1  A    between atoms: C_1  and  O_2
REMARK    2  A    between atoms: O_2  and  C_3
REMARK    3  A    between atoms: C_3  and  C_5
REMARK    4  A    between atoms: C_7  and  O_37
REMARK    5  A    between atoms: C_9  and  O_36
REMARK    6  A    between atoms: C_11  and  O_35
REMARK    7  A    between atoms: C_13  and  O_16
REMARK    8  A    between atoms: O_16  and  C_17
REMARK    9  A    between atoms: C_25  and  C_28
REMARK   10  A    between atoms: C_31  and  O_34
REMARK                            x       y       z     vdW  Elec       q    Type
REMARK                         _______ _______ _______ _____ _____    ______ ____
ROOT
ATOM      1  C   UNL     1       1.185   2.058   0.002  0.00  0.00    +0.127 A 
ATOM      2  C   UNL     1       2.360   1.320  -0.013  0.00  0.00    +0.046 A 
ATOM      3  C   UNL     1       3.579   1.966  -0.023  0.00  0.00    +0.011 A 
ATOM      4  C   UNL     1       3.639   3.351  -0.016  0.00  0.00    -0.005 A 
ATOM      5  C   UNL     1       2.470   4.092   0.002  0.00  0.00    +0.127 A 
ATOM      6  C   UNL     1       1.241   3.442   0.003  0.00  0.00    +0.091 A 
ATOM      7  O   UNL     1       2.483   5.450   0.015  0.00  0.00    -0.491 OA
ATOM      8  C   UNL     1       3.693   6.109  -0.363  0.00  0.00    +0.237 C 
ATOM      9  C   UNL     1       4.853   5.475   0.415  0.00  0.00    +0.061 C 
ATOM     10  C   UNL     1       4.991   4.017  -0.032  0.00  0.00    +0.050 C 
ENDROOT
BRANCH   9  11
ATOM     11  C   UNL     1       6.130   6.220   0.122  0.00  0.00    -0.041 A 
ATOM     12  C   UNL     1       6.593   6.309  -1.178  0.00  0.00    +0.007 A 
ATOM     13  C   UNL     1       7.760   6.997  -1.450  0.00  0.00    +0.045 A 
ATOM     14  C   UNL     1       8.474   7.587  -0.417  0.00  0.00    +0.117 A 
ATOM     15  C   UNL     1       8.009   7.490   0.887  0.00  0.00    +0.045 A 
ATOM     16  C   UNL     1       6.839   6.807   1.153  0.00  0.00    +0.007 A 
BRANCH  14  17
ATOM     17  O   UNL     1       9.625   8.259  -0.681  0.00  0.00    -0.507 OA
ATOM     18  H   UNL     1      10.190   8.726   0.139  0.00  0.00    +0.292 HD
ENDBRANCH  14  17
ENDBRANCH   9  11
BRANCH   1  19
ATOM     19  O   UNL     1      -0.017   1.425   0.010  0.00  0.00    -0.461 OA
BRANCH  19  24
ATOM     20  C   UNL     1       0.656  -1.889  -1.329  0.00  0.00    +0.261 C 
ATOM     21  C   UNL     1      -0.747  -2.495  -1.247  0.00  0.00    +0.185 C 
ATOM     22  C   UNL     1      -1.405  -2.065   0.068  0.00  0.00    +0.180 C 
ATOM     23  C   UNL     1      -1.427  -0.535   0.138  0.00  0.00    +0.214 C 
ATOM     24  C   UNL     1       0.002  -0.004   0.002  0.00  0.00    +0.340 C 
ATOM     25  O   UNL     1       0.566  -0.466  -1.227  0.00  0.00    -0.322 OA
BRANCH  20  26
ATOM     26  C   UNL     1       1.287  -2.259  -2.647  0.00  0.00    +0.339 C 
ATOM     27  O   UNL     1       1.542  -1.400  -3.457  0.00  0.00    -0.248 OA
BRANCH  26  29
ATOM     28  C   UNL     1       2.172  -3.827  -4.208  0.00  0.00    +0.280 C 
ATOM     29  O   UNL     1       1.565  -3.543  -2.920  0.00  0.00    -0.466 OA
ENDBRANCH  26  29
ENDBRANCH  20  26
BRANCH  23  30
ATOM     30  O   UNL     1      -2.231  -0.019  -0.925  0.00  0.00    -0.383 OA
ATOM     31  H   UNL     1      -2.365   1.067  -1.036  0.00  0.00    +0.210 HD
ENDBRANCH  23  30
BRANCH  22  32
ATOM     32  O   UNL     1      -2.742  -2.566   0.121  0.00  0.00    -0.386 OA
ATOM     33  H   UNL     1      -3.374  -2.356   0.996  0.00  0.00    +0.210 HD
ENDBRANCH  22  32
BRANCH  21  34
ATOM     34  O   UNL     1      -0.656  -3.921  -1.291  0.00  0.00    -0.386 OA
ATOM     35  H   UNL     1      -1.569  -4.532  -1.243  0.00  0.00    +0.210 HD
ENDBRANCH  21  34
ENDBRANCH  19  24
ENDBRANCH   1  19
TORSDOF 9
