REMARK  Name = ZINC05203430
REMARK  8 active torsions:
REMARK  status: ('A' for Active; 'I' for Inactive)
REMARK    1  A    between atoms: C_1  and  N_2
REMARK    2  A    between atoms: N_2  and  C_3
REMARK    3  A    between atoms: C_11  and  C_13
REMARK    4  A    between atoms: C_13  and  O_14
REMARK    5  A    between atoms: O_14  and  C_15
REMARK    6  A    between atoms: C_15  and  C_17
REMARK    7  A    between atoms: C_19  and  O_28
REMARK    8  A    between atoms: C_26  and  O_27
REMARK                            x       y       z     vdW  Elec       q    Type
REMARK                         _______ _______ _______ _____ _____    ______ ____
ROOT
ATOM      1  C   UNL     1       3.536   6.083  -0.002  0.00  0.00    +0.343 C 
ATOM      2  O   UNL     1       4.610   5.515  -0.015  0.00  0.00    -0.245 OA
ENDROOT
BRANCH   1   3
ATOM      3  C   UNL     1       2.290   5.301   0.007  0.00  0.00    +0.104 A 
ATOM      4  C   UNL     1       1.047   5.964   0.022  0.00  0.00    +0.064 A 
ATOM      5  C   UNL     1      -0.118   5.262   0.030  0.00  0.00    +0.126 A 
ATOM      6  C   UNL     1      -0.094   3.849   0.023  0.00  0.00    +0.027 A 
ATOM      7  C   UNL     1      -1.285   3.107   0.030  0.00  0.00    +0.012 A 
ATOM      8  C   UNL     1      -1.233   1.746   0.017  0.00  0.00    +0.001 A 
ATOM      9  C   UNL     1      -0.013   1.076   0.008  0.00  0.00    +0.001 A 
ATOM     10  C   UNL     1       1.163   1.764   0.000  0.00  0.00    +0.012 A 
ATOM     11  C   UNL     1       1.147   3.168   0.008  0.00  0.00    +0.028 A 
ATOM     12  C   UNL     1       2.346   3.909  -0.000  0.00  0.00    +0.139 A 
BRANCH  12  13
ATOM     13  O   UNL     1       3.543   3.273  -0.015  0.00  0.00    -0.505 OA
ATOM     14  H   UNL     1       3.882   3.093  -0.902  0.00  0.00    +0.292 HD
ENDBRANCH  12  13
BRANCH   5  15
ATOM     15  O   UNL     1      -1.307   5.920   0.045  0.00  0.00    -0.506 OA
ATOM     16  H   UNL     1      -1.660   6.116  -0.834  0.00  0.00    +0.292 HD
ENDBRANCH   5  15
ENDBRANCH   1   3
BRANCH   1  17
ATOM     17  O   UNL     1       3.486   7.430   0.005  0.00  0.00    -0.452 OA
BRANCH  17  18
ATOM     18  C   UNL     1       4.755   8.137  -0.004  0.00  0.00    +0.328 C 
BRANCH  18  21
ATOM     19  C   UNL     1       6.913   9.973  -0.016  0.00  0.00    +0.132 C 
ATOM     20  N   UNL     1       5.540  10.483   0.000  0.00  0.00    -0.297 N 
ATOM     21  C   UNL     1       4.502   9.623   0.006  0.00  0.00    +0.253 C 
ATOM     22  O   UNL     1       3.365  10.044   0.019  0.00  0.00    -0.272 OA
BRANCH  20  23
ATOM     23  C   UNL     1       5.294  11.927   0.009  0.00  0.00    +0.098 C 
ATOM     24  C   UNL     1       5.932  12.554   1.260  0.00  0.00    +0.046 C 
ATOM     25  C   UNL     1       5.960  14.095   1.122  0.00  0.00    +0.168 C 
ATOM     26  S   UNL     1       6.040  14.336  -0.700  0.00  0.00    -0.029 S 
ATOM     27  O   UNL     1       4.869  15.017  -1.128  0.00  0.00    -0.174 OA
ATOM     28  O   UNL     1       7.317  14.858  -1.041  0.00  0.00    -0.174 OA
ATOM     29  C   UNL     1       5.945  12.579  -1.244  0.00  0.00    +0.188 C 
ENDBRANCH  20  23
ENDBRANCH  18  21
ENDBRANCH  17  18
ENDBRANCH   1  17
TORSDOF 7
