REMARK  Name = ZINC09846266
REMARK  10 active torsions:
REMARK  status: ('A' for Active; 'I' for Inactive)
REMARK    1  A    between atoms: C_1  and  C_2
REMARK    2  A    between atoms: C_2  and  C_3
REMARK    3  A    between atoms: C_3  and  C_5
REMARK    4  A    between atoms: C_3  and  O_6
REMARK    5  A    between atoms: O_6  and  C_7
REMARK    6  A    between atoms: C_10  and  C_13
REMARK    7  A    between atoms: N_15  and  C_16
REMARK    8  A    between atoms: C_16  and  N_18
REMARK    9  A    between atoms: N_18  and  C_19
REMARK   10  A    between atoms: C_20  and  C_28
REMARK                            x       y       z     vdW  Elec       q    Type
REMARK                         _______ _______ _______ _____ _____    ______ ____
ROOT
ATOM      1  C   UNL     1       1.849  -6.131  -0.063  0.00  0.00    +0.141 C 
ATOM      2  S   UNL     1       0.459  -7.120   0.077  0.00  0.00    -0.018 S 
ENDROOT
BRANCH   1   5
ATOM      3  C   UNL     1       0.504  -4.226   0.035  0.00  0.00    +0.250 C 
ATOM      4  O   UNL     1      -0.483  -4.928   0.134  0.00  0.00    -0.270 OA
ATOM      5  N   UNL     1       1.724  -4.789  -0.070  0.00  0.00    -0.264 N 
ATOM      6  H   UNL     1       2.512  -4.229  -0.149  0.00  0.00    +0.157 HD
BRANCH   3  10
ATOM      7  C   UNL     1       0.110   0.002   0.015  0.00  0.00    +0.121 A 
ATOM      8  C   UNL     1       1.368  -0.578  -0.098  0.00  0.00    +0.046 A 
ATOM      9  C   UNL     1       1.501  -1.948  -0.086  0.00  0.00    +0.016 A 
ATOM     10  C   UNL     1       0.367  -2.757   0.028  0.00  0.00    +0.037 A 
ATOM     11  C   UNL     1      -0.897  -2.171   0.136  0.00  0.00    +0.016 A 
ATOM     12  C   UNL     1      -1.021  -0.799   0.129  0.00  0.00    +0.046 A 
BRANCH   7  13
ATOM     13  O   UNL     1      -0.016   1.353   0.009  0.00  0.00    -0.489 OA
BRANCH  13  14
ATOM     14  C   UNL     1       1.169   2.114  -0.231  0.00  0.00    +0.170 C 
ATOM     15  C   UNL     1       1.928   2.305   1.084  0.00  0.00    +0.052 C 
BRANCH  14  17
ATOM     16  C   UNL     1       0.143   3.296  -2.178  0.00  0.00    +0.007 C 
ATOM     17  C   UNL     1       0.790   3.481  -0.804  0.00  0.00    +0.041 C 
ENDBRANCH  14  17
ENDBRANCH  13  14
ENDBRANCH   7  13
ENDBRANCH   3  10
ENDBRANCH   1   5
BRANCH   1  18
ATOM     18  N   UNL     1       3.069  -6.695  -0.167  0.00  0.00    -0.291 N 
ATOM     19  H   UNL     1       3.857  -6.135  -0.247  0.00  0.00    +0.154 HD
BRANCH  18  20
ATOM     20  C   UNL     1       3.198  -8.075  -0.161  0.00  0.00    +0.084 A 
ATOM     21  C   UNL     1       4.355  -8.833  -0.263  0.00  0.00    +0.068 A 
ATOM     22  C   UNL     1       4.216 -10.279  -0.224  0.00  0.00    -0.023 A 
ATOM     23  C   UNL     1       2.949 -10.732  -0.103  0.00  0.00    -0.004 A 
ATOM     24  S   UNL     1       1.952  -9.271  -0.032  0.00  0.00    -0.077 S 
ATOM     25  C   UNL     1       2.502 -12.160  -0.044  0.00  0.00    +0.043 C 
ATOM     26  C   UNL     1       3.661 -13.050  -0.518  0.00  0.00    +0.005 C 
ATOM     27  C   UNL     1       4.942 -12.615   0.199  0.00  0.00    +0.005 C 
ATOM     28  C   UNL     1       5.390 -11.247  -0.318  0.00  0.00    +0.037 C 
BRANCH  21  29
ATOM     29  C   UNL     1       5.670  -8.200  -0.399  0.00  0.00    +0.244 C 
ATOM     30  O   UNL     1       6.318  -7.922   0.593  0.00  0.00    -0.270 OA
ATOM     31  N   UNL     1       6.162  -7.924  -1.623  0.00  0.00    -0.325 N 
ATOM     32  H   UNL     1       5.645  -8.146  -2.414  0.00  0.00    +0.145 HD
ATOM     33  H   UNL     1       7.032  -7.505  -1.714  0.00  0.00    +0.145 HD
ENDBRANCH  21  29
ENDBRANCH  18  20
ENDBRANCH   1  18
TORSDOF 8
