REMARK  Name = ZINC40798003
REMARK  8 active torsions:
REMARK  status: ('A' for Active; 'I' for Inactive)
REMARK    1  A    between atoms: C_1  and  C_2
REMARK    2  A    between atoms: C_5  and  C_8
REMARK    3  A    between atoms: C_8  and  C_10
REMARK    4  A    between atoms: C_11  and  N_19
REMARK    5  A    between atoms: C_20  and  C_22
REMARK    6  A    between atoms: C_22  and  C_35
REMARK    7  A    between atoms: N_25  and  C_34
REMARK    8  A    between atoms: C_28  and  C_33
REMARK                            x       y       z     vdW  Elec       q    Type
REMARK                         _______ _______ _______ _____ _____    ______ ____
ROOT
ATOM      1  C   UNL     1      -0.835  -6.344   2.429  0.00  0.00    +0.197 A 
ATOM      2  C   UNL     1      -0.121  -6.272   1.248  0.00  0.00    +0.091 A 
ATOM      3  C   UNL     1       0.619  -5.006   1.308  0.00  0.00    +0.042 A 
ATOM      4  C   UNL     1       1.505  -4.360   0.445  0.00  0.00    +0.013 A 
ATOM      5  C   UNL     1       2.041  -3.154   0.801  0.00  0.00    +0.001 A 
ATOM      6  C   UNL     1       1.709  -2.570   2.016  0.00  0.00    +0.004 A 
ATOM      7  C   UNL     1       0.836  -3.193   2.881  0.00  0.00    +0.047 A 
ATOM      8  C   UNL     1       0.279  -4.420   2.540  0.00  0.00    +0.138 A 
ATOM      9  O   UNL     1      -0.587  -5.240   3.168  0.00  0.00    -0.450 OA
ENDROOT
BRANCH   2  10
ATOM     10  N   UNL     1      -0.107  -7.203   0.219  0.00  0.00    -0.278 N 
ATOM     11  C   UNL     1       0.176  -6.813  -1.040  0.00  0.00    +0.270 C 
ATOM     12  O   UNL     1       0.351  -5.638  -1.285  0.00  0.00    -0.271 OA
ATOM     13  H   UNL     1      -0.300  -8.136   0.406  0.00  0.00    +0.155 HD
BRANCH  11  14
ATOM     14  C   UNL     1       0.273  -7.835  -2.142  0.00  0.00    +0.258 C 
ATOM     15  C   UNL     1      -0.013  -7.174  -3.467  0.00  0.00    +0.273 C 
ATOM     16  O   UNL     1       0.208  -5.991  -3.617  0.00  0.00    -0.270 OA
ATOM     17  N   UNL     1      -0.515  -7.904  -4.485  0.00  0.00    -0.268 N 
ATOM     18  C   UNL     1      -0.881  -9.237  -4.254  0.00  0.00    +0.078 A 
ATOM     19  C   UNL     1      -1.183 -10.078  -5.314  0.00  0.00    +0.030 A 
ATOM     20  C   UNL     1      -1.530 -11.394  -5.070  0.00  0.00    -0.048 A 
ATOM     21  C   UNL     1      -1.576 -11.873  -3.774  0.00  0.00    +0.007 A 
ATOM     22  C   UNL     1      -1.281 -11.038  -2.712  0.00  0.00    +0.048 A 
ATOM     23  C   UNL     1      -0.938  -9.717  -2.947  0.00  0.00    +0.144 A 
ATOM     24  O   UNL     1      -0.677  -8.878  -1.910  0.00  0.00    -0.465 OA
ATOM     25  C   UNL     1      -1.859 -12.310  -6.221  0.00  0.00    +0.044 C 
ATOM     26  C   UNL     1      -0.676  -7.311  -5.814  0.00  0.00    +0.138 C 
ATOM     27  C   UNL     1       1.684  -8.428  -2.164  0.00  0.00    +0.076 C 
ENDBRANCH  11  14
ENDBRANCH   2  10
BRANCH   1  28
ATOM     28  C   UNL     1      -1.697  -7.404   2.802  0.00  0.00    +0.230 C 
ATOM     29  O   UNL     1      -1.782  -8.396   2.100  0.00  0.00    -0.283 OA
BRANCH  28  34
ATOM     30  C   UNL     1      -4.793  -7.030   7.639  0.00  0.00    +0.044 C 
ATOM     31  C   UNL     1      -3.982  -7.128   6.373  0.00  0.00    -0.050 A 
ATOM     32  C   UNL     1      -4.177  -8.193   5.511  0.00  0.00    +0.004 A 
ATOM     33  C   UNL     1      -3.438  -8.289   4.350  0.00  0.00    +0.012 A 
ATOM     34  C   UNL     1      -2.493  -7.308   4.045  0.00  0.00    +0.025 A 
ATOM     35  C   UNL     1      -2.301  -6.236   4.919  0.00  0.00    +0.012 A 
ATOM     36  C   UNL     1      -3.050  -6.149   6.074  0.00  0.00    +0.004 A 
ENDBRANCH  28  34
ENDBRANCH   1  28
TORSDOF 4
