REMARK  Name = ZINC39695561
REMARK  9 active torsions:
REMARK  status: ('A' for Active; 'I' for Inactive)
REMARK    1  A    between atoms: C_1  and  C_2
REMARK    2  A    between atoms: C_2  and  N_3
REMARK    3  A    between atoms: C_7  and  C_9
REMARK    4  A    between atoms: C_9  and  N_10
REMARK    5  A    between atoms: C_11  and  C_13
REMARK    6  A    between atoms: C_24  and  C_26
REMARK    7  A    between atoms: C_30  and  N_32
REMARK    8  A    between atoms: N_32  and  C_33
REMARK    9  A    between atoms: N_32  and  C_34
REMARK                            x       y       z     vdW  Elec       q    Type
REMARK                         _______ _______ _______ _____ _____    ______ ____
ROOT
ATOM      1  C   UNL     1      -2.099  -1.083  -4.745  0.00  0.00    +0.100 C 
ATOM      2  C   UNL     1      -2.020   0.460  -4.786  0.00  0.00    +0.121 C 
ATOM      3  N   UNL     1      -2.244   0.808  -6.209  0.00  0.00    -0.296 N 
ATOM      4  C   UNL     1      -3.297  -0.134  -6.658  0.00  0.00    +0.115 C 
ATOM      5  C   UNL     1      -2.939  -1.468  -5.974  0.00  0.00    -0.004 C 
ATOM      6  C   UNL     1      -4.208  -2.196  -5.540  0.00  0.00    -0.010 C 
ATOM      7  C   UNL     1      -4.997  -2.620  -6.782  0.00  0.00    -0.082 C 
ATOM      8  N   UNL     1      -4.167  -3.498  -7.616  0.00  0.00    +0.379 N 
ATOM      9  C   UNL     1      -2.995  -2.761  -8.105  0.00  0.00    -0.082 C 
ATOM     10  C   UNL     1      -2.121  -2.343  -6.920  0.00  0.00    -0.010 C 
ATOM     11  C   UNL     1      -1.629   1.765  -6.932  0.00  0.00    +0.247 C 
ATOM     12  O   UNL     1      -0.690   2.375  -6.458  0.00  0.00    -0.270 OA
ATOM     13  H   UNL     1      -3.861  -4.288  -7.069  0.00  0.00    -0.086 HD
ATOM     14  H   UNL     1      -4.709  -3.825  -8.401  0.00  0.00    -0.086 HD
ENDROOT
BRANCH  11  15
ATOM     15  C   UNL     1      -2.096   2.073  -8.300  0.00  0.00    +0.039 A 
ATOM     16  C   UNL     1      -3.385   1.711  -8.698  0.00  0.00    +0.013 A 
ATOM     17  C   UNL     1      -3.818   2.000  -9.976  0.00  0.00    +0.003 A 
ATOM     18  C   UNL     1      -2.981   2.646 -10.866  0.00  0.00    +0.023 A 
ATOM     19  C   UNL     1      -1.697   3.011 -10.480  0.00  0.00    +0.030 A 
ATOM     20  C   UNL     1      -1.254   2.731  -9.196  0.00  0.00    +0.036 A 
BRANCH  19  21
ATOM     21  N   UNL     1      -0.854   3.664 -11.383  0.00  0.00    -0.336 N 
ATOM     22  C   UNL     1      -1.269   3.837 -12.777  0.00  0.00    +0.129 C 
ATOM     23  C   UNL     1       0.444   4.175 -10.935  0.00  0.00    +0.129 C 
ENDBRANCH  19  21
ENDBRANCH  11  15
BRANCH   1  25
ATOM     24  N   UNL     1      -2.568  -2.786  -3.013  0.00  0.00    -0.317 N 
ATOM     25  C   UNL     1      -2.780  -1.540  -3.480  0.00  0.00    +0.218 C 
ATOM     26  O   UNL     1      -3.519  -0.786  -2.883  0.00  0.00    -0.275 OA
ATOM     27  H   UNL     1      -1.977  -3.389  -3.491  0.00  0.00    +0.149 HD
BRANCH  24  28
ATOM     28  C   UNL     1      -3.230  -3.230  -1.784  0.00  0.00    +0.089 C 
BRANCH  28  33
ATOM     29  N   UNL     1      -1.352  -4.777  -1.419  0.00  0.00    +0.382 N 
ATOM     30  C   UNL     1      -0.968  -5.260  -0.075  0.00  0.00    -0.078 C 
ATOM     31  C   UNL     1      -2.151  -4.860   0.842  0.00  0.00    -0.020 C 
ATOM     32  C   UNL     1      -3.366  -5.090  -0.095  0.00  0.00    -0.016 C 
ATOM     33  C   UNL     1      -2.822  -4.673  -1.478  0.00  0.00    -0.051 C 
ATOM     34  H   UNL     1      -0.941  -3.870  -1.581  0.00  0.00    -0.081 HD
BRANCH  29  36
ATOM     35  C   UNL     1       0.648  -5.735  -2.457  0.00  0.00    -0.017 C 
ATOM     36  C   UNL     1      -0.882  -5.724  -2.438  0.00  0.00    -0.082 C 
ENDBRANCH  29  36
ENDBRANCH  28  33
ENDBRANCH  24  28
ENDBRANCH   1  25
TORSDOF 6
