REMARK  Name = ZINC20464129
REMARK  4 active torsions:
REMARK  status: ('A' for Active; 'I' for Inactive)
REMARK    1  A    between atoms: C_1  and  C_2
REMARK    2  A    between atoms: C_5  and  N_11
REMARK    3  A    between atoms: C_7  and  N_8
REMARK    4  A    between atoms: C_31  and  C_36
REMARK                            x       y       z     vdW  Elec       q    Type
REMARK                         _______ _______ _______ _____ _____    ______ ____
ROOT
ATOM      1  N   UNL     1       0.557  -4.119  -0.096  0.00  0.00    -0.210 N 
ATOM      2  C   UNL     1       0.920  -4.855   0.996  0.00  0.00    +0.232 C 
ATOM      3  O   UNL     1       0.802  -4.542   2.161  0.00  0.00    -0.274 OA
ATOM      4  C   UNL     1       1.497  -6.135   0.453  0.00  0.00    +0.107 C 
ATOM      5  C   UNL     1       1.117  -7.464   1.117  0.00  0.00    +0.071 C 
ATOM      6  C   UNL     1       2.258  -7.931   2.035  0.00  0.00    +0.021 C 
ATOM      7  C   UNL     1       2.850  -9.185   1.355  0.00  0.00    +0.017 C 
ATOM      8  C   UNL     1       2.437  -9.002  -0.126  0.00  0.00    +0.086 C 
ATOM      9  N   UNL     1       1.071  -8.414  -0.049  0.00  0.00    -0.281 NA
ATOM     10  C   UNL     1       0.753  -7.613  -1.266  0.00  0.00    +0.138 C 
ATOM     11  C   UNL     1       0.517  -6.240  -0.784  0.00  0.00    +0.123 C 
ATOM     12  C   UNL     1       0.478  -4.871  -1.242  0.00  0.00    +0.233 C 
ATOM     13  O   UNL     1       0.397  -4.475  -2.385  0.00  0.00    -0.274 OA
ATOM     14  C   UNL     1       1.860  -7.698  -2.283  0.00  0.00    +0.004 A 
ATOM     15  C   UNL     1       3.163  -7.249  -2.313  0.00  0.00    +0.009 A 
ATOM     16  C   UNL     1       3.960  -7.491  -3.416  0.00  0.00    +0.021 A 
ATOM     17  C   UNL     1       3.444  -8.176  -4.502  0.00  0.00    +0.046 A 
ATOM     18  C   UNL     1       2.134  -8.608  -4.489  0.00  0.00    -0.011 A 
ATOM     19  C   UNL     1       1.325  -8.364  -3.382  0.00  0.00    +0.043 A 
ATOM     20  N   UNL     1      -0.019  -8.667  -3.156  0.00  0.00    -0.283 N 
ATOM     21  C   UNL     1      -0.439  -8.246  -1.951  0.00  0.00    +0.243 C 
ATOM     22  O   UNL     1      -1.559  -8.353  -1.499  0.00  0.00    -0.273 OA
ATOM     23  C   UNL     1       1.575  -9.347  -5.678  0.00  0.00    +0.047 C 
ATOM     24 CL   UNL     1       4.447  -8.492  -5.883  0.00  0.00    -0.083 Cl
ATOM     25  H   UNL     1      -0.584  -9.129  -3.795  0.00  0.00    +0.155 HD
ENDROOT
BRANCH   1  30
ATOM     26  C   UNL     1      -0.537   1.447   0.089  0.00  0.00    +0.046 C 
ATOM     27  C   UNL     1      -0.246  -0.031   0.040  0.00  0.00    -0.020 A 
ATOM     28  C   UNL     1      -0.348  -0.715  -1.158  0.00  0.00    +0.007 A 
ATOM     29  C   UNL     1      -0.083  -2.069  -1.206  0.00  0.00    +0.024 A 
ATOM     30  C   UNL     1       0.287  -2.744  -0.051  0.00  0.00    +0.046 A 
ATOM     31  C   UNL     1       0.389  -2.055   1.150  0.00  0.00    +0.057 A 
ATOM     32  C   UNL     1       0.127  -0.699   1.191  0.00  0.00    +0.131 A 
BRANCH  32  33
ATOM     33  N   UNL     1       0.241   0.038   2.469  0.00  0.00    +0.057 N 
ATOM     34  O   UNL     1       0.676   1.166   2.480  0.00  0.00    -0.126 OA
ATOM     35  O   UNL     1      -0.100  -0.488   3.503  0.00  0.00    -0.126 OA
ENDBRANCH  32  33
ENDBRANCH   1  30
TORSDOF 2
