REMARK  Name = ZINC13130129
REMARK  10 active torsions:
REMARK  status: ('A' for Active; 'I' for Inactive)
REMARK    1  A    between atoms: C_1  and  C_2
REMARK    2  A    between atoms: C_9  and  N_14
REMARK    3  A    between atoms: C_10  and  C_11
REMARK    4  A    between atoms: C_15  and  C_17
REMARK    5  A    between atoms: C_17  and  C_19
REMARK    6  A    between atoms: C_17  and  N_23
REMARK    7  A    between atoms: C_19  and  C_20
REMARK    8  A    between atoms: C_20  and  S_21
REMARK    9  A    between atoms: S_21  and  C_22
REMARK   10  A    between atoms: C_24  and  C_26
REMARK                            x       y       z     vdW  Elec       q    Type
REMARK                         _______ _______ _______ _____ _____    ______ ____
ROOT
ATOM      1  N   UNL     1      -2.305  -5.917   0.764  0.00  0.00    -0.278 N 
ATOM      2  C   UNL     1      -3.569  -6.205   0.397  0.00  0.00    +0.238 C 
ATOM      3  O   UNL     1      -4.297  -5.325  -0.013  0.00  0.00    -0.273 OA
ATOM      4  H   UNL     1      -1.723  -6.620   1.091  0.00  0.00    +0.155 HD
ENDROOT
BRANCH   1  12
ATOM      5  C   UNL     1      -0.019   1.526   0.010  0.00  0.00    +0.008 C 
ATOM      6  C   UNL     1       0.002  -0.004   0.002  0.00  0.00    -0.009 C 
ATOM      7  C   UNL     1       0.742  -0.514   1.242  0.00  0.00    +0.008 C 
ATOM      8  C   UNL     1       0.984  -2.020   1.121  0.00  0.00    +0.037 C 
ATOM      9  C   UNL     1      -0.340  -2.706   0.809  0.00  0.00    -0.023 A 
ATOM     10  C   UNL     1      -1.390  -2.006   0.327  0.00  0.00    -0.004 A 
ATOM     11  S   UNL     1      -2.678  -3.203   0.125  0.00  0.00    -0.077 S 
ATOM     12  C   UNL     1      -1.836  -4.615   0.673  0.00  0.00    +0.084 A 
ATOM     13  C   UNL     1      -0.579  -4.127   0.999  0.00  0.00    +0.068 A 
ATOM     14  C   UNL     1      -1.437  -0.538   0.030  0.00  0.00    +0.046 C 
BRANCH  13  15
ATOM     15  C   UNL     1       0.470  -5.011   1.516  0.00  0.00    +0.244 C 
ATOM     16  O   UNL     1       0.578  -5.192   2.715  0.00  0.00    -0.270 OA
ATOM     17  N   UNL     1       1.315  -5.624   0.663  0.00  0.00    -0.325 N 
ATOM     18  H   UNL     1       1.229  -5.480  -0.292  0.00  0.00    +0.145 HD
ATOM     19  H   UNL     1       2.009  -6.210   1.005  0.00  0.00    +0.145 HD
ENDBRANCH  13  15
ENDBRANCH   1  12
BRANCH   2  20
ATOM     20  C   UNL     1      -4.079  -7.620   0.496  0.00  0.00    +0.160 C 
BRANCH  20  21
ATOM     21  N   UNL     1      -5.471  -7.670   0.042  0.00  0.00    -0.300 N 
ATOM     22  C   UNL     1      -5.981  -8.821  -0.438  0.00  0.00    +0.246 C 
ATOM     23  O   UNL     1      -5.287  -9.818  -0.494  0.00  0.00    -0.270 OA
ATOM     24  H   UNL     1      -6.025  -6.875   0.086  0.00  0.00    +0.150 HD
BRANCH  22  25
ATOM     25  C   UNL     1      -7.385  -8.873  -0.896  0.00  0.00    +0.055 A 
ATOM     26  C   UNL     1      -8.185  -7.730  -0.834  0.00  0.00    +0.016 A 
ATOM     27  C   UNL     1      -9.494  -7.783  -1.263  0.00  0.00    +0.021 A 
ATOM     28  C   UNL     1     -10.017  -8.968  -1.756  0.00  0.00    +0.042 A 
ATOM     29  C   UNL     1      -9.230 -10.105  -1.822  0.00  0.00    +0.040 A 
ATOM     30  C   UNL     1      -7.916 -10.063  -1.400  0.00  0.00    +0.054 A 
ATOM     31 CL   UNL     1      -6.927 -11.487  -1.489  0.00  0.00    -0.083 Cl
ATOM     32 CL   UNL     1     -11.666  -9.026  -2.295  0.00  0.00    -0.083 Cl
ENDBRANCH  22  25
ENDBRANCH  20  21
BRANCH  20  33
ATOM     33  C   UNL     1      -3.999  -8.090   1.950  0.00  0.00    +0.042 C 
BRANCH  33  34
ATOM     34  C   UNL     1      -4.398  -9.565   2.031  0.00  0.00    +0.071 C 
BRANCH  34  35
ATOM     35  S   UNL     1      -4.304 -10.122   3.755  0.00  0.00    -0.164 S 
ATOM     36  C   UNL     1      -4.801 -11.865   3.680  0.00  0.00    +0.084 C 
ENDBRANCH  34  35
ENDBRANCH  33  34
ENDBRANCH  20  33
ENDBRANCH   2  20
TORSDOF 8
