REMARK  Name = ZINC21707265
REMARK  6 active torsions:
REMARK  status: ('A' for Active; 'I' for Inactive)
REMARK    1  A    between atoms: C_1  and  N_2
REMARK    2  A    between atoms: C_4  and  C_7
REMARK    3  A    between atoms: C_8  and  C_9
REMARK    4  A    between atoms: N_11  and  C_12
REMARK    5  A    between atoms: C_17  and  O_18
REMARK    6  A    between atoms: O_18  and  C_19
REMARK                            x       y       z     vdW  Elec       q    Type
REMARK                         _______ _______ _______ _____ _____    ______ ____
ROOT
ATOM      1  C   UNL     1      -1.383  -1.961   0.070  0.00  0.00    +0.076 A 
ATOM      2  C   UNL     1      -2.644  -2.540   0.080  0.00  0.00    +0.027 A 
ATOM      3  C   UNL     1      -3.771  -1.740   0.056  0.00  0.00    +0.002 A 
ATOM      4  C   UNL     1      -3.646  -0.363   0.023  0.00  0.00    +0.004 A 
ATOM      5  C   UNL     1      -2.393   0.221   0.019  0.00  0.00    +0.048 A 
ATOM      6  C   UNL     1      -1.258  -0.574   0.037  0.00  0.00    +0.150 A 
ENDROOT
BRANCH   1   9
ATOM      7  C   UNL     1      -0.244  -3.962  -0.533  0.00  0.00    +0.241 C 
ATOM      8  O   UNL     1      -1.263  -4.368  -1.062  0.00  0.00    -0.270 OA
ATOM      9  N   UNL     1      -0.240  -2.769   0.095  0.00  0.00    -0.279 N 
ATOM     10  H   UNL     1       0.661  -2.431   0.627  0.00  0.00    +0.155 HD
BRANCH   7  12
ATOM     11  C   UNL     1       0.935  -5.938  -1.208  0.00  0.00    +0.016 C 
ATOM     12  C   UNL     1       0.939  -4.743  -0.578  0.00  0.00    +0.068 C 
BRANCH  11  16
ATOM     13  C   UNL     1       4.167  -9.628  -2.147  0.00  0.00    +0.172 C 
ATOM     14  N   UNL     1       3.578  -8.374  -1.670  0.00  0.00    -0.274 N 
ATOM     15  C   UNL     1       2.305  -7.985  -1.854  0.00  0.00    +0.116 A 
ATOM     16  C   UNL     1       2.160  -6.747  -1.255  0.00  0.00    +0.013 A 
ATOM     17  C   UNL     1       3.412  -6.410  -0.690  0.00  0.00    +0.142 A 
ATOM     18  N   UNL     1       4.245  -7.382  -0.943  0.00  0.00    -0.179 NA
ENDBRANCH  11  16
ENDBRANCH   7  12
ENDBRANCH   1   9
BRANCH   6  19
ATOM     19  O   UNL     1      -0.025  -0.001   0.028  0.00  0.00    -0.453 OA
BRANCH  19  20
ATOM     20  C   UNL     1       0.584   0.183  -1.173  0.00  0.00    +0.147 A 
ATOM     21  C   UNL     1      -0.003  -0.305  -2.332  0.00  0.00    +0.048 A 
ATOM     22  C   UNL     1       0.616  -0.112  -3.552  0.00  0.00    +0.004 A 
ATOM     23  C   UNL     1       1.824   0.557  -3.619  0.00  0.00    +0.002 A 
ATOM     24  C   UNL     1       2.414   1.041  -2.466  0.00  0.00    +0.024 A 
ATOM     25  C   UNL     1       1.797   0.855  -1.242  0.00  0.00    +0.083 A 
ATOM     26 CL   UNL     1       2.538   1.462   0.205  0.00  0.00    -0.080 Cl
ENDBRANCH  19  20
ENDBRANCH   6  19
TORSDOF 5
