REMARK  Name = ZINC61992348
REMARK  7 active torsions:
REMARK  status: ('A' for Active; 'I' for Inactive)
REMARK    1  A    between atoms: C_1  and  C_2
REMARK    2  A    between atoms: C_2  and  C_3
REMARK    3  A    between atoms: C_2  and  C_4
REMARK    4  A    between atoms: C_4  and  C_6
REMARK    5  A    between atoms: C_4  and  C_9
REMARK    6  A    between atoms: C_9  and  O_15
REMARK    7  A    between atoms: N_12  and  C_14
REMARK                            x       y       z     vdW  Elec       q    Type
REMARK                         _______ _______ _______ _____ _____    ______ ____
ROOT
ATOM      1  C   UNL     1      -2.102  -0.513  -1.264  0.00  0.00    +0.063 C 
ATOM      2  C   UNL     1      -2.606   0.948  -1.300  0.00  0.00    +0.015 C 
ATOM      3  C   UNL     1      -4.021   0.811  -1.917  0.00  0.00    -0.076 C 
ATOM      4  N   UNL     1      -4.529  -0.454  -1.326  0.00  0.00    +0.380 N 
ATOM      5  C   UNL     1      -3.375  -1.379  -1.302  0.00  0.00    -0.043 C 
ATOM      6  C   UNL     1      -5.604  -1.006  -2.160  0.00  0.00    -0.096 C 
ATOM      7  H   UNL     1      -4.863  -0.290  -0.388  0.00  0.00    -0.082 HD
ENDROOT
BRANCH   1   8
ATOM      8  O   UNL     1      -1.283  -0.785  -2.403  0.00  0.00    -0.390 OA
ATOM      9  H   UNL     1      -1.725  -0.637  -3.250  0.00  0.00    +0.210 HD
ENDBRANCH   1   8
BRANCH   1  10
ATOM     10  C   UNL     1      -1.321  -0.774   0.025  0.00  0.00    +0.134 C 
BRANCH  10  12
ATOM     11  C   UNL     1       0.603  -0.023   1.432  0.00  0.00    +0.008 C 
ATOM     12  C   UNL     1      -0.156   0.213   0.124  0.00  0.00    -0.001 C 
ATOM     13  C   UNL     1       0.791   0.004  -1.060  0.00  0.00    +0.008 C 
ENDBRANCH  10  12
BRANCH  10  14
ATOM     14  C   UNL     1      -0.787  -2.183   0.013  0.00  0.00    +0.362 C 
ATOM     15  O   UNL     1       0.415  -2.380   0.077  0.00  0.00    -0.246 OA
ATOM     16  O   UNL     1      -1.556  -3.126  -0.062  0.00  0.00    -0.246 OA
ENDBRANCH  10  14
ENDBRANCH   1  10
TORSDOF 4
