REMARK  Name = ZINC13000561
REMARK  9 active torsions:
REMARK  status: ('A' for Active; 'I' for Inactive)
REMARK    1  A    between atoms: C_1  and  C_2
REMARK    2  A    between atoms: C_2  and  C_3
REMARK    3  A    between atoms: C_3  and  O_27
REMARK    4  A    between atoms: C_23  and  N_26
REMARK    5  A    between atoms: O_27  and  C_28
REMARK    6  A    between atoms: C_28  and  C_30
REMARK    7  A    between atoms: C_30  and  N_57
REMARK    8  A    between atoms: C_31  and  N_57
REMARK    9  A    between atoms: C_32  and  N_57
REMARK                            x       y       z     vdW  Elec       q    Type
REMARK                         _______ _______ _______ _____ _____    ______ ____
ROOT
ATOM      1  C   UNL     1      -3.493   3.433  -4.031  0.00  0.00    +0.234 C 
ATOM      2  C   UNL     1      -2.592   3.123  -2.863  0.00  0.00    +0.020 A 
ATOM      3  C   UNL     1      -2.978   3.550  -1.585  0.00  0.00    +0.036 A 
ATOM      4  C   UNL     1      -2.191   3.262  -0.490  0.00  0.00    +0.071 A 
ATOM      5  N   UNL     1      -1.033   2.557  -0.653  0.00  0.00    -0.302 N 
ATOM      6  C   UNL     1      -0.650   2.142  -1.876  0.00  0.00    +0.259 A 
ATOM      7  O   UNL     1       0.384   1.507  -2.000  0.00  0.00    -0.267 OA
ATOM      8  C   UNL     1      -1.431   2.432  -3.014  0.00  0.00    +0.062 A 
ATOM      9  C   UNL     1      -0.939   1.965  -4.358  0.00  0.00    +0.273 C 
ATOM     10  O   UNL     1      -2.010   2.003  -5.337  0.00  0.00    -0.457 OA
ATOM     11  C   UNL     1      -2.757   3.130  -5.316  0.00  0.00    +0.357 C 
ATOM     12  O   UNL     1      -2.833   3.859  -6.277  0.00  0.00    -0.246 OA
ATOM     13  C   UNL     1      -0.397   2.390   0.660  0.00  0.00    +0.162 C 
ATOM     14  C   UNL     1      -1.292   3.074   1.661  0.00  0.00    +0.000 A 
ATOM     15  C   UNL     1      -2.380   3.598   0.941  0.00  0.00    +0.093 A 
ATOM     16  N   UNL     1      -3.345   4.260   1.558  0.00  0.00    -0.245 NA
ATOM     17  C   UNL     1      -3.323   4.454   2.878  0.00  0.00    +0.073 A 
ATOM     18  C   UNL     1      -4.357   5.158   3.521  0.00  0.00    +0.028 A 
ATOM     19  C   UNL     1      -4.319   5.348   4.869  0.00  0.00    +0.004 A 
ATOM     20  C   UNL     1      -3.268   4.855   5.636  0.00  0.00    +0.023 A 
ATOM     21  C   UNL     1      -2.233   4.158   5.046  0.00  0.00    +0.034 A 
ATOM     22  C   UNL     1      -2.248   3.947   3.652  0.00  0.00    +0.021 A 
ATOM     23  C   UNL     1      -1.215   3.241   3.009  0.00  0.00    +0.019 A 
ENDROOT
BRANCH  21  24
ATOM     24  N   UNL     1      -1.185   3.668   5.820  0.00  0.00    -0.357 N 
ATOM     25  H   UNL     1      -0.460   3.179   5.401  0.00  0.00    +0.142 HD
ATOM     26  H   UNL     1      -1.179   3.816   6.779  0.00  0.00    +0.142 HD
ENDBRANCH  21  24
BRANCH   1  28
ATOM     27  C   UNL     1      -5.674   2.896  -5.126  0.00  0.00    +0.009 C 
ATOM     28  C   UNL     1      -4.754   2.570  -3.948  0.00  0.00    +0.061 C 
ENDBRANCH   1  28
BRANCH   1  29
ATOM     29  O   UNL     1      -3.861   4.837  -4.002  0.00  0.00    -0.443 OA
BRANCH  29  30
ATOM     30  C   UNL     1      -2.859   5.729  -3.977  0.00  0.00    +0.292 C 
ATOM     31  O   UNL     1      -1.714   5.355  -4.076  0.00  0.00    -0.253 OA
BRANCH  30  32
ATOM     32  C   UNL     1      -3.161   7.198  -3.824  0.00  0.00    +0.043 C 
BRANCH  32  35
ATOM     33  C   UNL     1      -1.238   7.873  -5.131  0.00  0.00    -0.096 C 
ATOM     34  C   UNL     1      -2.137   9.358  -3.443  0.00  0.00    -0.096 C 
ATOM     35  N   UNL     1      -1.887   7.947  -3.805  0.00  0.00    +0.383 N 
ATOM     36  H   UNL     1      -1.264   7.528  -3.105  0.00  0.00    -0.082 HD
ENDBRANCH  32  35
ENDBRANCH  30  32
ENDBRANCH  29  30
ENDBRANCH   1  29
TORSDOF 6
