REMARK  Name = ZINC32651381
REMARK  4 active torsions:
REMARK  status: ('A' for Active; 'I' for Inactive)
REMARK    1  A    between atoms: C_1  and  C_2
REMARK    2  A    between atoms: N_7  and  C_14
REMARK    3  A    between atoms: N_10  and  C_11
REMARK    4  A    between atoms: N_15  and  C_17
REMARK                            x       y       z     vdW  Elec       q    Type
REMARK                         _______ _______ _______ _____ _____    ______ ____
ROOT
ATOM      1  C   UNL     1       2.859   5.277   0.004  0.00  0.00    +0.070 C 
ATOM      2  C   UNL     1       2.447   3.827  -0.000  0.00  0.00    +0.086 A 
ATOM      3  C   UNL     1       1.122   3.352   0.009  0.00  0.00    +0.120 A 
ATOM      4  C   UNL     1       1.189   1.954   0.001  0.00  0.00    +0.152 A 
ATOM      5  C   UNL     1      -0.015   1.215   0.009  0.00  0.00    +0.281 A 
ATOM      6  O   UNL     1       0.002  -0.004   0.002  0.00  0.00    -0.265 OA
ATOM      7  N   UNL     1      -1.185   1.890   0.018  0.00  0.00    -0.282 N 
ATOM      8  C   UNL     1      -1.196   3.255   0.030  0.00  0.00    +0.199 A 
ATOM      9  N   UNL     1      -0.090   3.958   0.024  0.00  0.00    -0.212 NA
ATOM     10  N   UNL     1      -2.403   3.911   0.044  0.00  0.00    -0.312 N 
ATOM     11  C   UNL     1      -2.450   1.152   0.019  0.00  0.00    +0.155 C 
ATOM     12  N   UNL     1       2.517   1.618  -0.013  0.00  0.00    -0.260 N 
ATOM     13  N   UNL     1       3.260   2.806  -0.013  0.00  0.00    -0.174 NA
ATOM     14  C   UNL     1       3.063   0.259  -0.025  0.00  0.00    +0.173 C 
ATOM     15  H   UNL     1      -3.341   3.337   0.050  0.00  0.00    +0.149 HD
ENDROOT
BRANCH  10  16
ATOM     16  C   UNL     1      -2.440   5.375   0.052  0.00  0.00    +0.073 C 
ATOM     17  C   UNL     1      -3.430   6.051   1.003  0.00  0.00    +0.024 C 
ATOM     18  C   UNL     1      -3.694   6.053  -0.505  0.00  0.00    +0.024 C 
ENDBRANCH  10  16
TORSDOF 1
