REMARK  Name = ZINC37299657
REMARK  4 active torsions:
REMARK  status: ('A' for Active; 'I' for Inactive)
REMARK    1  A    between atoms: C_3  and  N_18
REMARK    2  A    between atoms: C_6  and  N_7
REMARK    3  A    between atoms: N_7  and  C_8
REMARK    4  A    between atoms: C_8  and  C_9
REMARK                            x       y       z     vdW  Elec       q    Type
REMARK                         _______ _______ _______ _____ _____    ______ ____
ROOT
ATOM      1  N   UNL     1      -1.197  -0.720   0.010  0.00  0.00    -0.340 N 
ATOM      2  H   UNL     1      -2.044  -0.248   0.021  0.00  0.00    +0.146 HD
ENDROOT
BRANCH   1   8
ATOM      3  C   UNL     1      -0.017   1.385   0.010  0.00  0.00    +0.025 A 
ATOM      4  C   UNL     1       1.171   2.090   0.002  0.00  0.00    +0.034 A 
ATOM      5  C   UNL     1       2.377   1.415  -0.013  0.00  0.00    +0.126 A 
ATOM      6  C   UNL     1       2.400   0.032  -0.022  0.00  0.00    +0.034 A 
ATOM      7  C   UNL     1       1.216  -0.679  -0.014  0.00  0.00    +0.025 A 
ATOM      8  C   UNL     1       0.002  -0.004   0.002  0.00  0.00    +0.028 A 
BRANCH   5   9
ATOM      9  N   UNL     1       3.648   2.174  -0.022  0.00  0.00    +0.056 N 
ATOM     10  O   UNL     1       3.630   3.383  -0.015  0.00  0.00    -0.126 OA
ATOM     11  O   UNL     1       4.704   1.585  -0.036  0.00  0.00    -0.126 OA
ENDBRANCH   5   9
ENDBRANCH   1   8
BRANCH   1  12
ATOM     12  C   UNL     1      -1.175  -2.185   0.002  0.00  0.00    +0.139 C 
BRANCH  12  13
ATOM     13  C   UNL     1      -2.588  -2.709   0.013  0.00  0.00    +0.008 A 
ATOM     14  C   UNL     1      -3.227  -2.950   1.216  0.00  0.00    +0.047 A 
ATOM     15  C   UNL     1      -4.525  -3.430   1.227  0.00  0.00    +0.022 A 
ATOM     16  C   UNL     1      -5.183  -3.669   0.035  0.00  0.00    +0.023 A 
ATOM     17  C   UNL     1      -4.546  -3.428  -1.168  0.00  0.00    +0.060 A 
ATOM     18  C   UNL     1      -3.249  -2.942  -1.179  0.00  0.00    +0.065 A 
ATOM     19 CL   UNL     1      -2.450  -2.633  -2.689  0.00  0.00    -0.082 Cl
ATOM     20 CL   UNL     1      -5.373  -3.729  -2.664  0.00  0.00    -0.082 Cl
ATOM     21 CL   UNL     1      -2.401  -2.651   2.713  0.00  0.00    -0.083 Cl
ENDBRANCH  12  13
ENDBRANCH   1  12
TORSDOF 4
