REMARK  Name = ZINC52890047
REMARK  7 active torsions:
REMARK  status: ('A' for Active; 'I' for Inactive)
REMARK    1  A    between atoms: C_1  and  C_2
REMARK    2  A    between atoms: C_4  and  N_24
REMARK    3  A    between atoms: C_6  and  S_8
REMARK    4  A    between atoms: S_8  and  C_9
REMARK    5  A    between atoms: C_9  and  C_10
REMARK    6  A    between atoms: C_13  and  C_15
REMARK    7  A    between atoms: C_18  and  C_21
REMARK                            x       y       z     vdW  Elec       q    Type
REMARK                         _______ _______ _______ _____ _____    ______ ____
ROOT
ATOM      1  C   UNL     1       0.092  -5.461   3.466  0.00  0.00    +0.059 A 
ATOM      2  C   UNL     1       1.278  -5.826   4.026  0.00  0.00    +0.071 A 
ATOM      3  S   UNL     1       0.702  -6.788   5.419  0.00  0.00    -0.075 S 
ATOM      4  C   UNL     1      -1.048  -6.600   5.105  0.00  0.00    +0.109 A 
ATOM      5  N   UNL     1      -1.035  -5.847   4.013  0.00  0.00    -0.243 NA
ENDROOT
BRANCH   4   6
ATOM      6  C   UNL     1      -2.199  -7.135   5.861  0.00  0.00    +0.007 A 
ATOM      7  C   UNL     1      -3.502  -6.868   5.431  0.00  0.00    +0.011 A 
ATOM      8  C   UNL     1      -4.574  -7.367   6.134  0.00  0.00    +0.014 A 
ATOM      9  C   UNL     1      -4.360  -8.139   7.279  0.00  0.00    +0.037 A 
ATOM     10  C   UNL     1      -3.058  -8.406   7.709  0.00  0.00    +0.014 A 
ATOM     11  C   UNL     1      -1.985  -7.912   7.002  0.00  0.00    +0.011 A 
BRANCH   9  12
ATOM     12  C   UNL     1      -5.511  -8.674   8.034  0.00  0.00    +0.242 C 
ATOM     13  O   UNL     1      -6.645  -8.442   7.660  0.00  0.00    -0.270 OA
ATOM     14  N   UNL     1      -5.305  -9.419   9.138  0.00  0.00    -0.325 N 
ATOM     15  H   UNL     1      -4.401  -9.604   9.437  0.00  0.00    +0.145 HD
ATOM     16  H   UNL     1      -6.061  -9.770   9.634  0.00  0.00    +0.145 HD
ENDBRANCH   9  12
ENDBRANCH   4   6
BRANCH   1  17
ATOM     17  C   UNL     1       0.075  -4.610   2.222  0.00  0.00    +0.133 C 
BRANCH  17  18
ATOM     18  S   UNL     1       0.053  -2.857   2.690  0.00  0.00    -0.080 S 
BRANCH  18  24
ATOM     19  C   UNL     1      -0.018   1.503   0.010  0.00  0.00    +0.066 C 
ATOM     20  C   UNL     1       0.002  -0.004   0.002  0.00  0.00    +0.044 A 
ATOM     21  C   UNL     1       0.006  -0.696  -1.194  0.00  0.00    +0.066 A 
ATOM     22  C   UNL     1       0.025  -2.091  -1.157  0.00  0.00    +0.121 A 
ATOM     23  N   UNL     1       0.039  -2.705   0.022  0.00  0.00    -0.207 NA
ATOM     24  C   UNL     1       0.035  -2.005   1.147  0.00  0.00    +0.190 A 
ATOM     25  N   UNL     1       0.022  -0.679   1.141  0.00  0.00    -0.227 NA
BRANCH  22  26
ATOM     26  N   UNL     1       0.029  -2.826  -2.331  0.00  0.00    -0.343 N 
ATOM     27  H   UNL     1       0.018  -2.371  -3.188  0.00  0.00    +0.144 HD
ATOM     28  H   UNL     1       0.042  -3.795  -2.297  0.00  0.00    +0.144 HD
ENDBRANCH  22  26
ENDBRANCH  18  24
ENDBRANCH  17  18
ENDBRANCH   1  17
TORSDOF 6
