REMARK  Name = ZINC13148729
REMARK  13 active torsions:
REMARK  status: ('A' for Active; 'I' for Inactive)
REMARK    1  A    between atoms: C_1  and  C_2
REMARK    2  A    between atoms: C_3  and  N_11
REMARK    3  A    between atoms: C_7  and  N_8
REMARK    4  A    between atoms: C_12  and  C_14
REMARK    5  A    between atoms: C_14  and  O_15
REMARK    6  A    between atoms: O_15  and  C_16
REMARK    7  A    between atoms: C_16  and  C_18
REMARK    8  A    between atoms: C_18  and  C_20
REMARK    9  A    between atoms: C_18  and  N_24
REMARK   10  A    between atoms: C_20  and  C_22
REMARK   11  A    between atoms: C_20  and  O_23
REMARK   12  A    between atoms: N_24  and  S_25
REMARK   13  A    between atoms: S_25  and  C_28
REMARK                            x       y       z     vdW  Elec       q    Type
REMARK                         _______ _______ _______ _____ _____    ______ ____
ROOT
ATOM      1  C   UNL     1      -4.288   6.493   1.840  0.00  0.00    +0.213 C 
ENDROOT
BRANCH   1   2
ATOM      2  C   UNL     1      -2.885   6.137   1.423  0.00  0.00    +0.329 C 
ATOM      3  O   UNL     1      -2.058   7.007   1.279  0.00  0.00    -0.249 OA
BRANCH   2   4
ATOM      4  O   UNL     1      -2.552   4.854   1.211  0.00  0.00    -0.454 OA
BRANCH   4   5
ATOM      5  C   UNL     1      -1.182   4.585   0.812  0.00  0.00    +0.328 C 
BRANCH   5   7
ATOM      6  N   UNL     1       0.203   2.615   0.248  0.00  0.00    -0.282 N 
ATOM      7  C   UNL     1      -0.997   3.102   0.622  0.00  0.00    +0.255 C 
ATOM      8  O   UNL     1      -1.927   2.345   0.804  0.00  0.00    -0.272 OA
ATOM      9  H   UNL     1       0.931   3.223   0.043  0.00  0.00    +0.155 HD
BRANCH   6  12
ATOM     10  C   UNL     1       2.777   1.578   0.882  0.00  0.00    +0.048 C 
ATOM     11  C   UNL     1       1.641   0.685   0.455  0.00  0.00    +0.001 A 
ATOM     12  C   UNL     1       0.400   1.233   0.155  0.00  0.00    +0.039 A 
ATOM     13  C   UNL     1      -0.644   0.406  -0.237  0.00  0.00    +0.024 A 
ATOM     14  C   UNL     1      -0.447  -0.958  -0.328  0.00  0.00    +0.004 A 
ATOM     15  C   UNL     1       0.789  -1.500  -0.029  0.00  0.00    +0.033 A 
ATOM     16  C   UNL     1       1.832  -0.680   0.361  0.00  0.00    +0.131 A 
BRANCH  16  17
ATOM     17  N   UNL     1       3.153  -1.265   0.680  0.00  0.00    +0.057 N 
ATOM     18  O   UNL     1       3.292  -2.474   0.714  0.00  0.00    -0.126 OA
ATOM     19  O   UNL     1       4.102  -0.536   0.909  0.00  0.00    -0.126 OA
ENDBRANCH  16  17
ENDBRANCH   6  12
ENDBRANCH   5   7
ENDBRANCH   4   5
ENDBRANCH   2   4
ENDBRANCH   1   2
BRANCH   1  20
ATOM     20  C   UNL     1      -4.617   5.802   3.165  0.00  0.00    +0.141 C 
ATOM     21  C   UNL     1      -6.047   6.153   3.582  0.00  0.00    +0.040 C 
BRANCH  20  22
ATOM     22  O   UNL     1      -4.501   4.387   3.006  0.00  0.00    -0.390 OA
ATOM     23  H   UNL     1      -3.619   4.092   2.742  0.00  0.00    +0.210 HD
ENDBRANCH  20  22
ENDBRANCH   1  20
BRANCH   1  24
ATOM     24  N   UNL     1      -4.395   7.944   2.006  0.00  0.00    -0.174 NA
ATOM     25  H   UNL     1      -4.120   8.359   2.838  0.00  0.00    +0.149 HD
BRANCH  24  26
ATOM     26  S   UNL     1      -4.987   8.877   0.772  0.00  0.00    +0.059 S 
ATOM     27  O   UNL     1      -5.064  10.207   1.269  0.00  0.00    -0.153 OA
ATOM     28  O   UNL     1      -4.238   8.540  -0.387  0.00  0.00    -0.153 OA
BRANCH  26  29
ATOM     29  C   UNL     1      -6.643   8.355   0.472  0.00  0.00    +0.106 A 
ATOM     30  C   UNL     1      -6.879   7.282  -0.384  0.00  0.00    +0.029 A 
ATOM     31  C   UNL     1      -8.146   6.850  -0.633  0.00  0.00    +0.010 A 
ATOM     32  C   UNL     1      -9.234   7.502  -0.029  0.00  0.00    -0.018 A 
ATOM     33  C   UNL     1     -10.556   7.089  -0.267  0.00  0.00    +0.008 A 
ATOM     34  C   UNL     1     -11.585   7.744   0.336  0.00  0.00    +0.001 A 
ATOM     35  C   UNL     1     -11.349   8.821   1.188  0.00  0.00    +0.001 A 
ATOM     36  C   UNL     1     -10.082   9.249   1.442  0.00  0.00    +0.008 A 
ATOM     37  C   UNL     1      -8.994   8.597   0.838  0.00  0.00    -0.016 A 
ATOM     38  C   UNL     1      -7.672   9.011   1.075  0.00  0.00    +0.037 A 
ENDBRANCH  26  29
ENDBRANCH  24  26
ENDBRANCH   1  24
TORSDOF 11
