REMARK  Name = ZINC67438048
REMARK  11 active torsions:
REMARK  status: ('A' for Active; 'I' for Inactive)
REMARK    1  A    between atoms: C_1  and  C_2
REMARK    2  A    between atoms: C_2  and  O_3
REMARK    3  A    between atoms: O_3  and  C_4
REMARK    4  A    between atoms: C_5  and  N_10
REMARK    5  A    between atoms: C_11  and  C_13
REMARK    6  A    between atoms: N_15  and  C_16
REMARK    7  A    between atoms: C_16  and  C_18
REMARK    8  A    between atoms: C_16  and  C_19
REMARK    9  A    between atoms: C_19  and  N_20
REMARK   10  A    between atoms: C_22  and  C_29
REMARK   11  A    between atoms: C_25  and  C_28
REMARK                            x       y       z     vdW  Elec       q    Type
REMARK                         _______ _______ _______ _____ _____    ______ ____
ROOT
ATOM      1  C   UNL     1       3.345  -1.040  -5.418  0.00  0.00    +0.299 C 
ATOM      2  O   UNL     1       3.250   0.161  -5.274  0.00  0.00    -0.265 OA
ATOM      3  N   UNL     1       4.055  -1.542  -6.447  0.00  0.00    -0.307 N 
ATOM      4  H   UNL     1       4.130  -2.502  -6.562  0.00  0.00    +0.149 HD
ENDROOT
BRANCH   1   6
ATOM      5  N   UNL     1       1.964  -1.461  -3.423  0.00  0.00    -0.273 N 
ATOM      6  C   UNL     1       2.674  -1.963  -4.453  0.00  0.00    +0.303 C 
ATOM      7  O   UNL     1       2.769  -3.164  -4.597  0.00  0.00    -0.265 OA
ATOM      8  H   UNL     1       1.820  -0.504  -3.354  0.00  0.00    +0.155 HD
BRANCH   5  10
ATOM      9  C   UNL     1       0.320  -1.941  -1.705  0.00  0.00    +0.237 A 
ATOM     10  C   UNL     1       1.435  -2.320  -2.455  0.00  0.00    +0.096 A 
ATOM     11  C   UNL     1       2.010  -3.564  -2.224  0.00  0.00    +0.030 A 
ATOM     12  C   UNL     1       1.450  -4.381  -1.253  0.00  0.00    +0.022 A 
ATOM     13  C   UNL     1       0.346  -3.939  -0.551  0.00  0.00    +0.115 A 
ATOM     14  N   UNL     1      -0.178  -2.751  -0.787  0.00  0.00    -0.220 NA
BRANCH   9  15
ATOM     15  O   UNL     1      -0.255  -0.730  -1.917  0.00  0.00    -0.475 OA
BRANCH  15  17
ATOM     16  C   UNL     1      -1.895   0.993  -1.494  0.00  0.00    +0.048 C 
ATOM     17  C   UNL     1      -1.389  -0.400  -1.114  0.00  0.00    +0.227 C 
ENDBRANCH  15  17
ENDBRANCH   9  15
ENDBRANCH   5  10
ENDBRANCH   1   6
BRANCH   3  18
ATOM     18  C   UNL     1       4.712  -0.637  -7.393  0.00  0.00    +0.054 C 
ATOM     19  C   UNL     1       3.715  -0.219  -8.476  0.00  0.00    +0.026 C 
BRANCH  18  20
ATOM     20  C   UNL     1       5.899  -1.352  -8.042  0.00  0.00    -0.057 C 
BRANCH  20  21
ATOM     21  N   UNL     1       6.797  -1.859  -6.996  0.00  0.00    +0.381 N 
ATOM     22  C   UNL     1       7.371  -0.728  -6.256  0.00  0.00    -0.076 C 
ATOM     23  C   UNL     1       8.244  -1.252  -5.113  0.00  0.00    -0.031 C 
ATOM     24  C   UNL     1       9.372  -2.111  -5.692  0.00  0.00    +0.003 C 
ATOM     25  C   UNL     1       8.763  -3.244  -6.523  0.00  0.00    -0.031 C 
ATOM     26  C   UNL     1       7.871  -2.646  -7.613  0.00  0.00    -0.076 C 
ATOM     27  C   UNL     1       9.882  -4.062  -7.168  0.00  0.00    +0.005 C 
ATOM     28  C   UNL     1       7.391  -2.098  -4.165  0.00  0.00    +0.005 C 
ATOM     29  H   UNL     1       6.275  -2.443  -6.360  0.00  0.00    -0.082 HD
ENDBRANCH  20  21
ENDBRANCH  18  20
ENDBRANCH   3  18
TORSDOF 7
