REMARK  Name = ZINC61122165
REMARK  7 active torsions:
REMARK  status: ('A' for Active; 'I' for Inactive)
REMARK    1  A    between atoms: C_1  and  C_2
REMARK    2  A    between atoms: C_2  and  C_3
REMARK    3  A    between atoms: C_2  and  C_4
REMARK    4  A    between atoms: C_4  and  C_6
REMARK    5  A    between atoms: C_4  and  C_10
REMARK    6  A    between atoms: N_7  and  O_8
REMARK    7  A    between atoms: N_12  and  C_13
REMARK                            x       y       z     vdW  Elec       q    Type
REMARK                         _______ _______ _______ _____ _____    ______ ____
ROOT
ATOM      1  C   UNL     1       0.026   0.559   2.454  0.00  0.00    +0.228 C 
ATOM      2  O   UNL     1      -0.684   0.171   3.356  0.00  0.00    -0.275 OA
ATOM      3  N   UNL     1       0.512   1.817   2.472  0.00  0.00    -0.285 N 
ATOM      4  H   UNL     1       1.002   2.159   1.708  0.00  0.00    +0.155 HD
ENDROOT
BRANCH   3   5
ATOM      5  C   UNL     1       0.309   2.629   3.595  0.00  0.00    +0.039 A 
ATOM      6  C   UNL     1       0.287   2.067   4.864  0.00  0.00    +0.064 A 
ATOM      7  C   UNL     1       0.087   2.871   5.972  0.00  0.00    +0.163 A 
ATOM      8  C   UNL     1      -0.090   4.237   5.815  0.00  0.00    +0.193 A 
ATOM      9  C   UNL     1      -0.069   4.799   4.548  0.00  0.00    +0.163 A 
ATOM     10  C   UNL     1       0.137   3.998   3.439  0.00  0.00    +0.064 A 
ATOM     11  F   UNL     1      -0.243   6.130   4.397  0.00  0.00    -0.202 F 
ATOM     12  F   UNL     1      -0.285   5.020   6.898  0.00  0.00    -0.199 F 
ATOM     13  F   UNL     1       0.065   2.324   7.207  0.00  0.00    -0.202 F 
ENDBRANCH   3   5
BRANCH   1  14
ATOM     14  C   UNL     1       0.367  -0.363   1.312  0.00  0.00    +0.144 C 
BRANCH  14  15
ATOM     15  C   UNL     1      -0.074  -1.764   1.649  0.00  0.00    +0.144 C 
ATOM     16  N   UNL     1      -1.222  -2.195   1.243  0.00  0.00    -0.076 NA
ATOM     17  N   UNL     1       0.746  -2.585   2.391  0.00  0.00    -0.343 N 
ATOM     18  H   UNL     1       1.608  -2.261   2.696  0.00  0.00    +0.144 HD
ATOM     19  H   UNL     1       0.462  -3.486   2.608  0.00  0.00    +0.144 HD
BRANCH  16  20
ATOM     20  O   UNL     1      -1.637  -3.511   1.560  0.00  0.00    -0.408 OA
ATOM     21  H   UNL     1      -2.510  -3.743   1.212  0.00  0.00    +0.328 HD
ENDBRANCH  16  20
ENDBRANCH  14  15
BRANCH  14  23
ATOM     22  C   UNL     1      -0.144  -0.921  -1.069  0.00  0.00    +0.008 C 
ATOM     23  C   UNL     1      -0.351   0.107   0.045  0.00  0.00    +0.002 C 
ATOM     24  C   UNL     1      -1.847   0.254   0.332  0.00  0.00    +0.008 C 
ENDBRANCH  14  23
ENDBRANCH   1  14
TORSDOF 5
