REMARK  Name = ZINC08387081
REMARK  9 active torsions:
REMARK  status: ('A' for Active; 'I' for Inactive)
REMARK    1  A    between atoms: C_1  and  C_2
REMARK    2  A    between atoms: C_2  and  C_29
REMARK    3  A    between atoms: N_7  and  N_8
REMARK    4  A    between atoms: C_9  and  C_10
REMARK    5  A    between atoms: C_13  and  O_18
REMARK    6  A    between atoms: C_14  and  O_16
REMARK    7  A    between atoms: O_16  and  C_17
REMARK    8  A    between atoms: O_18  and  S_19
REMARK    9  A    between atoms: S_19  and  C_22
REMARK                            x       y       z     vdW  Elec       q    Type
REMARK                         _______ _______ _______ _____ _____    ______ ____
ROOT
ATOM      1  C   UNL     1       5.692   2.364  -3.393  0.00  0.00    -0.002 A 
ATOM      2  C   UNL     1       4.328   2.056  -3.403  0.00  0.00    +0.013 A 
ATOM      3  C   UNL     1       3.874   0.916  -2.775  0.00  0.00    +0.053 A 
ATOM      4  C   UNL     1       4.766   0.077  -2.122  0.00  0.00    +0.198 A 
ATOM      5  C   UNL     1       6.127   0.376  -2.108  0.00  0.00    +0.165 A 
ATOM      6  C   UNL     1       6.591   1.514  -2.740  0.00  0.00    +0.059 A 
ENDROOT
BRANCH   1   8
ATOM      7  N   UNL     1       5.339   4.368  -4.676  0.00  0.00    -0.155 NA
ATOM      8  C   UNL     1       6.180   3.577  -4.067  0.00  0.00    +0.143 C 
BRANCH   7  15
ATOM      9  C   UNL     1       3.088   9.471  -6.648  0.00  0.00    +0.032 C 
ATOM     10  C   UNL     1       3.547   8.146  -7.259  0.00  0.00    +0.094 C 
ATOM     11  C   UNL     1       2.805   6.970  -6.646  0.00  0.00    +0.235 C 
ATOM     12  O   UNL     1       1.603   6.844  -6.745  0.00  0.00    -0.274 OA
ATOM     13  N   UNL     1       3.552   6.090  -6.002  0.00  0.00    -0.262 N 
ATOM     14  C   UNL     1       4.919   6.230  -5.881  0.00  0.00    +0.183 C 
ATOM     15  N   UNL     1       5.767   5.432  -5.267  0.00  0.00    -0.127 NA
ATOM     16  S   UNL     1       5.269   7.745  -6.760  0.00  0.00    -0.073 S 
ATOM     17  C   UNL     1       3.401   8.160  -8.782  0.00  0.00    +0.032 C 
ATOM     18  H   UNL     1       3.124   5.319  -5.597  0.00  0.00    +0.157 HD
ENDBRANCH   7  15
ENDBRANCH   1   8
BRANCH   5  19
ATOM     19  O   UNL     1       6.998  -0.452  -1.472  0.00  0.00    -0.491 OA
ATOM     20  C   UNL     1       8.379  -0.084  -1.497  0.00  0.00    +0.277 C 
ENDBRANCH   5  19
BRANCH   4  21
ATOM     21  O   UNL     1       4.312  -1.044  -1.501  0.00  0.00    -0.339 OA
BRANCH  21  22
ATOM     22  S   UNL     1       3.934  -0.832  -0.042  0.00  0.00    +0.151 S 
ATOM     23  O   UNL     1       4.902   0.054   0.504  0.00  0.00    -0.131 OA
ATOM     24  O   UNL     1       3.686  -2.120   0.505  0.00  0.00    -0.131 OA
BRANCH  22  25
ATOM     25  C   UNL     1       2.396   0.029  -0.022  0.00  0.00    +0.128 A 
ATOM     26  C   UNL     1       1.208  -0.679  -0.014  0.00  0.00    +0.030 A 
ATOM     27  C   UNL     1       0.002  -0.004   0.002  0.00  0.00    +0.002 A 
ATOM     28  C   UNL     1      -0.017   1.378   0.010  0.00  0.00    +0.000 A 
ATOM     29  C   UNL     1       1.171   2.086   0.002  0.00  0.00    +0.002 A 
ATOM     30  C   UNL     1       2.377   1.411  -0.014  0.00  0.00    +0.030 A 
ENDBRANCH  22  25
ENDBRANCH  21  22
ENDBRANCH   4  21
TORSDOF 6
