REMARK  Name = ZINC39937243
REMARK  4 active torsions:
REMARK  status: ('A' for Active; 'I' for Inactive)
REMARK    1  A    between atoms: C_1  and  O_2
REMARK    2  A    between atoms: O_2  and  C_3
REMARK    3  A    between atoms: C_3  and  C_5
REMARK    4  A    between atoms: C_6  and  N_14
REMARK                            x       y       z     vdW  Elec       q    Type
REMARK                         _______ _______ _______ _____ _____    ______ ____
ROOT
ATOM      1  C   UNL     1       0.657  -2.012  -1.121  0.00  0.00    +0.107 C 
ATOM      2  C   UNL     1       1.240  -2.793  -2.126  0.00  0.00    +0.132 C 
ATOM      3  N   UNL     1       1.098  -4.088  -1.854  0.00  0.00    -0.232 NA
ATOM      4  C   UNL     1       0.452  -4.306  -0.721  0.00  0.00    +0.073 C 
ATOM      5  C   UNL     1       0.117  -2.988  -0.147  0.00  0.00    +0.014 C 
ATOM      6  C   UNL     1      -0.542  -2.887   1.019  0.00  0.00    -0.012 C 
ATOM      7  C   UNL     1      -0.940  -4.150   1.748  0.00  0.00    +0.055 C 
ATOM      8  C   UNL     1      -0.583  -5.485   1.141  0.00  0.00    -0.021 C 
ATOM      9  C   UNL     1       0.064  -5.536  -0.022  0.00  0.00    +0.024 C 
ENDROOT
BRANCH   2  10
ATOM     10  N   UNL     1       1.874  -2.289  -3.244  0.00  0.00    -0.342 N 
ATOM     11  H   UNL     1       1.939  -1.330  -3.375  0.00  0.00    +0.144 HD
ATOM     12  H   UNL     1       2.255  -2.894  -3.900  0.00  0.00    +0.144 HD
ENDBRANCH   2  10
BRANCH   1  13
ATOM     13  C   UNL     1       0.602  -0.603  -1.049  0.00  0.00    +0.343 C 
ATOM     14  O   UNL     1       1.095   0.072  -1.934  0.00  0.00    -0.245 OA
BRANCH  13  16
ATOM     15  C   UNL     1      -0.017   1.425   0.010  0.00  0.00    +0.280 C 
ATOM     16  O   UNL     1       0.002  -0.004   0.002  0.00  0.00    -0.464 OA
ENDBRANCH  13  16
ENDBRANCH   1  13
TORSDOF 3
