REMARK  Name = ZINC17157357
REMARK  6 active torsions:
REMARK  status: ('A' for Active; 'I' for Inactive)
REMARK    1  A    between atoms: C_1  and  C_2
REMARK    2  A    between atoms: C_5  and  C_31
REMARK    3  A    between atoms: C_6  and  N_8
REMARK    4  A    between atoms: C_13  and  C_15
REMARK    5  A    between atoms: N_17  and  N_18
REMARK    6  A    between atoms: C_19  and  C_21
REMARK                            x       y       z     vdW  Elec       q    Type
REMARK                         _______ _______ _______ _____ _____    ______ ____
ROOT
ATOM      1  C   UNL     1      -7.281   1.168   2.100  0.00  0.00    +0.276 C 
ATOM      2  O   UNL     1      -6.884   1.867   3.012  0.00  0.00    -0.267 OA
ATOM      3  N   UNL     1      -6.457   0.859   1.079  0.00  0.00    -0.229 N 
ATOM      4  H   UNL     1      -6.816   0.226   0.254  0.00  0.00    +0.173 HD
ENDROOT
BRANCH   1  10
ATOM      5  N   UNL     1     -10.378  -0.586   1.108  0.00  0.00    -0.160 N 
ATOM      6  C   UNL     1     -11.340  -0.019   1.862  0.00  0.00    +0.240 C 
ATOM      7  O   UNL     1     -12.472  -0.453   1.832  0.00  0.00    -0.273 OA
ATOM      8  C   UNL     1     -11.004   1.159   2.742  0.00  0.00    +0.104 C 
ATOM      9  C   UNL     1      -9.568   1.006   3.258  0.00  0.00    +0.072 C 
ATOM     10  C   UNL     1      -8.658   0.660   2.110  0.00  0.00    +0.123 C 
ATOM     11  N   UNL     1      -9.072  -0.086   1.133  0.00  0.00    -0.172 NA
BRANCH   5  17
ATOM     12  C   UNL     1     -12.220  -5.121   0.637  0.00  0.00    +0.044 C 
ATOM     13  C   UNL     1     -11.581  -3.893   0.040  0.00  0.00    -0.049 A 
ATOM     14  C   UNL     1     -11.301  -3.849  -1.314  0.00  0.00    +0.004 A 
ATOM     15  C   UNL     1     -10.715  -2.724  -1.865  0.00  0.00    +0.005 A 
ATOM     16  C   UNL     1     -10.413  -1.639  -1.066  0.00  0.00    -0.027 A 
ATOM     17  C   UNL     1     -10.688  -1.682   0.294  0.00  0.00    +0.063 A 
ATOM     18  C   UNL     1     -11.277  -2.813   0.845  0.00  0.00    +0.029 A 
ATOM     19  C   UNL     1      -9.780  -0.411  -1.669  0.00  0.00    +0.046 C 
ENDBRANCH   5  17
ENDBRANCH   1  10
BRANCH   3  20
ATOM     20  N   UNL     1      -5.143   1.344   1.069  0.00  0.00    -0.234 N 
ATOM     21  C   UNL     1      -4.318   1.035   0.049  0.00  0.00    +0.235 C 
ATOM     22  O   UNL     1      -4.714   0.337  -0.861  0.00  0.00    -0.274 OA
ATOM     23  H   UNL     1      -4.784   1.976   1.894  0.00  0.00    +0.173 HD
BRANCH  21  24
ATOM     24  C   UNL     1      -2.904   1.556   0.038  0.00  0.00    +0.049 C 
ATOM     25  C   UNL     1      -2.188   1.063  -1.221  0.00  0.00    +0.019 C 
ATOM     26  C   UNL     1      -0.753   1.593  -1.232  0.00  0.00    -0.009 C 
ATOM     27  C   UNL     1      -0.013   1.086   0.008  0.00  0.00    +0.007 C 
ATOM     28  C   UNL     1      -0.729   1.579   1.267  0.00  0.00    -0.009 C 
ATOM     29  C   UNL     1      -2.164   1.050   1.278  0.00  0.00    +0.019 C 
ATOM     30  C   UNL     1      -0.750   3.109   1.275  0.00  0.00    +0.007 C 
ATOM     31  C   UNL     1      -1.490   3.616   0.036  0.00  0.00    -0.009 C 
ATOM     32  C   UNL     1      -0.773   3.123  -1.223  0.00  0.00    +0.007 C 
ATOM     33  C   UNL     1      -2.925   3.086   0.047  0.00  0.00    +0.019 C 
ENDBRANCH  21  24
ENDBRANCH   3  20
TORSDOF 4
