REMARK  Name = ZINC66717139
REMARK  11 active torsions:
REMARK  status: ('A' for Active; 'I' for Inactive)
REMARK    1  A    between atoms: C_1  and  C_2
REMARK    2  A    between atoms: C_5  and  C_9
REMARK    3  A    between atoms: C_6  and  C_8
REMARK    4  A    between atoms: C_9  and  C_10
REMARK    5  A    between atoms: C_10  and  C_12
REMARK    6  A    between atoms: C_10  and  N_13
REMARK    7  A    between atoms: N_16  and  N_17
REMARK    8  A    between atoms: C_18  and  C_20
REMARK    9  A    between atoms: N_22  and  C_23
REMARK   10  A    between atoms: C_26  and  C_30
REMARK   11  A    between atoms: C_27  and  C_29
REMARK                            x       y       z     vdW  Elec       q    Type
REMARK                         _______ _______ _______ _____ _____    ______ ____
ROOT
ATOM      1  N   UNL     1      -2.479  -4.333   2.417  0.00  0.00    -0.295 N 
ATOM      2  C   UNL     1      -3.798  -4.065   2.495  0.00  0.00    +0.316 C 
ATOM      3  O   UNL     1      -4.543  -4.411   1.598  0.00  0.00    -0.251 OA
ATOM      4  N   UNL     1      -4.292  -3.415   3.567  0.00  0.00    -0.218 N 
ATOM      5  H   UNL     1      -1.885  -4.057   3.132  0.00  0.00    +0.151 HD
ATOM      6  H   UNL     1      -5.241  -3.222   3.624  0.00  0.00    +0.174 HD
ENDROOT
BRANCH   4   7
ATOM      7  N   UNL     1      -3.434  -3.017   4.601  0.00  0.00    -0.225 N 
ATOM      8  C   UNL     1      -3.927  -2.366   5.673  0.00  0.00    +0.315 C 
ATOM      9  O   UNL     1      -5.114  -2.125   5.744  0.00  0.00    -0.264 OA
ATOM     10  H   UNL     1      -2.485  -3.209   4.545  0.00  0.00    +0.173 HD
BRANCH   8  11
ATOM     11  C   UNL     1      -3.012  -1.941   6.775  0.00  0.00    +0.305 C 
ATOM     12  O   UNL     1      -1.825  -2.182   6.705  0.00  0.00    -0.265 OA
ATOM     13  N   UNL     1      -3.506  -1.291   7.847  0.00  0.00    -0.278 N 
ATOM     14  H   UNL     1      -4.463  -1.161   7.938  0.00  0.00    +0.155 HD
BRANCH  13  15
ATOM     15  C   UNL     1      -2.639  -0.804   8.829  0.00  0.00    +0.034 A 
ATOM     16  C   UNL     1      -3.030  -0.795  10.162  0.00  0.00    +0.023 A 
ATOM     17  C   UNL     1      -2.171  -0.314  11.129  0.00  0.00    +0.005 A 
ATOM     18  C   UNL     1      -0.921   0.160  10.773  0.00  0.00    -0.047 A 
ATOM     19  C   UNL     1      -0.528   0.153   9.447  0.00  0.00    -0.046 A 
ATOM     20  C   UNL     1      -1.381  -0.332   8.475  0.00  0.00    +0.027 A 
ATOM     21  C   UNL     1       0.834   0.670   9.063  0.00  0.00    +0.044 C 
ATOM     22  C   UNL     1       0.014   0.685  11.831  0.00  0.00    +0.044 C 
ENDBRANCH  13  15
ENDBRANCH   8  11
ENDBRANCH   4   7
BRANCH   1  23
ATOM     23  C   UNL     1      -1.943  -5.040   1.251  0.00  0.00    +0.076 C 
ATOM     24  C   UNL     1      -2.084  -6.549   1.461  0.00  0.00    +0.028 C 
BRANCH  23  25
ATOM     25  C   UNL     1      -0.465  -4.686   1.075  0.00  0.00    +0.057 C 
BRANCH  25  30
ATOM     26  C   UNL     1       0.037   0.939  -0.150  0.00  0.00    +0.044 C 
ATOM     27  C   UNL     1      -0.094  -0.527   0.169  0.00  0.00    -0.050 A 
ATOM     28  C   UNL     1       0.144  -0.979   1.454  0.00  0.00    +0.003 A 
ATOM     29  C   UNL     1       0.024  -2.324   1.747  0.00  0.00    +0.004 A 
ATOM     30  C   UNL     1      -0.335  -3.219   0.756  0.00  0.00    -0.043 A 
ATOM     31  C   UNL     1      -0.574  -2.767  -0.528  0.00  0.00    -0.047 A 
ATOM     32  C   UNL     1      -0.458  -1.421  -0.821  0.00  0.00    +0.007 A 
ATOM     33  C   UNL     1      -0.965  -3.742  -1.609  0.00  0.00    +0.044 C 
ENDBRANCH  25  30
ENDBRANCH  23  25
ENDBRANCH   1  23
TORSDOF 6
