REMARK  Name = ZINC63270485
REMARK  7 active torsions:
REMARK  status: ('A' for Active; 'I' for Inactive)
REMARK    1  A    between atoms: C_1  and  O_2
REMARK    2  A    between atoms: O_2  and  C_3
REMARK    3  A    between atoms: C_3  and  C_4
REMARK    4  A    between atoms: C_4  and  C_5
REMARK    5  A    between atoms: C_5  and  N_6
REMARK    6  A    between atoms: C_11  and  C_28
REMARK    7  A    between atoms: C_28  and  C_29
REMARK                            x       y       z     vdW  Elec       q    Type
REMARK                         _______ _______ _______ _____ _____    ______ ____
ROOT
ATOM      1  N   UNL     1       1.272  -4.165  -2.169  0.00  0.00    -0.241 N 
ATOM      2  C   UNL     1       2.231  -4.876  -1.565  0.00  0.00    +0.227 C 
ATOM      3  O   UNL     1       3.220  -4.413  -1.039  0.00  0.00    -0.275 OA
ATOM      4  C   UNL     1       1.888  -6.346  -1.639  0.00  0.00    +0.107 C 
ATOM      5  C   UNL     1       2.905  -7.062  -2.552  0.00  0.00    +0.072 C 
ATOM      6  N   UNL     1       2.355  -6.915  -3.926  0.00  0.00    -0.295 NA
ATOM      7  C   UNL     1       0.899  -7.072  -3.752  0.00  0.00    +0.136 C 
ATOM      8  C   UNL     1       0.545  -6.362  -2.421  0.00  0.00    +0.122 C 
ATOM      9  C   UNL     1       0.274  -4.896  -2.676  0.00  0.00    +0.228 C 
ATOM     10  O   UNL     1      -0.696  -4.454  -3.254  0.00  0.00    -0.275 OA
ATOM     11  C   UNL     1       0.501  -8.520  -3.721  0.00  0.00    +0.003 A 
ATOM     12  C   UNL     1       0.843  -9.581  -2.913  0.00  0.00    +0.008 A 
ATOM     13  C   UNL     1       0.294 -10.830  -3.140  0.00  0.00    +0.000 A 
ATOM     14  C   UNL     1      -0.598 -11.011  -4.181  0.00  0.00    +0.002 A 
ATOM     15  C   UNL     1      -0.943  -9.951  -4.994  0.00  0.00    +0.023 A 
ATOM     16  C   UNL     1      -0.396  -8.690  -4.772  0.00  0.00    +0.039 A 
ATOM     17  N   UNL     1      -0.585  -7.481  -5.445  0.00  0.00    -0.283 N 
ATOM     18  C   UNL     1       0.141  -6.481  -4.909  0.00  0.00    +0.243 C 
ATOM     19  O   UNL     1       0.175  -5.329  -5.285  0.00  0.00    -0.273 OA
ATOM     20  H   UNL     1       2.578  -6.008  -4.309  0.00  0.00    +0.124 HD
ATOM     21  H   UNL     1      -1.171  -7.374  -6.211  0.00  0.00    +0.155 HD
ENDROOT
BRANCH   1  22
ATOM     22  C   UNL     1       1.309  -2.703  -2.261  0.00  0.00    +0.118 C 
BRANCH  22  23
ATOM     23  C   UNL     1       0.613  -2.097  -1.041  0.00  0.00    +0.047 C 
BRANCH  23  24
ATOM     24  C   UNL     1       0.652  -0.570  -1.138  0.00  0.00    +0.161 C 
BRANCH  24  26
ATOM     25  C   UNL     1      -0.017   1.425   0.010  0.00  0.00    +0.193 C 
ATOM     26  O   UNL     1       0.002  -0.004   0.002  0.00  0.00    -0.383 OA
ENDBRANCH  24  26
ENDBRANCH  23  24
ENDBRANCH  22  23
ENDBRANCH   1  22
BRANCH   5  27
ATOM     27  C   UNL     1       4.276  -6.392  -2.450  0.00  0.00    +0.052 C 
BRANCH  27  28
ATOM     28  C   UNL     1       5.281  -7.179  -3.251  0.00  0.00    -0.040 C 
ATOM     29  C   UNL     1       5.668  -6.943  -4.526  0.00  0.00    -0.001 A 
ATOM     30  C   UNL     1       5.284  -5.924  -5.510  0.00  0.00    +0.010 A 
ATOM     31  C   UNL     1       5.857  -5.946  -6.735  0.00  0.00    +0.001 A 
ATOM     32  C   UNL     1       6.806  -6.915  -7.087  0.00  0.00    +0.002 A 
ATOM     33  C   UNL     1       7.210  -7.883  -6.238  0.00  0.00    +0.026 A 
ATOM     34  C   UNL     1       6.673  -7.955  -4.923  0.00  0.00    +0.043 A 
ATOM     35  N   UNL     1       6.899  -8.784  -3.932  0.00  0.00    -0.380 N 
ATOM     36  C   UNL     1       6.065  -8.387  -2.792  0.00  0.00    +0.144 C 
ATOM     37  H   UNL     1       7.516  -9.532  -3.949  0.00  0.00    +0.160 HD
ENDBRANCH  27  28
ENDBRANCH   5  27
TORSDOF 6
