REMARK  Name = ZINC01410725
REMARK  4 active torsions:
REMARK  status: ('A' for Active; 'I' for Inactive)
REMARK    1  A    between atoms: C_1  and  O_2
REMARK    2  A    between atoms: O_2  and  C_3
REMARK    3  A    between atoms: C_4  and  C_11
REMARK    4  A    between atoms: N_12  and  N_13
REMARK                            x       y       z     vdW  Elec       q    Type
REMARK                         _______ _______ _______ _____ _____    ______ ____
ROOT
ATOM      1  C   UNL     1      -1.158  -0.628   2.502  0.00  0.00    +0.144 C 
ATOM      2  N   UNL     1      -0.009  -0.024   2.502  0.00  0.00    -0.179 NA
ENDROOT
BRANCH   2   3
ATOM      3  N   UNL     1       0.614   0.298   3.715  0.00  0.00    -0.249 N 
ATOM      4  C   UNL     1       1.826   0.936   3.714  0.00  0.00    +0.187 C 
ATOM      5  N   UNL     1       2.418   1.242   4.867  0.00  0.00    -0.370 N 
ATOM      6  N   UNL     1       2.412   1.251   2.559  0.00  0.00    -0.370 N 
ATOM      7  H   UNL     1       0.187   0.069   4.555  0.00  0.00    +0.192 HD
ATOM      8  H   UNL     1       1.991   1.013   5.708  0.00  0.00    +0.159 HD
ATOM      9  H   UNL     1       1.981   1.028   1.720  0.00  0.00    +0.159 HD
ATOM     10  H   UNL     1       3.271   1.703   2.559  0.00  0.00    +0.159 HD
ATOM     11  H   UNL     1       3.277   1.694   4.867  0.00  0.00    +0.159 HD
ENDBRANCH   2   3
BRANCH   1  13
ATOM     12  C   UNL     1      -1.200  -0.637   0.010  0.00  0.00    +0.143 A 
ATOM     13  C   UNL     1      -1.813  -0.967   1.226  0.00  0.00    +0.039 A 
ATOM     14  C   UNL     1      -3.049  -1.617   1.223  0.00  0.00    +0.028 A 
ATOM     15  C   UNL     1      -3.657  -1.932   0.025  0.00  0.00    +0.020 A 
ATOM     16  C   UNL     1      -3.048  -1.605  -1.175  0.00  0.00    +0.034 A 
ATOM     17  C   UNL     1      -1.827  -0.955  -1.184  0.00  0.00    +0.061 A 
ATOM     18 BR   UNL     1      -1.008  -0.506  -2.829  0.00  0.00    -0.046 Br
ATOM     19 BR   UNL     1      -5.330  -2.814   0.021  0.00  0.00    -0.050 Br
BRANCH  12  21
ATOM     20  C   UNL     1      -0.017   1.425   0.010  0.00  0.00    +0.277 C 
ATOM     21  O   UNL     1       0.002  -0.004   0.002  0.00  0.00    -0.493 OA
ENDBRANCH  12  21
ENDBRANCH   1  13
TORSDOF 3
