REMARK  Name = ZINC15685975
REMARK  6 active torsions:
REMARK  status: ('A' for Active; 'I' for Inactive)
REMARK    1  A    between atoms: C_4  and  N_7
REMARK    2  A    between atoms: C_9  and  C_27
REMARK    3  A    between atoms: C_10  and  C_12
REMARK    4  A    between atoms: N_28  and  N_29
REMARK    5  A    between atoms: N_29  and  C_30
REMARK    6  A    between atoms: C_30  and  N_32
REMARK                            x       y       z     vdW  Elec       q    Type
REMARK                         _______ _______ _______ _____ _____    ______ ____
ROOT
ATOM      1  N   UNL     1      -4.546   0.501  -0.017  0.00  0.00    -0.239 N 
ATOM      2  C   UNL     1      -3.646  -0.500  -0.107  0.00  0.00    +0.124 A 
ATOM      3  C   UNL     1      -2.396   0.054  -0.135  0.00  0.00    +0.041 A 
ATOM      4  C   UNL     1      -2.580   1.507  -0.064  0.00  0.00    +0.109 A 
ATOM      5  N   UNL     1      -3.876   1.728   0.005  0.00  0.00    -0.165 NA
ENDROOT
BRANCH   4   6
ATOM      6  C   UNL     1      -1.512   2.530  -0.069  0.00  0.00    +0.088 A 
ATOM      7  C   UNL     1      -0.482   2.471  -0.990  0.00  0.00    +0.029 A 
ATOM      8  C   UNL     1       0.516   3.469  -0.958  0.00  0.00    +0.026 A 
ATOM      9  C   UNL     1       1.624   3.445  -1.915  0.00  0.00    -0.007 A 
ATOM     10  C   UNL     1       1.732   2.444  -2.884  0.00  0.00    +0.009 A 
ATOM     11  C   UNL     1       2.781   2.460  -3.756  0.00  0.00    +0.001 A 
ATOM     12  C   UNL     1       3.746   3.461  -3.694  0.00  0.00    +0.001 A 
ATOM     13  C   UNL     1       3.669   4.451  -2.761  0.00  0.00    +0.008 A 
ATOM     14  C   UNL     1       2.603   4.464  -1.848  0.00  0.00    -0.017 A 
ATOM     15  C   UNL     1       2.489   5.471  -0.870  0.00  0.00    +0.012 A 
ATOM     16  C   UNL     1       1.457   5.480   0.010  0.00  0.00    +0.047 A 
ATOM     17  C   UNL     1       0.460   4.497  -0.010  0.00  0.00    +0.140 A 
ATOM     18  O   UNL     1      -0.548   4.550   0.887  0.00  0.00    -0.422 OA
ATOM     19  C   UNL     1      -1.526   3.631   0.899  0.00  0.00    +0.347 A 
ATOM     20  O   UNL     1      -2.424   3.709   1.717  0.00  0.00    -0.244 OA
ENDBRANCH   4   6
BRANCH   1  24
ATOM     21  C   UNL     1      -8.681   0.012   0.151  0.00  0.00    +0.000 A 
ATOM     22  C   UNL     1      -8.134   1.282   0.181  0.00  0.00    +0.002 A 
ATOM     23  C   UNL     1      -6.764   1.447   0.126  0.00  0.00    +0.028 A 
ATOM     24  C   UNL     1      -5.935   0.337   0.039  0.00  0.00    +0.065 A 
ATOM     25  C   UNL     1      -6.487  -0.937   0.004  0.00  0.00    +0.028 A 
ATOM     26  C   UNL     1      -7.858  -1.096   0.066  0.00  0.00    +0.002 A 
ENDBRANCH   1  24
BRANCH   3  27
ATOM     27  C   UNL     1      -1.114  -0.668  -0.224  0.00  0.00    +0.142 C 
ATOM     28  N   UNL     1      -1.040  -1.908   0.152  0.00  0.00    -0.188 NA
BRANCH  28  29
ATOM     29  N   UNL     1      -2.117  -2.502   0.822  0.00  0.00    -0.219 N 
ATOM     30  H   UNL     1      -2.885  -1.967   1.076  0.00  0.00    +0.176 HD
BRANCH  29  31
ATOM     31  C   UNL     1      -2.084  -3.816   1.119  0.00  0.00    +0.147 C 
ATOM     32  S   UNL     1      -3.451  -4.570   1.822  0.00  0.00    -0.017 S 
BRANCH  31  33
ATOM     33  N   UNL     1      -0.974  -4.537   0.863  0.00  0.00    -0.339 N 
ATOM     34  H   UNL     1      -0.200  -4.110   0.464  0.00  0.00    +0.144 HD
ATOM     35  H   UNL     1      -0.950  -5.483   1.077  0.00  0.00    +0.144 HD
ENDBRANCH  31  33
ENDBRANCH  29  31
ENDBRANCH  28  29
ENDBRANCH   3  27
TORSDOF 6
