REMARK  Name = ZINC08569127
REMARK  10 active torsions:
REMARK  status: ('A' for Active; 'I' for Inactive)
REMARK    1  A    between atoms: C_1  and  C_2
REMARK    2  A    between atoms: C_2  and  O_3
REMARK    3  A    between atoms: O_3  and  C_4
REMARK    4  A    between atoms: C_4  and  C_6
REMARK    5  A    between atoms: C_6  and  O_7
REMARK    6  A    between atoms: O_7  and  C_8
REMARK    7  A    between atoms: C_13  and  C_14
REMARK    8  A    between atoms: C_17  and  C_28
REMARK    9  A    between atoms: C_23  and  N_27
REMARK   10  A    between atoms: C_24  and  C_25
REMARK                            x       y       z     vdW  Elec       q    Type
REMARK                         _______ _______ _______ _____ _____    ______ ____
ROOT
ATOM      1  C   UNL     1       1.238  -2.186  -0.021  0.00  0.00    +0.105 C 
ATOM      2  C   UNL     1       1.972  -2.676  -1.243  0.00  0.00    +0.049 A 
ATOM      3  C   UNL     1       1.592  -2.669  -2.530  0.00  0.00    +0.041 A 
ATOM      4  N   UNL     1       2.594  -3.217  -3.256  0.00  0.00    -0.278 N 
ATOM      5  H   UNL     1       2.598  -3.345  -4.248  0.00  0.00    +0.189 HD
ATOM      6  N   UNL     1       3.626  -3.574  -2.374  0.00  0.00    -0.135 NA
ATOM      7  C   UNL     1       3.258  -3.254  -1.168  0.00  0.00    +0.245 A 
ATOM      8  O   UNL     1       3.913  -3.404   0.014  0.00  0.00    -0.421 OA
ATOM      9  C   UNL     1       3.199  -3.238   1.145  0.00  0.00    +0.201 C 
ATOM     10  C   UNL     1       1.968  -2.689   1.199  0.00  0.00    +0.098 C 
ATOM     11  C   UNL     1       0.287  -2.144  -3.069  0.00  0.00    +0.065 C 
ENDROOT
BRANCH   1  17
ATOM     12  C   UNL     1       0.002  -0.004   0.002  0.00  0.00    +0.125 A 
ATOM     13  C   UNL     1      -0.017   1.383   0.010  0.00  0.00    +0.046 A 
ATOM     14  C   UNL     1       1.171   2.089   0.002  0.00  0.00    +0.004 A 
ATOM     15  C   UNL     1       2.377   1.414  -0.013  0.00  0.00    +0.001 A 
ATOM     16  C   UNL     1       2.399   0.032  -0.021  0.00  0.00    +0.008 A 
ATOM     17  C   UNL     1       1.214  -0.679  -0.013  0.00  0.00    +0.007 A 
BRANCH  12  18
ATOM     18  O   UNL     1      -1.165  -0.701   0.010  0.00  0.00    -0.480 OA
BRANCH  18  19
ATOM     19  C   UNL     1      -2.374   0.060   0.026  0.00  0.00    +0.349 C 
BRANCH  19  20
ATOM     20  C   UNL     1      -3.556  -0.875   0.033  0.00  0.00    +0.345 C 
ATOM     21  O   UNL     1      -3.380  -2.071   0.025  0.00  0.00    -0.247 OA
BRANCH  20  22
ATOM     22  O   UNL     1      -4.804  -0.380   0.048  0.00  0.00    -0.463 OA
BRANCH  22  24
ATOM     23  C   UNL     1      -7.229  -0.594   0.071  0.00  0.00    +0.048 C 
ATOM     24  C   UNL     1      -5.893  -1.340   0.053  0.00  0.00    +0.229 C 
ENDBRANCH  22  24
ENDBRANCH  20  22
ENDBRANCH  19  20
ENDBRANCH  18  19
ENDBRANCH  12  18
ENDBRANCH   1  17
BRANCH   9  25
ATOM     25  N   UNL     1       3.764  -3.655   2.324  0.00  0.00    -0.328 N 
ATOM     26  H   UNL     1       3.279  -3.551   3.158  0.00  0.00    +0.145 HD
ATOM     27  H   UNL     1       4.649  -4.054   2.324  0.00  0.00    +0.145 HD
ENDBRANCH   9  25
BRANCH  10  28
ATOM     28  C   UNL     1       1.324  -2.580   2.473  0.00  0.00    +0.101 C 
ATOM     29  N   UNL     1       0.813  -2.494   3.484  0.00  0.00    -0.191 NA
ENDBRANCH  10  28
TORSDOF 8
