REMARK  Name = ZINC09233277
REMARK  3 active torsions:
REMARK  status: ('A' for Active; 'I' for Inactive)
REMARK    1  A    between atoms: C_1  and  S_2
REMARK    2  A    between atoms: S_2  and  N_5
REMARK    3  A    between atoms: C_15  and  C_17
REMARK                            x       y       z     vdW  Elec       q    Type
REMARK                         _______ _______ _______ _____ _____    ______ ____
ROOT
ATOM      1  N   UNL     1      -1.206  -5.122   1.176  0.00  0.00    -0.181 NA
ATOM      2  C   UNL     1      -1.298  -3.872   1.942  0.00  0.00    +0.114 C 
ATOM      3  C   UNL     1      -0.032  -3.046   1.691  0.00  0.00    +0.087 C 
ATOM      4  C   UNL     1       0.159  -2.856   0.188  0.00  0.00    +0.195 C 
ATOM      5  C   UNL     1       0.320  -4.212  -0.496  0.00  0.00    +0.087 C 
ATOM      6  C   UNL     1      -0.942  -5.050  -0.268  0.00  0.00    +0.114 C 
ATOM      7  N   UNL     1      -0.994  -2.146  -0.376  0.00  0.00    -0.206 N 
ATOM      8  C   UNL     1      -1.302  -0.757   0.034  0.00  0.00    +0.136 C 
ATOM      9  C   UNL     1      -2.273  -0.268  -1.049  0.00  0.00    +0.086 C 
ATOM     10  C   UNL     1      -2.623  -1.528  -1.813  0.00  0.00    +0.069 C 
ATOM     11  N   UNL     1      -1.894  -2.508  -1.387  0.00  0.00    -0.185 NA
ATOM     12  C   UNL     1       0.002  -0.004   0.002  0.00  0.00    +0.018 A 
ATOM     13  C   UNL     1      -0.017   1.378   0.010  0.00  0.00    +0.024 A 
ATOM     14  C   UNL     1       1.167   2.093   0.002  0.00  0.00    +0.018 A 
ATOM     15  C   UNL     1       2.374   1.418  -0.006  0.00  0.00    +0.019 A 
ATOM     16  C   UNL     1       2.397   0.040  -0.016  0.00  0.00    +0.047 A 
ATOM     17  C   UNL     1       1.208  -0.689  -0.020  0.00  0.00    +0.129 A 
ATOM     18  O   UNL     1       1.307  -2.043  -0.062  0.00  0.00    -0.467 OA
ATOM     19 BR   UNL     1       1.135   3.983   0.004  0.00  0.00    -0.050 Br
ENDROOT
BRANCH  10  20
ATOM     20  C   UNL     1      -3.638  -1.624  -2.878  0.00  0.00    +0.001 A 
ATOM     21  C   UNL     1      -4.383  -0.502  -3.266  0.00  0.00    +0.029 A 
ATOM     22  C   UNL     1      -5.319  -0.636  -4.270  0.00  0.00    +0.111 A 
ATOM     23  N   UNL     1      -5.523  -1.801  -4.855  0.00  0.00    -0.263 NA
ATOM     24  C   UNL     1      -4.847  -2.884  -4.517  0.00  0.00    +0.111 A 
ATOM     25  C   UNL     1      -3.889  -2.840  -3.527  0.00  0.00    +0.029 A 
ENDBRANCH  10  20
BRANCH   1  27
ATOM     26  C   UNL     1      -3.171  -6.936   1.827  0.00  0.00    +0.215 C 
ATOM     27  S   UNL     1      -1.394  -6.587   1.926  0.00  0.00    +0.029 S 
ATOM     28  O   UNL     1      -0.669  -7.504   1.119  0.00  0.00    -0.158 OA
ATOM     29  O   UNL     1      -1.016  -6.354   3.276  0.00  0.00    -0.158 OA
ENDBRANCH   1  27
TORSDOF 2
