REMARK  Name = ZINC13060151
REMARK  6 active torsions:
REMARK  status: ('A' for Active; 'I' for Inactive)
REMARK    1  A    between atoms: C_1  and  C_2
REMARK    2  A    between atoms: N_7  and  C_8
REMARK    3  A    between atoms: C_8  and  C_10
REMARK    4  A    between atoms: C_8  and  C_17
REMARK    5  A    between atoms: C_15  and  O_16
REMARK    6  A    between atoms: C_26  and  O_27
REMARK                            x       y       z     vdW  Elec       q    Type
REMARK                         _______ _______ _______ _____ _____    ______ ____
ROOT
ATOM      1  C   UNL     1       1.157   3.606   0.007  0.00  0.00    +0.139 C 
ENDROOT
BRANCH   1   8
ATOM      2  C   UNL     1       0.059   3.267  -4.987  0.00  0.00    +0.044 C 
ATOM      3  C   UNL     1       1.216   3.802  -4.183  0.00  0.00    -0.046 A 
ATOM      4  C   UNL     1       2.317   4.367  -4.814  0.00  0.00    +0.021 A 
ATOM      5  C   UNL     1       3.360   4.849  -4.049  0.00  0.00    +0.084 A 
ATOM      6  C   UNL     1       2.292   4.247  -2.094  0.00  0.00    +0.097 A 
ATOM      7  C   UNL     1       1.206   3.742  -2.802  0.00  0.00    +0.045 A 
ATOM      8  N   UNL     1       2.295   4.192  -0.705  0.00  0.00    -0.319 N 
ATOM      9  H   UNL     1       3.050   4.543  -0.208  0.00  0.00    +0.148 HD
ATOM     10  N   UNL     1       3.381   4.812  -2.690  0.00  0.00    -0.350 N 
ATOM     11  H   UNL     1       4.168   5.185  -2.146  0.00  0.00    +0.166 HD
ENDBRANCH   1   8
BRANCH   1  12
ATOM     12  C   UNL     1       1.095   4.169   1.404  0.00  0.00    +0.021 A 
ATOM     13  C   UNL     1       1.527   3.393   2.476  0.00  0.00    +0.010 A 
ATOM     14  C   UNL     1       1.484   3.873   3.750  0.00  0.00    +0.010 A 
ATOM     15  C   UNL     1       0.997   5.168   3.990  0.00  0.00    +0.004 A 
ATOM     16  C   UNL     1       0.937   5.698   5.293  0.00  0.00    +0.011 A 
ATOM     17  C   UNL     1       0.452   6.965   5.451  0.00  0.00    +0.020 A 
ATOM     18  C   UNL     1       0.034   7.693   4.340  0.00  0.00    +0.111 A 
ATOM     19  N   UNL     1       0.091   7.196   3.128  0.00  0.00    -0.251 NA
ATOM     20  C   UNL     1       0.555   5.963   2.904  0.00  0.00    +0.113 A 
ATOM     21  C   UNL     1       0.620   5.435   1.598  0.00  0.00    +0.148 A 
BRANCH  21  22
ATOM     22  O   UNL     1       0.208   6.179   0.539  0.00  0.00    -0.504 OA
ATOM     23  H   UNL     1      -0.744   6.133   0.373  0.00  0.00    +0.292 HD
ENDBRANCH  21  22
ENDBRANCH   1  12
BRANCH   1  24
ATOM     24  C   UNL     1       1.325   2.110   0.076  0.00  0.00    +0.019 A 
ATOM     25  C   UNL     1       2.587   1.552   0.016  0.00  0.00    +0.009 A 
ATOM     26  C   UNL     1       2.741   0.179   0.078  0.00  0.00    +0.001 A 
ATOM     27  C   UNL     1       1.633  -0.638   0.201  0.00  0.00    +0.004 A 
ATOM     28  C   UNL     1       0.369  -0.085   0.262  0.00  0.00    +0.046 A 
ATOM     29  C   UNL     1       0.211   1.292   0.200  0.00  0.00    +0.122 A 
BRANCH  29  30
ATOM     30  O   UNL     1      -1.032   1.838   0.254  0.00  0.00    -0.506 OA
ATOM     31  H   UNL     1      -1.364   1.971   1.152  0.00  0.00    +0.292 HD
ENDBRANCH  29  30
ENDBRANCH   1  24
TORSDOF 5
