REMARK  Name = ZINC02856023
REMARK  4 active torsions:
REMARK  status: ('A' for Active; 'I' for Inactive)
REMARK    1  A    between atoms: C_3  and  N_10
REMARK    2  A    between atoms: C_5  and  N_7
REMARK    3  A    between atoms: N_13  and  N_14
REMARK    4  A    between atoms: C_15  and  C_17
REMARK                            x       y       z     vdW  Elec       q    Type
REMARK                         _______ _______ _______ _____ _____    ______ ____
ROOT
ATOM      1  N   UNL     1      -0.069   5.242   0.031  0.00  0.00    -0.268 N 
ATOM      2  C   UNL     1       1.085   5.931   0.126  0.00  0.00    +0.320 C 
ATOM      3  O   UNL     1       2.148   5.341   0.113  0.00  0.00    -0.251 OA
ATOM      4  N   UNL     1       1.061   7.274   0.236  0.00  0.00    -0.218 N 
ATOM      5  H   UNL     1      -0.913   5.716  -0.036  0.00  0.00    +0.156 HD
ATOM      6  H   UNL     1       1.892   7.770   0.304  0.00  0.00    +0.174 HD
ENDROOT
BRANCH   1   9
ATOM      7  C   UNL     1       0.922   1.777   0.765  0.00  0.00    +0.004 A 
ATOM      8  C   UNL     1       0.906   3.159   0.768  0.00  0.00    +0.023 A 
ATOM      9  C   UNL     1      -0.051   3.842   0.030  0.00  0.00    +0.037 A 
ATOM     10  C   UNL     1      -0.990   3.135  -0.709  0.00  0.00    +0.056 A 
ATOM     11  C   UNL     1      -0.966   1.754  -0.712  0.00  0.00    +0.128 A 
ATOM     12  C   UNL     1      -0.015   1.076   0.029  0.00  0.00    +0.033 A 
BRANCH  11  13
ATOM     13  N   UNL     1      -1.963   0.999  -1.504  0.00  0.00    +0.056 N 
ATOM     14  O   UNL     1      -1.945  -0.219  -1.503  0.00  0.00    -0.126 OA
ATOM     15  O   UNL     1      -2.801   1.595  -2.156  0.00  0.00    -0.126 OA
ENDBRANCH  11  13
ENDBRANCH   1   9
BRANCH   4  16
ATOM     16  N   UNL     1      -0.164   7.954   0.251  0.00  0.00    -0.229 N 
ATOM     17  C   UNL     1      -0.187   9.297   0.360  0.00  0.00    +0.267 C 
ATOM     18  O   UNL     1       0.855   9.919   0.446  0.00  0.00    -0.268 OA
ATOM     19  H   UNL     1      -0.994   7.458   0.182  0.00  0.00    +0.173 HD
BRANCH  17  20
ATOM     20  C   UNL     1      -1.468  10.008   0.376  0.00  0.00    +0.076 A 
ATOM     21  C   UNL     1      -1.711  11.369   0.480  0.00  0.00    +0.022 A 
ATOM     22  C   UNL     1      -3.022  11.773   0.469  0.00  0.00    +0.024 A 
ATOM     23  C   UNL     1      -4.004  10.837   0.359  0.00  0.00    +0.056 A 
ATOM     24  S   UNL     1      -3.122   9.348   0.259  0.00  0.00    -0.077 S 
ATOM     25 BR   UNL     1      -5.876  11.099   0.317  0.00  0.00    -0.043 Br
ENDBRANCH  17  20
ENDBRANCH   4  16
TORSDOF 4
