REMARK  Name = ZINC35306482
REMARK  4 active torsions:
REMARK  status: ('A' for Active; 'I' for Inactive)
REMARK    1  A    between atoms: C_3  and  S_9
REMARK    2  A    between atoms: S_9  and  N_12
REMARK    3  A    between atoms: N_12  and  C_13
REMARK    4  A    between atoms: C_17  and  C_18
REMARK                            x       y       z     vdW  Elec       q    Type
REMARK                         _______ _______ _______ _____ _____    ______ ____
ROOT
ATOM      1  S   UNL     1       3.819   2.138  -0.004  0.00  0.00    +0.074 S 
ATOM      2  O   UNL     1       4.752   1.698  -0.980  0.00  0.00    -0.150 OA
ATOM      3  O   UNL     1       3.175   3.403  -0.081  0.00  0.00    -0.150 OA
ENDROOT
BRANCH   1   6
ATOM      4  C   UNL     1       0.215   0.362   0.015  0.00  0.00    +0.017 A 
ATOM      5  C   UNL     1       1.218   1.313  -0.030  0.00  0.00    +0.031 A 
ATOM      6  C   UNL     1       2.542   0.926   0.055  0.00  0.00    +0.127 A 
ATOM      7  C   UNL     1       2.864  -0.413   0.186  0.00  0.00    +0.069 A 
ATOM      8  C   UNL     1       1.862  -1.365   0.232  0.00  0.00    +0.037 A 
ATOM      9  C   UNL     1       0.537  -0.977   0.146  0.00  0.00    +0.019 A 
ATOM     10 BR   UNL     1      -0.835  -2.277   0.209  0.00  0.00    -0.050 Br
ATOM     11 CL   UNL     1       4.528  -0.899   0.292  0.00  0.00    -0.081 Cl
ENDBRANCH   1   6
BRANCH   1  12
ATOM     12  N   UNL     1       4.603   2.095   1.454  0.00  0.00    -0.215 N 
ATOM     13  H   UNL     1       5.523   1.791   1.501  0.00  0.00    +0.174 HD
BRANCH  12  14
ATOM     14  C   UNL     1       3.943   2.493   2.610  0.00  0.00    +0.069 A 
ATOM     15  C   UNL     1       2.586   2.309   2.787  0.00  0.00    +0.033 A 
ATOM     16  C   UNL     1       2.010   2.722   3.940  0.00  0.00    +0.048 A 
ATOM     17  S   UNL     1       3.276   3.376   4.831  0.00  0.00    -0.088 S 
ATOM     18  C   UNL     1       4.608   3.104   3.678  0.00  0.00    +0.123 A 
BRANCH  18  19
ATOM     19  C   UNL     1       5.973   3.424   3.808  0.00  0.00    +0.395 C 
ATOM     20  O   UNL     1       6.821   3.138   2.821  0.00  0.00    -0.240 OA
ATOM     21  O   UNL     1       6.417   4.012   4.919  0.00  0.00    -0.240 OA
ENDBRANCH  18  19
ENDBRANCH  12  14
ENDBRANCH   1  12
TORSDOF 4
