REMARK  Name = ZINC51723413
REMARK  6 active torsions:
REMARK  status: ('A' for Active; 'I' for Inactive)
REMARK    1  A    between atoms: C_1  and  C_2
REMARK    2  A    between atoms: C_2  and  C_3
REMARK    3  A    between atoms: C_6  and  C_8
REMARK    4  A    between atoms: C_8  and  N_9
REMARK    5  A    between atoms: N_9  and  C_10
REMARK    6  A    between atoms: C_12  and  N_17
REMARK                            x       y       z     vdW  Elec       q    Type
REMARK                         _______ _______ _______ _____ _____    ______ ____
ROOT
ATOM      1  N   UNL     1      -4.343  -3.085   1.972  0.00  0.00    -0.336 N 
ATOM      2  H   UNL     1      -3.624  -3.605   1.579  0.00  0.00    +0.147 HD
ENDROOT
BRANCH   1   3
ATOM      3  C   UNL     1      -5.265  -3.700   2.822  0.00  0.00    +0.048 A 
ATOM      4  C   UNL     1      -6.298  -2.959   3.382  0.00  0.00    +0.057 A 
ATOM      5  C   UNL     1      -7.209  -3.570   4.222  0.00  0.00    +0.128 A 
ATOM      6  C   UNL     1      -7.093  -4.918   4.507  0.00  0.00    +0.034 A 
ATOM      7  C   UNL     1      -6.066  -5.660   3.952  0.00  0.00    +0.024 A 
ATOM      8  C   UNL     1      -5.155  -5.056   3.106  0.00  0.00    +0.062 A 
ATOM      9 CL   UNL     1      -3.870  -5.989   2.405  0.00  0.00    -0.082 Cl
BRANCH   5  10
ATOM     10  N   UNL     1      -8.309  -2.780   4.818  0.00  0.00    +0.056 N 
ATOM     11  O   UNL     1      -8.411  -1.601   4.570  0.00  0.00    -0.126 OA
ATOM     12  O   UNL     1      -9.107  -3.314   5.553  0.00  0.00    -0.126 OA
ENDBRANCH   5  10
ENDBRANCH   1   3
BRANCH   1  13
ATOM     13  C   UNL     1      -4.461  -1.656   1.674  0.00  0.00    +0.176 C 
BRANCH  13  17
ATOM     14  C   UNL     1      -1.412  -0.526   0.013  0.00  0.00    +0.105 A 
ATOM     15  C   UNL     1      -2.158  -0.797  -1.073  0.00  0.00    +0.045 A 
ATOM     16  C   UNL     1      -3.409  -1.260  -0.604  0.00  0.00    +0.046 A 
ATOM     17  C   UNL     1      -3.352  -1.244   0.740  0.00  0.00    +0.122 A 
ATOM     18  O   UNL     1      -2.138  -0.804   1.108  0.00  0.00    -0.463 OA
BRANCH  14  20
ATOM     19  C   UNL     1      -0.019   1.526   0.010  0.00  0.00    +0.012 C 
ATOM     20  C   UNL     1       0.002  -0.004   0.002  0.00  0.00    +0.071 C 
ENDBRANCH  14  20
ENDBRANCH  13  17
ENDBRANCH   1  13
TORSDOF 5
