REMARK  Name = ZINC01511119
REMARK  6 active torsions:
REMARK  status: ('A' for Active; 'I' for Inactive)
REMARK    1  A    between atoms: C_1  and  C_2
REMARK    2  A    between atoms: C_4  and  O_23
REMARK    3  A    between atoms: C_6  and  O_22
REMARK    4  A    between atoms: C_8  and  O_21
REMARK    5  A    between atoms: C_10  and  N_13
REMARK    6  A    between atoms: N_13  and  C_14
REMARK                            x       y       z     vdW  Elec       q    Type
REMARK                         _______ _______ _______ _____ _____    ______ ____
ROOT
ATOM      1  C   UNL     1      -1.645   0.177   0.355  0.00  0.00    +0.041 C 
ATOM      2  C   UNL     1      -0.139   0.406   0.215  0.00  0.00    +0.149 C 
ATOM      3  C   UNL     1       0.590  -0.263   1.383  0.00  0.00    +0.174 C 
ATOM      4  C   UNL     1       2.091   0.021   1.268  0.00  0.00    +0.178 C 
ATOM      5  C   UNL     1       2.311   1.537   1.237  0.00  0.00    +0.192 C 
ATOM      6  C   UNL     1       1.516   2.137   0.075  0.00  0.00    +0.235 C 
ATOM      7  O   UNL     1       0.133   1.809   0.226  0.00  0.00    -0.351 OA
ENDROOT
BRANCH   6   8
ATOM      8  N   UNL     1       2.012   1.589  -1.190  0.00  0.00    -0.317 N 
ATOM      9  H   UNL     1       2.345   0.679  -1.228  0.00  0.00    +0.149 HD
BRANCH   8  10
ATOM     10  C   UNL     1       2.004   2.378  -2.344  0.00  0.00    +0.029 A 
ATOM     11  C   UNL     1       1.385   3.622  -2.332  0.00  0.00    +0.024 A 
ATOM     12  C   UNL     1       1.385   4.402  -3.472  0.00  0.00    +0.022 A 
ATOM     13  C   UNL     1       1.989   3.941  -4.628  0.00  0.00    +0.041 A 
ATOM     14  C   UNL     1       2.602   2.700  -4.644  0.00  0.00    +0.022 A 
ATOM     15  C   UNL     1       2.610   1.918  -3.506  0.00  0.00    +0.024 A 
ATOM     16 CL   UNL     1       1.980   4.921  -6.061  0.00  0.00    -0.084 Cl
ENDBRANCH   8  10
ENDBRANCH   6   8
BRANCH   5  17
ATOM     17  O   UNL     1       1.866   2.109   2.468  0.00  0.00    -0.385 OA
ATOM     18  H   UNL     1       1.976   3.069   2.518  0.00  0.00    +0.210 HD
ENDBRANCH   5  17
BRANCH   4  19
ATOM     19  O   UNL     1       2.771  -0.538   2.394  0.00  0.00    -0.386 OA
ATOM     20  H   UNL     1       3.727  -0.395   2.387  0.00  0.00    +0.210 HD
ENDBRANCH   4  19
BRANCH   3  21
ATOM     21  O   UNL     1       0.097   0.262   2.617  0.00  0.00    -0.387 OA
ATOM     22  H   UNL     1      -0.850   0.122   2.754  0.00  0.00    +0.210 HD
ENDBRANCH   3  21
TORSDOF 5
