REMARK  Name = ZINC35576302
REMARK  1 active torsions:
REMARK  status: ('A' for Active; 'I' for Inactive)
REMARK    1  A    between atoms: C_4  and  C_7
REMARK                            x       y       z     vdW  Elec       q    Type
REMARK                         _______ _______ _______ _____ _____    ______ ____
ROOT
ATOM      1  C   UNL     1       3.711  -0.707  -0.038  0.00  0.00    +0.091 C 
ATOM      2  C   UNL     1       3.790  -1.566  -1.273  0.00  0.00    +0.042 A 
ATOM      3  C   UNL     1       3.999  -0.945  -2.517  0.00  0.00    +0.126 A 
ATOM      4  N   UNL     1       4.070  -1.681  -3.620  0.00  0.00    -0.208 NA
ATOM      5  H   UNL     1       3.651  -4.602  -2.383  0.00  0.00    +0.169 HD
ATOM      6  C   UNL     1       3.944  -3.004  -3.569  0.00  0.00    +0.180 A 
ATOM      7  S   UNL     1       4.040  -3.916  -5.014  0.00  0.00    -0.011 S 
ATOM      8  N   UNL     1       3.743  -3.637  -2.400  0.00  0.00    -0.322 N 
ATOM      9  C   UNL     1       3.666  -2.923  -1.230  0.00  0.00    +0.110 A 
ATOM     10  N   UNL     1       3.472  -3.607  -0.048  0.00  0.00    -0.300 N 
ATOM     11  C   UNL     1       3.694  -2.944   1.138  0.00  0.00    +0.048 C 
ATOM     12  C   UNL     1       3.816  -1.578   1.187  0.00  0.00    +0.034 C 
ATOM     13  C   UNL     1       4.044  -1.170   2.521  0.00  0.00    +0.193 C 
ATOM     14  O   UNL     1       4.199  -0.028   2.906  0.00  0.00    -0.287 OA
ATOM     15  C   UNL     1       4.059  -2.387   3.362  0.00  0.00    +0.031 A 
ATOM     16  C   UNL     1       3.838  -3.486   2.493  0.00  0.00    +0.007 A 
ATOM     17  C   UNL     1       3.795  -4.782   2.981  0.00  0.00    +0.010 A 
ATOM     18  C   UNL     1       3.977  -4.947   4.357  0.00  0.00    +0.001 A 
ATOM     19  C   UNL     1       4.190  -3.880   5.196  0.00  0.00    +0.001 A 
ATOM     20  C   UNL     1       4.238  -2.566   4.720  0.00  0.00    +0.012 A 
ATOM     21  N   UNL     1       4.131   0.424  -2.591  0.00  0.00    -0.343 N 
ATOM     22  H   UNL     1       3.186  -4.534  -0.053  0.00  0.00    +0.154 HD
ATOM     23  H   UNL     1       4.276   0.852  -3.450  0.00  0.00    +0.144 HD
ATOM     24  H   UNL     1       4.080   0.961  -1.785  0.00  0.00    +0.144 HD
ENDROOT
BRANCH   1  28
ATOM     25  C   UNL     1      -0.017   1.378   0.010  0.00  0.00    +0.000 A 
ATOM     26  C   UNL     1       1.171   2.086   0.002  0.00  0.00    +0.000 A 
ATOM     27  C   UNL     1       2.377   1.411  -0.013  0.00  0.00    +0.004 A 
ATOM     28  C   UNL     1       2.396   0.029  -0.020  0.00  0.00    -0.035 A 
ATOM     29  C   UNL     1       1.208  -0.679  -0.012  0.00  0.00    +0.004 A 
ATOM     30  C   UNL     1       0.002  -0.004   0.002  0.00  0.00    +0.000 A 
ENDBRANCH   1  28
TORSDOF 1
