REMARK  Name = ZINC50389785
REMARK  7 active torsions:
REMARK  status: ('A' for Active; 'I' for Inactive)
REMARK    1  A    between atoms: C_1  and  C_2
REMARK    2  A    between atoms: C_2  and  C_4
REMARK    3  A    between atoms: C_2  and  N_9
REMARK    4  A    between atoms: C_4  and  C_5
REMARK    5  A    between atoms: N_6  and  O_7
REMARK    6  A    between atoms: N_9  and  S_10
REMARK    7  A    between atoms: S_10  and  C_13
REMARK                            x       y       z     vdW  Elec       q    Type
REMARK                         _______ _______ _______ _____ _____    ______ ____
ROOT
ATOM      1  N   UNL     1       0.298   0.004  -2.274  0.00  0.00    -0.187 NA
ATOM      2  H   UNL     1       0.107   0.246  -3.193  0.00  0.00    +0.148 HD
ENDROOT
BRANCH   1   3
ATOM      3  S   UNL     1       1.861  -0.266  -1.797  0.00  0.00    +0.060 S 
ATOM      4  O   UNL     1       2.669  -0.130  -2.958  0.00  0.00    -0.153 OA
ATOM      5  O   UNL     1       2.070   0.515  -0.628  0.00  0.00    -0.153 OA
BRANCH   3   6
ATOM      6  C   UNL     1       1.971  -1.953  -1.302  0.00  0.00    +0.120 A 
ATOM      7  C   UNL     1       2.157  -2.272   0.030  0.00  0.00    +0.045 A 
ATOM      8  C   UNL     1       2.243  -3.597   0.418  0.00  0.00    +0.020 A 
ATOM      9  C   UNL     1       2.143  -4.603  -0.526  0.00  0.00    +0.016 A 
ATOM     10  C   UNL     1       1.957  -4.284  -1.858  0.00  0.00    +0.018 A 
ATOM     11  C   UNL     1       1.866  -2.959  -2.246  0.00  0.00    +0.044 A 
ATOM     12 BR   UNL     1       1.604  -2.523  -4.067  0.00  0.00    -0.048 Br
ATOM     13 BR   UNL     1       2.498  -4.033   2.240  0.00  0.00    -0.050 Br
ENDBRANCH   3   6
ENDBRANCH   1   3
BRANCH   1  15
ATOM     14  C   UNL     1      -0.982   1.205  -0.572  0.00  0.00    +0.026 C 
ATOM     15  C   UNL     1      -0.795  -0.123  -1.307  0.00  0.00    +0.081 C 
BRANCH  15  16
ATOM     16  C   UNL     1      -2.086  -0.486  -2.042  0.00  0.00    +0.094 C 
BRANCH  16  17
ATOM     17  C   UNL     1      -1.946  -1.854  -2.659  0.00  0.00    +0.133 C 
ATOM     18  N   UNL     1      -0.985  -2.634  -2.289  0.00  0.00    -0.077 NA
ATOM     19  N   UNL     1      -2.843  -2.273  -3.616  0.00  0.00    -0.344 N 
ATOM     20  H   UNL     1      -3.565  -1.688  -3.894  0.00  0.00    +0.144 HD
ATOM     21  H   UNL     1      -2.753  -3.154  -4.013  0.00  0.00    +0.144 HD
BRANCH  18  22
ATOM     22  O   UNL     1      -0.930  -3.966  -2.767  0.00  0.00    -0.408 OA
ATOM     23  H   UNL     1      -0.228  -4.498  -2.368  0.00  0.00    +0.328 HD
ENDBRANCH  18  22
ENDBRANCH  16  17
ENDBRANCH  15  16
ENDBRANCH   1  15
TORSDOF 6
