REMARK  Name = ZINC66472569
REMARK  12 active torsions:
REMARK  status: ('A' for Active; 'I' for Inactive)
REMARK    1  A    between atoms: C_1  and  C_2
REMARK    2  A    between atoms: C_2  and  C_3
REMARK    3  A    between atoms: C_3  and  C_25
REMARK    4  A    between atoms: N_6  and  N_10
REMARK    5  A    between atoms: C_11  and  C_13
REMARK    6  A    between atoms: C_13  and  N_14
REMARK    7  A    between atoms: N_14  and  C_15
REMARK    8  A    between atoms: N_14  and  C_22
REMARK    9  A    between atoms: C_15  and  C_16
REMARK   10  A    between atoms: C_17  and  C_21
REMARK   11  A    between atoms: C_22  and  C_23
REMARK   12  A    between atoms: C_22  and  C_24
REMARK                            x       y       z     vdW  Elec       q    Type
REMARK                         _______ _______ _______ _____ _____    ______ ____
ROOT
ATOM      1  N   UNL     1      -1.356  -3.744   3.816  0.00  0.00    -0.225 N 
ATOM      2  C   UNL     1      -0.364  -4.157   4.630  0.00  0.00    +0.213 C 
ATOM      3  O   UNL     1       0.286  -3.345   5.255  0.00  0.00    -0.276 OA
ATOM      4  H   UNL     1      -1.875  -4.393   3.316  0.00  0.00    +0.173 HD
ENDROOT
BRANCH   1   8
ATOM      5  C   UNL     1      -1.801  -0.231   2.927  0.00  0.00    +0.111 C 
ATOM      6  C   UNL     1      -1.302  -1.629   2.622  0.00  0.00    +0.263 C 
ATOM      7  O   UNL     1      -0.721  -1.998   1.624  0.00  0.00    -0.271 OA
ATOM      8  N   UNL     1      -1.637  -2.377   3.692  0.00  0.00    -0.137 N 
ATOM      9  C   UNL     1      -2.271  -1.653   4.621  0.00  0.00    +0.326 C 
ATOM     10  O   UNL     1      -2.672  -2.107   5.675  0.00  0.00    -0.251 OA
ATOM     11  N   UNL     1      -2.417  -0.365   4.258  0.00  0.00    -0.284 N 
ATOM     12  C   UNL     1      -0.637   0.762   2.970  0.00  0.00    +0.041 C 
ATOM     13  H   UNL     1      -2.844   0.337   4.773  0.00  0.00    +0.151 HD
BRANCH   5  15
ATOM     14  C   UNL     1      -3.406   1.573   2.286  0.00  0.00    +0.006 C 
ATOM     15  C   UNL     1      -2.841   0.207   1.894  0.00  0.00    +0.032 C 
ENDBRANCH   5  15
ENDBRANCH   1   8
BRANCH   2  16
ATOM     16  C   UNL     1      -0.062  -5.627   4.763  0.00  0.00    +0.021 C 
BRANCH  16  17
ATOM     17  N   UNL     1       1.169  -5.805   5.546  0.00  0.00    +0.390 N 
ATOM     18  H   UNL     1       1.206  -5.109   6.276  0.00  0.00    -0.080 HD
BRANCH  17  19
ATOM     19  C   UNL     1       2.335  -5.655   4.666  0.00  0.00    -0.074 C 
ATOM     20  C   UNL     1       2.248  -6.673   3.527  0.00  0.00    -0.013 C 
ATOM     21  C   UNL     1       2.358  -4.240   4.085  0.00  0.00    -0.013 C 
ENDBRANCH  17  19
BRANCH  17  22
ATOM     22  C   UNL     1       1.177  -7.146   6.147  0.00  0.00    -0.034 C 
BRANCH  22  23
ATOM     23  C   UNL     1       2.366  -7.278   7.062  0.00  0.00    -0.024 A 
ATOM     24  C   UNL     1       2.451  -7.032   8.393  0.00  0.00    -0.042 A 
ATOM     25  C   UNL     1       3.660  -7.226   9.034  0.00  0.00    +0.011 A 
ATOM     26  C   UNL     1       4.725  -7.657   8.314  0.00  0.00    +0.045 A 
ATOM     27  S   UNL     1       4.028  -7.808   6.678  0.00  0.00    -0.103 S 
ATOM     28  C   UNL     1       1.246  -6.554   9.161  0.00  0.00    +0.044 C 
ENDBRANCH  22  23
ENDBRANCH  17  22
ENDBRANCH  16  17
ENDBRANCH   2  16
TORSDOF 7
