REMARK  Name = ZINC06149113
REMARK  14 active torsions:
REMARK  status: ('A' for Active; 'I' for Inactive)
REMARK    1  A    between atoms: C_1  and  C_2
REMARK    2  A    between atoms: C_2  and  C_3
REMARK    3  A    between atoms: C_3  and  C_4
REMARK    4  A    between atoms: C_3  and  C_5
REMARK    5  A    between atoms: C_3  and  N_6
REMARK    6  A    between atoms: C_7  and  C_11
REMARK    7  A    between atoms: C_11  and  C_13
REMARK    8  A    between atoms: C_11  and  N_72
REMARK    9  A    between atoms: C_17  and  C_26
REMARK   10  A    between atoms: C_19  and  C_25
REMARK   11  A    between atoms: C_27  and  C_28
REMARK   12  A    between atoms: C_27  and  N_72
REMARK   13  A    between atoms: C_34  and  C_35
REMARK   14  A    between atoms: C_34  and  N_72
REMARK                            x       y       z     vdW  Elec       q    Type
REMARK                         _______ _______ _______ _____ _____    ______ ____
ROOT
ATOM      1  C   UNL     1       4.650  -1.609  -1.332  0.00  0.00    +0.040 C 
ENDROOT
BRANCH   1   2
ATOM      2  C   UNL     1       4.445  -1.669  -2.824  0.00  0.00    +0.011 A 
ATOM      3  C   UNL     1       4.879  -2.747  -3.522  0.00  0.00    +0.017 A 
ATOM      4  C   UNL     1       4.665  -2.775  -4.970  0.00  0.00    -0.001 A 
ATOM      5  C   UNL     1       5.089  -3.860  -5.744  0.00  0.00    +0.013 A 
ATOM      6  C   UNL     1       4.874  -3.855  -7.093  0.00  0.00    -0.050 A 
ATOM      7  C   UNL     1       4.238  -2.782  -7.703  0.00  0.00    +0.008 A 
ATOM      8  C   UNL     1       3.811  -1.703  -6.961  0.00  0.00    -0.026 A 
ATOM      9  C   UNL     1       4.019  -1.685  -5.585  0.00  0.00    +0.052 A 
ATOM     10  N   UNL     1       3.602  -0.619  -4.818  0.00  0.00    -0.322 N 
ATOM     11  H   UNL     1       3.147   0.156  -5.257  0.00  0.00    +0.169 HD
ATOM     12  C   UNL     1       3.798  -0.605  -3.488  0.00  0.00    +0.251 A 
ATOM     13  O   UNL     1       3.412   0.353  -2.840  0.00  0.00    -0.268 OA
ATOM     14  C   UNL     1       3.122  -0.545  -7.636  0.00  0.00    +0.046 C 
ATOM     15  C   UNL     1       5.332  -5.024  -7.926  0.00  0.00    +0.044 C 
ENDBRANCH   1   2
BRANCH   1  17
ATOM     16  N   UNL     1       6.343  -3.147  -0.204  0.00  0.00    -0.225 N 
ATOM     17  C   UNL     1       5.178  -2.933  -0.844  0.00  0.00    +0.143 A 
ATOM     18  N   UNL     1       4.596  -4.101  -0.964  0.00  0.00    -0.115 NA
ATOM     19  N   UNL     1       5.360  -4.985  -0.423  0.00  0.00    -0.023 NA
ATOM     20  N   UNL     1       6.416  -4.412   0.041  0.00  0.00    -0.043 NA
BRANCH  16  21
ATOM     21  C   UNL     1       7.340  -2.134   0.150  0.00  0.00    +0.061 C 
ATOM     22  C   UNL     1       7.843  -1.446  -1.121  0.00  0.00    +0.036 C 
ATOM     23  C   UNL     1       6.704  -1.094   1.075  0.00  0.00    +0.036 C 
BRANCH  21  25
ATOM     24  C   UNL     1       9.556  -1.744   1.238  0.00  0.00    +0.006 C 
ATOM     25  C   UNL     1       8.515  -2.802   0.867  0.00  0.00    +0.026 C 
ENDBRANCH  21  25
ENDBRANCH  16  21
ENDBRANCH   1  17
BRANCH   1  26
ATOM     26  N   UNL     1       3.356  -1.299  -0.688  0.00  0.00    +0.395 N 
ATOM     27  H   UNL     1       2.898  -0.541  -1.207  0.00  0.00    -0.079 HD
BRANCH  26  28
ATOM     28  C   UNL     1       3.578  -0.860   0.706  0.00  0.00    -0.041 C 
BRANCH  28  29
ATOM     29  C   UNL     1       2.274  -0.359   1.272  0.00  0.00    -0.064 A 
ATOM     30  C   UNL     1       1.452  -1.217   1.978  0.00  0.00    +0.002 A 
ATOM     31  C   UNL     1       0.256  -0.758   2.497  0.00  0.00    +0.000 A 
ATOM     32  C   UNL     1      -0.118   0.560   2.310  0.00  0.00    +0.000 A 
ATOM     33  C   UNL     1       0.705   1.418   1.604  0.00  0.00    +0.000 A 
ATOM     34  C   UNL     1       1.901   0.958   1.085  0.00  0.00    +0.002 A 
ENDBRANCH  28  29
ENDBRANCH  26  28
BRANCH  26  35
ATOM     35  C   UNL     1       2.483  -2.491  -0.709  0.00  0.00    -0.034 C 
BRANCH  35  36
ATOM     36  C   UNL     1       1.944  -2.671  -2.105  0.00  0.00    -0.027 A 
ATOM     37  C   UNL     1       2.372  -3.505  -3.084  0.00  0.00    +0.009 A 
ATOM     38  C   UNL     1       1.717  -3.501  -4.301  0.00  0.00    +0.008 A 
ATOM     39  C   UNL     1       0.667  -2.663  -4.480  0.00  0.00    +0.045 A 
ATOM     40  S   UNL     1       0.572  -1.847  -2.895  0.00  0.00    -0.103 S 
ENDBRANCH  35  36
ENDBRANCH  26  35
ENDBRANCH   1  26
TORSDOF 9
