REMARK  Name = ZINC22452402
REMARK  3 active torsions:
REMARK  status: ('A' for Active; 'I' for Inactive)
REMARK    1  A    between atoms: C_1  and  C_2
REMARK    2  A    between atoms: C_2  and  C_3
REMARK    3  A    between atoms: C_16  and  C_18
REMARK                            x       y       z     vdW  Elec       q    Type
REMARK                         _______ _______ _______ _____ _____    ______ ____
ROOT
ATOM      1  C   UNL     1      -1.993   5.390   0.406  0.00  0.00    +0.076 C 
ATOM      2  C   UNL     1      -3.268   6.231   0.499  0.00  0.00    +0.022 C 
ATOM      3  C   UNL     1      -4.101   5.757   1.693  0.00  0.00    +0.003 C 
ATOM      4  C   UNL     1      -4.418   4.268   1.525  0.00  0.00    +0.019 C 
ATOM      5  C   UNL     1      -3.109   3.484   1.403  0.00  0.00    +0.108 C 
ATOM      6  N   UNL     1      -2.349   3.975   0.246  0.00  0.00    -0.298 N 
ATOM      7  C   UNL     1      -1.234   3.209   0.030  0.00  0.00    +0.199 A 
ATOM      8  N   UNL     1      -0.315   3.077   1.025  0.00  0.00    -0.295 N 
ATOM      9  H   UNL     1      -0.474   3.579   1.991  0.00  0.00    +0.172 HD
ATOM     10  C   UNL     1       0.792   2.331   0.830  0.00  0.00    +0.253 A 
ATOM     11  O   UNL     1       1.624   2.211   1.715  0.00  0.00    -0.268 OA
ATOM     12  C   UNL     1       0.969   1.692  -0.406  0.00  0.00    +0.098 A 
ATOM     13  C   UNL     1      -0.001   1.855  -1.384  0.00  0.00    +0.080 A 
ATOM     14  N   UNL     1      -1.077   2.613  -1.132  0.00  0.00    -0.216 NA
ENDROOT
BRANCH  13  15
ATOM     15  C   UNL     1       0.152   1.195  -2.702  0.00  0.00    +0.001 A 
ATOM     16  C   UNL     1      -0.887   1.237  -3.631  0.00  0.00    +0.010 A 
ATOM     17  C   UNL     1      -0.737   0.624  -4.858  0.00  0.00    +0.001 A 
ATOM     18  C   UNL     1       0.437  -0.041  -5.163  0.00  0.00    +0.000 A 
ATOM     19  C   UNL     1       1.469  -0.091  -4.243  0.00  0.00    +0.001 A 
ATOM     20  C   UNL     1       1.333   0.523  -3.015  0.00  0.00    +0.010 A 
ENDBRANCH  13  15
BRANCH   1  22
ATOM     21  C   UNL     1      -0.681   7.280  -0.568  0.00  0.00    +0.006 C 
ATOM     22  C   UNL     1      -1.167   5.848  -0.798  0.00  0.00    +0.019 C 
ENDBRANCH   1  22
TORSDOF 2
