REMARK  Name = ZINC65265777
REMARK  5 active torsions:
REMARK  status: ('A' for Active; 'I' for Inactive)
REMARK    1  A    between atoms: C_1  and  O_2
REMARK    2  A    between atoms: O_2  and  C_3
REMARK    3  A    between atoms: C_3  and  C_4
REMARK    4  A    between atoms: C_4  and  N_5
REMARK    5  A    between atoms: C_21  and  C_23
REMARK                            x       y       z     vdW  Elec       q    Type
REMARK                         _______ _______ _______ _____ _____    ______ ____
ROOT
ATOM      1  N   UNL     1       1.902  -1.981   0.261  0.00  0.00    -0.373 N 
ATOM      2  C   UNL     1       1.741  -3.196  -0.153  0.00  0.00    +0.095 C 
ATOM      3  N   UNL     1       0.995  -4.106   0.554  0.00  0.00    -0.303 N 
ATOM      4  C   UNL     1      -0.364  -4.221   0.276  0.00  0.00    +0.037 A 
ATOM      5  C   UNL     1      -1.282  -4.283   1.315  0.00  0.00    +0.023 A 
ATOM      6  C   UNL     1      -2.630  -4.412   1.043  0.00  0.00    +0.002 A 
ATOM      7  C   UNL     1      -3.054  -4.479  -0.272  0.00  0.00    +0.000 A 
ATOM      8  C   UNL     1      -2.143  -4.412  -1.303  0.00  0.00    +0.007 A 
ATOM      9  C   UNL     1      -0.782  -4.274  -1.048  0.00  0.00    -0.012 A 
ATOM     10  C   UNL     1       0.128  -4.171  -2.245  0.00  0.00    +0.119 C 
ATOM     11  N   UNL     1       1.467  -4.716  -1.990  0.00  0.00    -0.299 NA
ATOM     12  C   UNL     1       2.353  -3.676  -1.425  0.00  0.00    +0.091 C 
ATOM     13  C   UNL     1       2.534  -2.529  -2.438  0.00  0.00    +0.050 C 
ATOM     14  C   UNL     1       3.683  -3.079  -3.323  0.00  0.00    +0.110 C 
ATOM     15  N   UNL     1       4.560  -3.816  -2.393  0.00  0.00    -0.295 N 
ATOM     16  C   UNL     1       3.767  -4.226  -1.222  0.00  0.00    +0.137 C 
ATOM     17  C   UNL     1       5.870  -4.071  -2.584  0.00  0.00    +0.248 C 
ATOM     18  O   UNL     1       6.519  -4.605  -1.706  0.00  0.00    -0.270 OA
ATOM     19  H   UNL     1       2.431  -1.357  -0.261  0.00  0.00    +0.161 HD
ATOM     20  H   UNL     1       1.420  -5.522  -1.385  0.00  0.00    +0.123 HD
ATOM     21  H   UNL     1       1.407  -4.658   1.237  0.00  0.00    +0.153 HD
ENDROOT
BRANCH  17  22
ATOM     22  C   UNL     1       6.516  -3.701  -3.861  0.00  0.00    +0.058 A 
ATOM     23  C   UNL     1       5.824  -3.845  -5.065  0.00  0.00    +0.052 A 
ATOM     24  C   UNL     1       6.434  -3.497  -6.254  0.00  0.00    +0.124 A 
ATOM     25  C   UNL     1       7.730  -3.007  -6.254  0.00  0.00    +0.040 A 
ATOM     26  C   UNL     1       8.421  -2.863  -5.065  0.00  0.00    +0.023 A 
ATOM     27  C   UNL     1       7.820  -3.201  -3.868  0.00  0.00    +0.053 A 
ATOM     28 CL   UNL     1       8.687  -3.012  -2.376  0.00  0.00    -0.083 Cl
ATOM     29  F   UNL     1       5.766  -3.635  -7.420  0.00  0.00    -0.205 F 
ENDBRANCH  17  22
BRANCH   1  30
ATOM     30  C   UNL     1       1.285  -1.547   1.516  0.00  0.00    +0.141 C 
BRANCH  30  31
ATOM     31  C   UNL     1       1.628  -0.078   1.772  0.00  0.00    +0.180 C 
BRANCH  31  33
ATOM     32  C   UNL     1       1.293   2.131   0.905  0.00  0.00    +0.194 C 
ATOM     33  O   UNL     1       1.032   0.734   0.758  0.00  0.00    -0.381 OA
ENDBRANCH  31  33
ENDBRANCH  30  31
ENDBRANCH   1  30
TORSDOF 4
