REMARK  Name = ZINC59891094
REMARK  9 active torsions:
REMARK  status: ('A' for Active; 'I' for Inactive)
REMARK    1  A    between atoms: C_1  and  C_2
REMARK    2  A    between atoms: C_7  and  C_9
REMARK    3  A    between atoms: C_7  and  N_30
REMARK    4  A    between atoms: C_9  and  N_10
REMARK    5  A    between atoms: C_11  and  C_13
REMARK    6  A    between atoms: C_13  and  C_14
REMARK    7  A    between atoms: C_21  and  C_26
REMARK    8  A    between atoms: N_30  and  C_31
REMARK    9  A    between atoms: N_30  and  C_32
REMARK                            x       y       z     vdW  Elec       q    Type
REMARK                         _______ _______ _______ _____ _____    ______ ____
ROOT
ATOM      1  C   UNL     1       1.356  -6.372   3.373  0.00  0.00    +0.119 C 
ENDROOT
BRANCH   1   2
ATOM      2  C   UNL     1       1.967  -7.006   4.624  0.00  0.00    +0.146 C 
ATOM      3  C   UNL     1       1.823  -8.504   4.555  0.00  0.00    +0.231 C 
ATOM      4  O   UNL     1       2.772  -9.158   4.177  0.00  0.00    -0.274 OA
ATOM      5  N   UNL     1       0.707  -9.144   4.888  0.00  0.00    -0.284 N 
ATOM      6  C   UNL     1      -0.436  -8.583   5.450  0.00  0.00    +0.047 A 
ATOM      7  C   UNL     1      -1.629  -9.301   5.423  0.00  0.00    +0.036 A 
ATOM      8  C   UNL     1      -2.778  -8.762   5.965  0.00  0.00    +0.057 A 
ATOM      9  C   UNL     1      -2.759  -7.504   6.541  0.00  0.00    +0.013 A 
ATOM     10  C   UNL     1      -1.581  -6.781   6.578  0.00  0.00    +0.017 A 
ATOM     11  C   UNL     1      -0.424  -7.319   6.039  0.00  0.00    +0.030 A 
ATOM     12  S   UNL     1       1.093  -6.406   6.103  0.00  0.00    -0.110 S 
ATOM     13  H   UNL     1       0.686 -10.100   4.723  0.00  0.00    +0.155 HD
BRANCH   8  14
ATOM     14  C   UNL     1      -4.062  -9.550   5.930  0.00  0.00    +0.417 C 
ATOM     15  F   UNL     1      -4.162 -10.332   7.086  0.00  0.00    -0.166 F 
ATOM     16  F   UNL     1      -5.148  -8.669   5.869  0.00  0.00    -0.166 F 
ATOM     17  F   UNL     1      -4.070 -10.379   4.804  0.00  0.00    -0.166 F 
ENDBRANCH   8  14
ENDBRANCH   1   2
BRANCH   1  19
ATOM     18  N   UNL     1       1.149  -4.115   2.383  0.00  0.00    -0.317 N 
ATOM     19  C   UNL     1       1.601  -4.886   3.392  0.00  0.00    +0.215 C 
ATOM     20  O   UNL     1       2.205  -4.383   4.316  0.00  0.00    -0.276 OA
ATOM     21  H   UNL     1       0.666  -4.517   1.644  0.00  0.00    +0.149 HD
BRANCH  18  22
ATOM     22  C   UNL     1       1.388  -2.670   2.401  0.00  0.00    +0.092 C 
BRANCH  22  28
ATOM     23  C   UNL     1       1.111  -2.509  -2.585  0.00  0.00    +0.007 C 
ATOM     24  C   UNL     1       0.543  -1.940  -1.284  0.00  0.00    -0.015 C 
ATOM     25  C   UNL     1      -0.957  -2.236  -1.210  0.00  0.00    +0.003 C 
ATOM     26  C   UNL     1      -1.525  -1.667   0.092  0.00  0.00    -0.001 C 
ATOM     27  C   UNL     1      -0.819  -2.316   1.283  0.00  0.00    -0.010 C 
ATOM     28  C   UNL     1       0.681  -2.021   1.210  0.00  0.00    -0.050 C 
ATOM     29  C   UNL     1       1.250  -2.589  -0.092  0.00  0.00    -0.007 C 
BRANCH  28  30
ATOM     30  N   UNL     1       0.896  -0.568   1.245  0.00  0.00    +0.381 N 
ATOM     31  C   UNL     1       0.328  -0.019   2.483  0.00  0.00    -0.096 C 
ATOM     32  C   UNL     1       2.337  -0.285   1.199  0.00  0.00    -0.096 C 
ATOM     33  H   UNL     1       0.444  -0.142   0.449  0.00  0.00    -0.082 HD
ENDBRANCH  28  30
ENDBRANCH  22  28
ENDBRANCH  18  22
ENDBRANCH   1  19
TORSDOF 6
