REMARK  Name = ZINC40398912
REMARK  5 active torsions:
REMARK  status: ('A' for Active; 'I' for Inactive)
REMARK    1  A    between atoms: C_1  and  C_2
REMARK    2  A    between atoms: C_2  and  S_3
REMARK    3  A    between atoms: S_3  and  C_4
REMARK    4  A    between atoms: N_23  and  C_26
REMARK    5  A    between atoms: C_32  and  C_34
REMARK                            x       y       z     vdW  Elec       q    Type
REMARK                         _______ _______ _______ _____ _____    ______ ____
ROOT
ATOM      1  C   UNL     1       0.792  -2.345  -1.354  0.00  0.00    +0.210 A 
ATOM      2  N   UNL     1       1.305  -3.210  -2.234  0.00  0.00    -0.185 NA
ATOM      3  C   UNL     1       1.085  -4.441  -1.825  0.00  0.00    +0.234 A 
ATOM      4  N   UNL     1       0.417  -4.379  -0.655  0.00  0.00    -0.243 N 
ATOM      5  H   UNL     1       0.118  -5.128  -0.117  0.00  0.00    +0.192 HD
ATOM      6  N   UNL     1       0.243  -3.015  -0.368  0.00  0.00    -0.144 NA
ATOM      7  N   UNL     1       1.474  -5.602  -2.483  0.00  0.00    -0.252 N 
ATOM      8  C   UNL     1       1.165  -6.811  -1.928  0.00  0.00    +0.100 A 
ATOM      9  C   UNL     1       1.505  -7.977  -2.500  0.00  0.00    +0.047 A 
ATOM     10  C   UNL     1       2.236  -7.974  -3.769  0.00  0.00    +0.078 A 
ATOM     11  C   UNL     1       2.558  -6.718  -4.348  0.00  0.00    +0.066 A 
ATOM     12  C   UNL     1       2.140  -5.498  -3.651  0.00  0.00    +0.267 A 
ATOM     13  O   UNL     1       2.395  -4.403  -4.119  0.00  0.00    -0.267 OA
ATOM     14  C   UNL     1       3.253  -6.670  -5.554  0.00  0.00    +0.030 A 
ATOM     15  C   UNL     1       3.605  -7.882  -6.145  0.00  0.00    +0.066 A 
ATOM     16  C   UNL     1       3.251  -9.103  -5.513  0.00  0.00    +0.078 A 
ATOM     17  N   UNL     1       2.588  -9.107  -4.363  0.00  0.00    -0.246 NA
ATOM     18  C   UNL     1       3.640 -10.352  -6.170  0.00  0.00    +0.046 A 
ATOM     19  C   UNL     1       4.310 -10.309  -7.333  0.00  0.00    +0.091 A 
ATOM     20  N   UNL     1       4.650  -9.138  -7.941  0.00  0.00    -0.311 N 
ATOM     21  C   UNL     1       4.337  -7.937  -7.415  0.00  0.00    +0.261 A 
ATOM     22  O   UNL     1       4.657  -6.911  -7.986  0.00  0.00    -0.267 OA
ENDROOT
BRANCH  20  23
ATOM     23  C   UNL     1       5.382  -9.185  -9.210  0.00  0.00    +0.093 C 
ATOM     24  C   UNL     1       4.548  -9.931 -10.252  0.00  0.00    +0.025 C 
ATOM     25  C   UNL     1       5.312  -9.981 -11.577  0.00  0.00    +0.002 C 
ATOM     26  C   UNL     1       6.642 -10.709 -11.372  0.00  0.00    +0.000 C 
ATOM     27  C   UNL     1       7.476  -9.962 -10.329  0.00  0.00    +0.005 C 
ATOM     28  C   UNL     1       6.712  -9.912  -9.005  0.00  0.00    +0.009 C 
ATOM     29  C   UNL     1       7.546  -9.166  -7.962  0.00  0.00    +0.009 C 
ENDBRANCH  20  23
BRANCH   1  30
ATOM     30  S   UNL     1       0.851  -0.589  -1.490  0.00  0.00    -0.085 S 
BRANCH  30  32
ATOM     31  C   UNL     1      -0.019   1.526   0.010  0.00  0.00    +0.016 C 
ATOM     32  C   UNL     1       0.002  -0.004   0.002  0.00  0.00    +0.074 C 
ENDBRANCH  30  32
ENDBRANCH   1  30
TORSDOF 3
