REMARK  Name = ZINC02321762
REMARK  8 active torsions:
REMARK  status: ('A' for Active; 'I' for Inactive)
REMARK    1  A    between atoms: C_1  and  O_2
REMARK    2  A    between atoms: O_2  and  C_3
REMARK    3  A    between atoms: C_5  and  C_10
REMARK    4  A    between atoms: C_8  and  O_9
REMARK    5  A    between atoms: C_12  and  C_27
REMARK    6  A    between atoms: C_13  and  S_22
REMARK    7  A    between atoms: S_22  and  C_23
REMARK    8  A    between atoms: C_23  and  C_24
REMARK                            x       y       z     vdW  Elec       q    Type
REMARK                         _______ _______ _______ _____ _____    ______ ____
ROOT
ATOM      1  C   UNL     1       2.403   0.379  -4.230  0.00  0.00    +0.097 C 
ATOM      2  C   UNL     1       1.660   0.091  -5.523  0.00  0.00    +0.073 C 
ATOM      3  C   UNL     1       2.404  -0.387  -6.588  0.00  0.00    +0.112 C 
ATOM      4  N   UNL     1       3.720  -0.593  -6.504  0.00  0.00    -0.244 NA
ATOM      5  C   UNL     1       4.459  -0.379  -5.443  0.00  0.00    +0.050 C 
ATOM      6  C   UNL     1       3.894   0.104  -4.253  0.00  0.00    +0.029 C 
ATOM      7  C   UNL     1       4.634   0.326  -3.155  0.00  0.00    +0.162 C 
ATOM      8  C   UNL     1       6.117   0.065  -3.144  0.00  0.00    +0.080 C 
ATOM      9  C   UNL     1       6.438  -1.065  -4.126  0.00  0.00    +0.014 C 
ATOM     10  C   UNL     1       5.941  -0.663  -5.510  0.00  0.00    +0.056 C 
ATOM     11  O   UNL     1       4.037   0.792  -2.039  0.00  0.00    -0.292 OA
ENDROOT
BRANCH   1  14
ATOM     12  C   UNL     1       0.606  -0.608  -1.056  0.00  0.00    +0.162 A 
ATOM     13  C   UNL     1       1.173   0.159  -2.062  0.00  0.00    +0.054 A 
ATOM     14  C   UNL     1       1.787  -0.456  -3.137  0.00  0.00    -0.031 A 
ATOM     15  C   UNL     1       1.837  -1.836  -3.212  0.00  0.00    +0.008 A 
ATOM     16  C   UNL     1       1.273  -2.606  -2.212  0.00  0.00    +0.049 A 
ATOM     17  C   UNL     1       0.662  -1.996  -1.129  0.00  0.00    +0.158 A 
BRANCH  12  19
ATOM     18  C   UNL     1      -0.017   1.425   0.010  0.00  0.00    +0.277 C 
ATOM     19  O   UNL     1       0.002  -0.004   0.002  0.00  0.00    -0.491 OA
ENDBRANCH  12  19
BRANCH  17  20
ATOM     20  O   UNL     1       0.112  -2.753  -0.142  0.00  0.00    -0.503 OA
ATOM     21  H   UNL     1      -0.816  -2.979  -0.291  0.00  0.00    +0.292 HD
ENDBRANCH  17  20
ENDBRANCH   1  14
BRANCH   2  22
ATOM     22  C   UNL     1       0.249   0.305  -5.635  0.00  0.00    +0.098 C 
ATOM     23  N   UNL     1      -0.871   0.474  -5.725  0.00  0.00    -0.191 NA
ENDBRANCH   2  22
BRANCH   3  24
ATOM     24  S   UNL     1       1.585  -0.736  -8.108  0.00  0.00    -0.096 S 
BRANCH  24  25
ATOM     25  C   UNL     1       2.911  -1.325  -9.196  0.00  0.00    +0.171 C 
BRANCH  25  26
ATOM     26  C   UNL     1       2.339  -1.663 -10.549  0.00  0.00    +0.221 C 
ATOM     27  O   UNL     1       1.153  -1.521 -10.758  0.00  0.00    -0.275 OA
ATOM     28  N   UNL     1       3.145  -2.124 -11.526  0.00  0.00    -0.329 N 
ATOM     29  H   UNL     1       4.093  -2.237 -11.359  0.00  0.00    +0.145 HD
ATOM     30  H   UNL     1       2.776  -2.342 -12.396  0.00  0.00    +0.145 HD
ENDBRANCH  25  26
ENDBRANCH  24  25
ENDBRANCH   3  24
TORSDOF 7
