REMARK  Name = ZINC63340079
REMARK  9 active torsions:
REMARK  status: ('A' for Active; 'I' for Inactive)
REMARK    1  A    between atoms: C_1  and  O_2
REMARK    2  A    between atoms: O_2  and  C_3
REMARK    3  A    between atoms: C_7  and  S_14
REMARK    4  A    between atoms: C_11  and  O_12
REMARK    5  A    between atoms: O_12  and  C_13
REMARK    6  A    between atoms: S_14  and  C_15
REMARK    7  A    between atoms: C_15  and  C_16
REMARK    8  A    between atoms: C_26  and  O_28
REMARK    9  A    between atoms: O_28  and  C_29
REMARK                            x       y       z     vdW  Elec       q    Type
REMARK                         _______ _______ _______ _____ _____    ______ ____
ROOT
ATOM      1  S   UNL     1       4.757  -1.101   5.121  0.00  0.00    -0.112 S 
ENDROOT
BRANCH   1   6
ATOM      2  C   UNL     1       0.625  -0.617   1.039  0.00  0.00    +0.164 A 
ATOM      3  C   UNL     1       1.180   0.139   2.014  0.00  0.00    +0.076 A 
ATOM      4  C   UNL     1       1.856  -0.508   3.142  0.00  0.00    +0.065 A 
ATOM      5  N   UNL     1       2.463  -0.029   4.192  0.00  0.00    -0.355 N 
ATOM      6  C   UNL     1       2.950  -1.169   4.979  0.00  0.00    +0.235 C 
ATOM      7  N   UNL     1       2.547  -2.378   4.250  0.00  0.00    -0.355 N 
ATOM      8  C   UNL     1       1.909  -1.996   3.179  0.00  0.00    +0.065 A 
ATOM      9  C   UNL     1       1.283  -2.745   2.085  0.00  0.00    +0.076 A 
ATOM     10  C   UNL     1       0.672  -2.079   1.078  0.00  0.00    +0.164 A 
ATOM     11  H   UNL     1       2.573   0.909   4.413  0.00  0.00    +0.162 HD
ATOM     12  H   UNL     1       2.724  -3.294   4.517  0.00  0.00    +0.162 HD
BRANCH   2  14
ATOM     13  C   UNL     1      -0.017   1.425   0.010  0.00  0.00    +0.277 C 
ATOM     14  O   UNL     1       0.002  -0.004   0.002  0.00  0.00    -0.491 OA
ENDBRANCH   2  14
BRANCH  10  15
ATOM     15  O   UNL     1       0.092  -2.785   0.076  0.00  0.00    -0.491 OA
ATOM     16  C   UNL     1       0.166  -4.210   0.160  0.00  0.00    +0.277 C 
ENDBRANCH  10  15
ENDBRANCH   1   6
BRANCH   1  17
ATOM     17  C   UNL     1       5.336  -1.169   3.403  0.00  0.00    +0.115 C 
BRANCH  17  18
ATOM     18  C   UNL     1       6.864  -1.118   3.378  0.00  0.00    +0.179 C 
ATOM     19  N   UNL     1       7.343   0.096   4.049  0.00  0.00    -0.323 N 
ATOM     20  C   UNL     1       8.129  -0.308   5.135  0.00  0.00    +0.050 A 
ATOM     21  C   UNL     1       8.811   0.443   6.086  0.00  0.00    +0.025 A 
ATOM     22  C   UNL     1       9.533  -0.186   7.081  0.00  0.00    +0.002 A 
ATOM     23  C   UNL     1       9.579  -1.567   7.137  0.00  0.00    +0.002 A 
ATOM     24  C   UNL     1       8.905  -2.322   6.197  0.00  0.00    +0.025 A 
ATOM     25  C   UNL     1       8.177  -1.698   5.192  0.00  0.00    +0.062 A 
ATOM     26  N   UNL     1       7.421  -2.243   4.139  0.00  0.00    -0.216 N 
ATOM     27  C   UNL     1       7.240  -3.553   3.878  0.00  0.00    +0.408 C 
ATOM     28  O   UNL     1       6.559  -3.895   2.932  0.00  0.00    -0.226 OA
ATOM     29  H   UNL     1       7.150   1.010   3.788  0.00  0.00    +0.148 HD
BRANCH  27  30
ATOM     30  O   UNL     1       7.814  -4.482   4.665  0.00  0.00    -0.453 OA
ATOM     31  C   UNL     1       7.580  -5.851   4.330  0.00  0.00    +0.282 C 
ENDBRANCH  27  30
ENDBRANCH  17  18
ENDBRANCH   1  17
TORSDOF 6
