REMARK  Name = ZINC40838938
REMARK  5 active torsions:
REMARK  status: ('A' for Active; 'I' for Inactive)
REMARK    1  A    between atoms: C_1  and  C_2
REMARK    2  A    between atoms: C_7  and  N_8
REMARK    3  A    between atoms: C_9  and  C_11
REMARK    4  A    between atoms: C_11  and  C_13
REMARK    5  A    between atoms: C_11  and  C_14
REMARK                            x       y       z     vdW  Elec       q    Type
REMARK                         _______ _______ _______ _____ _____    ______ ____
ROOT
ATOM      1  C   UNL     1      -0.168   0.052   4.882  0.00  0.00    +0.094 C 
ATOM      2  C   UNL     1      -1.431   0.915   4.870  0.00  0.00    +0.019 C 
ENDROOT
BRANCH   1   3
ATOM      3  C   UNL     1      -0.245  -0.948   6.037  0.00  0.00    +0.149 C 
ATOM      4  C   UNL     1      -0.363  -0.205   7.340  0.00  0.00    +0.231 C 
ATOM      5  O   UNL     1       0.652   0.022   7.965  0.00  0.00    -0.274 OA
ATOM      6  N   UNL     1      -1.519   0.216   7.846  0.00  0.00    -0.284 N 
ATOM      7  C   UNL     1      -2.777   0.057   7.269  0.00  0.00    +0.047 A 
ATOM      8  C   UNL     1      -3.814   0.905   7.645  0.00  0.00    +0.024 A 
ATOM      9  C   UNL     1      -5.068   0.758   7.087  0.00  0.00    +0.002 A 
ATOM     10  C   UNL     1      -5.308  -0.231   6.151  0.00  0.00    +0.001 A 
ATOM     11  C   UNL     1      -4.286  -1.080   5.767  0.00  0.00    +0.016 A 
ATOM     12  C   UNL     1      -3.025  -0.936   6.321  0.00  0.00    +0.030 A 
ATOM     13  S   UNL     1      -1.707  -2.008   5.830  0.00  0.00    -0.110 S 
ATOM     14  H   UNL     1      -1.483   0.679   8.697  0.00  0.00    +0.155 HD
ENDBRANCH   1   3
BRANCH   1  16
ATOM     15  N   UNL     1       0.025  -0.015   2.417  0.00  0.00    -0.285 N 
ATOM     16  C   UNL     1      -0.056  -0.694   3.578  0.00  0.00    +0.222 C 
ATOM     17  O   UNL     1      -0.040  -1.907   3.573  0.00  0.00    -0.275 OA
ATOM     18  H   UNL     1       0.078   0.954   2.425  0.00  0.00    +0.155 HD
BRANCH  15  25
ATOM     19  C   UNL     1      -1.264   1.184   0.181  0.00  0.00    +0.045 C 
ATOM     20  C   UNL     1      -0.584  -0.158   0.084  0.00  0.00    -0.029 A 
ATOM     21  C   UNL     1      -0.569  -0.840  -1.117  0.00  0.00    +0.005 A 
ATOM     22  C   UNL     1       0.055  -2.071  -1.206  0.00  0.00    +0.000 A 
ATOM     23  C   UNL     1       0.666  -2.622  -0.095  0.00  0.00    +0.002 A 
ATOM     24  C   UNL     1       0.655  -1.945   1.108  0.00  0.00    +0.023 A 
ATOM     25  C   UNL     1       0.034  -0.706   1.201  0.00  0.00    +0.036 A 
ENDBRANCH  15  25
ENDBRANCH   1  16
TORSDOF 3
