REMARK  Name = ZINC61099037
REMARK  4 active torsions:
REMARK  status: ('A' for Active; 'I' for Inactive)
REMARK    1  A    between atoms: C_2  and  N_10
REMARK    2  A    between atoms: N_10  and  S_11
REMARK    3  A    between atoms: S_11  and  C_14
REMARK    4  A    between atoms: C_19  and  N_20
REMARK                            x       y       z     vdW  Elec       q    Type
REMARK                         _______ _______ _______ _____ _____    ______ ____
ROOT
ATOM      1  S   UNL     1       2.583   4.333   0.000  0.00  0.00    +0.096 S 
ATOM      2  O   UNL     1       3.225   4.061   1.238  0.00  0.00    -0.148 OA
ATOM      3  O   UNL     1       3.202   4.073  -1.252  0.00  0.00    -0.148 OA
ENDROOT
BRANCH   1   4
ATOM      4  C   UNL     1       2.171   6.046   0.013  0.00  0.00    +0.166 A 
ATOM      5  C   UNL     1       2.452   6.953   1.038  0.00  0.00    +0.133 A 
ATOM      6  N   UNL     1       1.994   8.127   0.686  0.00  0.00    -0.304 N 
ATOM      7  H   UNL     1       0.983   8.726  -1.081  0.00  0.00    +0.188 HD
ATOM      8  N   UNL     1       1.403   8.010  -0.578  0.00  0.00    -0.286 N 
ATOM      9  C   UNL     1       1.527   6.724  -0.978  0.00  0.00    +0.137 A 
ATOM     10  H   UNL     1       2.054   8.941   1.212  0.00  0.00    +0.186 HD
BRANCH   9  11
ATOM     11  N   UNL     1       1.075   6.189  -2.181  0.00  0.00    -0.342 N 
ATOM     12  H   UNL     1       1.210   5.248  -2.374  0.00  0.00    +0.144 HD
ATOM     13  H   UNL     1       0.624   6.757  -2.825  0.00  0.00    +0.144 HD
ENDBRANCH   9  11
ENDBRANCH   1   4
BRANCH   1  14
ATOM     14  N   UNL     1       1.159   3.487   0.009  0.00  0.00    -0.098 NA
BRANCH  14  16
ATOM     15  C   UNL     1      -0.017   1.379   0.010  0.00  0.00    +0.068 A 
ATOM     16  C   UNL     1       1.177   2.089   0.002  0.00  0.00    +0.080 A 
ATOM     17  C   UNL     1       2.387   1.409  -0.013  0.00  0.00    +0.068 A 
ATOM     18  C   UNL     1       2.403   0.026  -0.021  0.00  0.00    +0.163 A 
ATOM     19  C   UNL     1       1.211  -0.681  -0.014  0.00  0.00    +0.193 A 
ATOM     20  C   UNL     1       0.002  -0.004   0.002  0.00  0.00    +0.163 A 
ATOM     21  F   UNL     1      -1.159  -0.695   0.009  0.00  0.00    -0.202 F 
ATOM     22  F   UNL     1       1.228  -2.032  -0.022  0.00  0.00    -0.199 F 
ATOM     23  F   UNL     1       3.581  -0.635  -0.035  0.00  0.00    -0.202 F 
ENDBRANCH  14  16
ENDBRANCH   1  14
TORSDOF 4
