REMARK  Name = ZINC00292458
REMARK  3 active torsions:
REMARK  status: ('A' for Active; 'I' for Inactive)
REMARK    1  A    between atoms: C_4  and  C_7
REMARK    2  A    between atoms: C_7  and  N_8
REMARK    3  A    between atoms: N_19  and  N_20
REMARK                            x       y       z     vdW  Elec       q    Type
REMARK                         _______ _______ _______ _____ _____    ______ ____
ROOT
ATOM      1  N   UNL     1       4.152  -0.952   1.338  0.00  0.00    -0.275 N 
ATOM      2  C   UNL     1       4.923  -0.037   1.969  0.00  0.00    +0.263 A 
ATOM      3  O   UNL     1       5.260   0.994   1.415  0.00  0.00    -0.267 OA
ATOM      4  C   UNL     1       5.337  -0.331   3.347  0.00  0.00    +0.065 A 
ATOM      5  C   UNL     1       6.130   0.548   4.082  0.00  0.00    +0.015 A 
ATOM      6  C   UNL     1       6.487   0.225   5.363  0.00  0.00    +0.001 A 
ATOM      7  C   UNL     1       6.067  -0.969   5.936  0.00  0.00    +0.002 A 
ATOM      8  C   UNL     1       5.288  -1.849   5.238  0.00  0.00    +0.028 A 
ATOM      9  C   UNL     1       4.907  -1.546   3.928  0.00  0.00    +0.080 A 
ATOM     10  N   UNL     1       4.137  -2.388   3.200  0.00  0.00    -0.215 NA
ATOM     11  C   UNL     1       3.777  -2.100   1.974  0.00  0.00    +0.213 A 
ATOM     12  N   UNL     1       2.990  -2.996   1.296  0.00  0.00    -0.253 N 
ATOM     13  H   UNL     1       2.713  -2.807   0.385  0.00  0.00    +0.169 HD
ENDROOT
BRANCH  12  14
ATOM     14  N   UNL     1       2.596  -4.155   1.902  0.00  0.00    -0.254 NA
ATOM     15  H   UNL     1       2.025  -4.711   1.284  0.00  0.00    +0.140 HD
ATOM     16  H   UNL     1       3.393  -4.681   2.229  0.00  0.00    +0.140 HD
ENDBRANCH  12  14
BRANCH   1  17
ATOM     17  C   UNL     1       3.711  -0.707  -0.038  0.00  0.00    +0.163 C 
BRANCH  17  21
ATOM     18  C   UNL     1      -0.017   1.378   0.010  0.00  0.00    +0.000 A 
ATOM     19  C   UNL     1       1.171   2.086   0.002  0.00  0.00    +0.000 A 
ATOM     20  C   UNL     1       2.377   1.411  -0.013  0.00  0.00    +0.005 A 
ATOM     21  C   UNL     1       2.396   0.029  -0.020  0.00  0.00    -0.028 A 
ATOM     22  C   UNL     1       1.208  -0.679  -0.012  0.00  0.00    +0.005 A 
ATOM     23  C   UNL     1       0.002  -0.004   0.002  0.00  0.00    +0.000 A 
ENDBRANCH  17  21
ENDBRANCH   1  17
TORSDOF 3
