REMARK  Name = ZINC26033876
REMARK  8 active torsions:
REMARK  status: ('A' for Active; 'I' for Inactive)
REMARK    1  A    between atoms: C_1  and  C_2
REMARK    2  A    between atoms: C_2  and  C_25
REMARK    3  A    between atoms: N_5  and  C_9
REMARK    4  A    between atoms: C_9  and  C_10
REMARK    5  A    between atoms: N_12  and  C_13
REMARK    6  A    between atoms: N_12  and  C_14
REMARK    7  A    between atoms: C_14  and  C_15
REMARK    8  A    between atoms: N_17  and  C_18
REMARK                            x       y       z     vdW  Elec       q    Type
REMARK                         _______ _______ _______ _____ _____    ______ ____
ROOT
ATOM      1  C   UNL     1      -2.442   1.338  -2.942  0.00  0.00    +0.213 C 
ENDROOT
BRANCH   1   6
ATOM      2  C   UNL     1      -6.583  -0.309  -4.426  0.00  0.00    +0.047 C 
ATOM      3  C   UNL     1      -5.425  -0.790  -3.550  0.00  0.00    +0.135 C 
ATOM      4  C   UNL     1      -4.737   0.385  -2.883  0.00  0.00    +0.251 C 
ATOM      5  O   UNL     1      -5.227   1.175  -2.105  0.00  0.00    -0.272 OA
ATOM      6  N   UNL     1      -3.467   0.368  -3.334  0.00  0.00    -0.215 N 
ATOM      7  C   UNL     1      -3.261  -0.641  -4.188  0.00  0.00    +0.310 C 
ATOM      8  O   UNL     1      -2.195  -0.859  -4.730  0.00  0.00    -0.252 OA
ATOM      9  N   UNL     1      -4.363  -1.388  -4.377  0.00  0.00    -0.281 N 
ATOM     10  H   UNL     1      -4.576  -2.280  -4.985  0.00  0.00    +0.152 HD
BRANCH   3  11
ATOM     11  C   UNL     1      -5.912  -1.774  -2.518  0.00  0.00    -0.015 A 
ATOM     12  C   UNL     1      -6.277  -1.332  -1.260  0.00  0.00    +0.009 A 
ATOM     13  C   UNL     1      -6.728  -2.233  -0.314  0.00  0.00    +0.039 A 
ATOM     14  C   UNL     1      -6.805  -3.581  -0.624  0.00  0.00    +0.123 A 
ATOM     15  C   UNL     1      -6.435  -4.023  -1.883  0.00  0.00    +0.039 A 
ATOM     16  C   UNL     1      -5.989  -3.119  -2.829  0.00  0.00    +0.009 A 
ATOM     17  F   UNL     1      -7.242  -4.463   0.300  0.00  0.00    -0.205 F 
ENDBRANCH   3  11
ENDBRANCH   1   6
BRANCH   1  18
ATOM     18  C   UNL     1      -1.715   0.836  -1.722  0.00  0.00    +0.234 C 
ATOM     19  O   UNL     1      -2.024  -0.228  -1.227  0.00  0.00    -0.274 OA
ATOM     20  N   UNL     1      -0.723   1.569  -1.179  0.00  0.00    -0.294 N 
ATOM     21  C   UNL     1      -0.350   2.853  -1.776  0.00  0.00    +0.132 C 
BRANCH  20  22
ATOM     22  C   UNL     1      -0.016   1.080   0.008  0.00  0.00    +0.203 C 
BRANCH  22  23
ATOM     23  C   UNL     1      -0.717   1.573   1.248  0.00  0.00    +0.235 C 
ATOM     24  O   UNL     1      -1.709   2.265   1.150  0.00  0.00    -0.274 OA
ATOM     25  N   UNL     1      -0.242   1.246   2.466  0.00  0.00    -0.284 N 
ATOM     26  H   UNL     1       0.612   0.558   2.557  0.00  0.00    +0.155 HD
BRANCH  25  27
ATOM     27  C   UNL     1      -0.833   1.782   3.615  0.00  0.00    +0.035 A 
ATOM     28  C   UNL     1      -2.204   2.006   3.652  0.00  0.00    +0.023 A 
ATOM     29  C   UNL     1      -2.785   2.534   4.788  0.00  0.00    +0.003 A 
ATOM     30  C   UNL     1      -2.005   2.841   5.888  0.00  0.00    +0.020 A 
ATOM     31  C   UNL     1      -0.640   2.619   5.854  0.00  0.00    +0.043 A 
ATOM     32  C   UNL     1      -0.053   2.086   4.722  0.00  0.00    +0.043 A 
ATOM     33 CL   UNL     1       0.336   3.006   7.237  0.00  0.00    -0.083 Cl
ENDBRANCH  25  27
ENDBRANCH  22  23
ENDBRANCH  20  22
ENDBRANCH   1  18
TORSDOF 6
