REMARK  Name = ZINC15947078
REMARK  9 active torsions:
REMARK  status: ('A' for Active; 'I' for Inactive)
REMARK    1  A    between atoms: C_1  and  C_2
REMARK    2  A    between atoms: C_2  and  O_3
REMARK    3  A    between atoms: O_3  and  C_4
REMARK    4  A    between atoms: C_8  and  C_11
REMARK    5  A    between atoms: C_9  and  O_10
REMARK    6  A    between atoms: N_20  and  C_23
REMARK    7  A    between atoms: C_23  and  C_24
REMARK    8  A    between atoms: C_23  and  C_25
REMARK    9  A    between atoms: C_26  and  O_28
REMARK                            x       y       z     vdW  Elec       q    Type
REMARK                         _______ _______ _______ _____ _____    ______ ____
ROOT
ATOM      1  C   UNL     1       2.251  -4.380  -3.916  0.00  0.00    +0.229 C 
ATOM      2  N   UNL     1       2.853  -5.675  -3.551  0.00  0.00    -0.313 N 
ATOM      3  C   UNL     1       4.077  -5.624  -2.923  0.00  0.00    +0.080 A 
ATOM      4  C   UNL     1       4.946  -4.537  -3.083  0.00  0.00    +0.067 A 
ATOM      5  C   UNL     1       6.192  -4.620  -2.348  0.00  0.00    -0.027 A 
ATOM      6  C   UNL     1       6.341  -5.748  -1.614  0.00  0.00    -0.021 A 
ATOM      7  S   UNL     1       4.856  -6.669  -1.897  0.00  0.00    -0.080 S 
ATOM      8  C   UNL     1       7.521  -6.102  -0.765  0.00  0.00    -0.035 C 
ATOM      9  N   UNL     1       8.644  -5.226  -1.145  0.00  0.00    +0.384 N 
ATOM     10  C   UNL     1       8.199  -3.826  -1.146  0.00  0.00    -0.073 C 
ATOM     11  C   UNL     1       7.288  -3.563  -2.350  0.00  0.00    +0.018 C 
ATOM     12  C   UNL     1       4.508  -3.437  -3.980  0.00  0.00    +0.220 C 
ATOM     13  N   UNL     1       3.260  -3.426  -4.360  0.00  0.00    -0.223 NA
ATOM     14  H   UNL     1       2.411  -6.517  -3.743  0.00  0.00    +0.149 HD
ATOM     15  H   UNL     1       8.969  -5.476  -2.066  0.00  0.00    -0.081 HD
ENDROOT
BRANCH   1  20
ATOM     16  C   UNL     1       0.749  -1.925  -1.458  0.00  0.00    +0.164 A 
ATOM     17  C   UNL     1       0.215  -2.781  -0.508  0.00  0.00    +0.071 A 
ATOM     18  C   UNL     1       0.341  -4.150  -0.664  0.00  0.00    +0.063 A 
ATOM     19  C   UNL     1       1.000  -4.666  -1.767  0.00  0.00    +0.070 A 
ATOM     20  C   UNL     1       1.534  -3.815  -2.717  0.00  0.00    +0.059 A 
ATOM     21  C   UNL     1       1.406  -2.443  -2.569  0.00  0.00    +0.167 A 
ATOM     22 CL   UNL     1       1.155  -6.385  -1.957  0.00  0.00    -0.082 Cl
ATOM     23 CL   UNL     1      -0.328  -5.222   0.526  0.00  0.00    -0.082 Cl
BRANCH  21  24
ATOM     24  O   UNL     1       1.926  -1.606  -3.506  0.00  0.00    -0.503 OA
ATOM     25  H   UNL     1       2.841  -1.343  -3.334  0.00  0.00    +0.292 HD
ENDBRANCH  21  24
BRANCH  16  26
ATOM     26  O   UNL     1       0.626  -0.578  -1.306  0.00  0.00    -0.489 OA
BRANCH  26  28
ATOM     27  C   UNL     1      -0.100   1.413  -0.145  0.00  0.00    +0.048 C 
ATOM     28  C   UNL     1      -0.061  -0.117  -0.141  0.00  0.00    +0.226 C 
ENDBRANCH  26  28
ENDBRANCH  16  26
ENDBRANCH   1  20
BRANCH   9  29
ATOM     29  C   UNL     1       9.740  -5.389  -0.179  0.00  0.00    -0.074 C 
ATOM     30  C   UNL     1      10.113  -6.869  -0.078  0.00  0.00    -0.014 C 
ATOM     31  C   UNL     1      10.956  -4.587  -0.647  0.00  0.00    -0.014 C 
ENDBRANCH   9  29
BRANCH  12  32
ATOM     32  O   UNL     1       5.373  -2.479  -4.388  0.00  0.00    -0.492 OA
ATOM     33  H   UNL     1       4.978  -1.815  -4.969  0.00  0.00    +0.294 HD
ENDBRANCH  12  32
TORSDOF 6
