REMARK  Name = ZINC31628469
REMARK  2 active torsions:
REMARK  status: ('A' for Active; 'I' for Inactive)
REMARK    1  A    between atoms: N_13  and  C_14
REMARK    2  A    between atoms: C_14  and  C_15
REMARK                            x       y       z     vdW  Elec       q    Type
REMARK                         _______ _______ _______ _____ _____    ______ ____
ROOT
ATOM      1  C   UNL     1      -3.873  -1.640   0.037  0.00  0.00    +0.203 A 
ATOM      2  N   UNL     1      -3.666  -0.350   0.040  0.00  0.00    -0.230 NA
ATOM      3  C   UNL     1      -2.430   0.142   0.029  0.00  0.00    +0.116 A 
ATOM      4  C   UNL     1      -1.301  -0.686   0.013  0.00  0.00    +0.076 A 
ATOM      5  C   UNL     1       0.002  -0.004   0.002  0.00  0.00    -0.023 A 
ATOM      6  C   UNL     1      -0.016   1.340   0.009  0.00  0.00    -0.004 A 
ATOM      7  S   UNL     1      -1.740   1.776   0.035  0.00  0.00    -0.073 S 
ATOM      8  C   UNL     1       1.370   1.927  -0.001  0.00  0.00    +0.043 C 
ATOM      9  C   UNL     1       2.288   0.759   0.423  0.00  0.00    +0.010 C 
ATOM     10  C   UNL     1       1.462  -0.465  -0.018  0.00  0.00    +0.037 C 
ATOM     11  C   UNL     1      -1.560  -2.095   0.010  0.00  0.00    +0.263 A 
ATOM     12  O   UNL     1      -0.641  -2.896  -0.004  0.00  0.00    -0.267 OA
ATOM     13  N   UNL     1      -2.838  -2.519   0.021  0.00  0.00    -0.291 N 
ENDROOT
BRANCH  13  14
ATOM     14  C   UNL     1      -3.118  -3.957   0.018  0.00  0.00    +0.202 C 
BRANCH  14  15
ATOM     15  C   UNL     1      -3.229  -4.444  -1.404  0.00  0.00    +0.156 A 
ATOM     16  N   UNL     1      -4.403  -4.443  -2.011  0.00  0.00    -0.198 NA
ATOM     17  C   UNL     1      -4.505  -4.867  -3.269  0.00  0.00    +0.217 A 
ATOM     18  N   UNL     1      -3.426  -5.301  -3.911  0.00  0.00    -0.181 NA
ATOM     19  C   UNL     1      -2.248  -5.305  -3.296  0.00  0.00    +0.217 A 
ATOM     20  N   UNL     1      -2.154  -4.875  -2.039  0.00  0.00    -0.198 NA
ATOM     21  N   UNL     1      -1.124  -5.756  -3.958  0.00  0.00    -0.327 N 
ATOM     22  N   UNL     1      -5.730  -4.860  -3.903  0.00  0.00    -0.327 N 
ATOM     23  H   UNL     1      -0.150  -5.759  -3.448  0.00  0.00    +0.145 HD
ATOM     24  H   UNL     1      -1.203  -6.112  -4.996  0.00  0.00    +0.145 HD
ATOM     25  H   UNL     1      -5.813  -5.210  -4.943  0.00  0.00    +0.145 HD
ATOM     26  H   UNL     1      -6.624  -4.504  -3.370  0.00  0.00    +0.145 HD
ENDBRANCH  14  15
ENDBRANCH  13  14
TORSDOF 2
