REMARK  Name = ZINC47006963
REMARK  7 active torsions:
REMARK  status: ('A' for Active; 'I' for Inactive)
REMARK    1  A    between atoms: C_1  and  C_2
REMARK    2  A    between atoms: C_3  and  C_8
REMARK    3  A    between atoms: N_6  and  C_7
REMARK    4  A    between atoms: C_8  and  C_10
REMARK    5  A    between atoms: C_8  and  N_11
REMARK    6  A    between atoms: N_14  and  N_15
REMARK    7  A    between atoms: N_15  and  C_16
REMARK                            x       y       z     vdW  Elec       q    Type
REMARK                         _______ _______ _______ _____ _____    ______ ____
ROOT
ATOM      1  N   UNL     1      -0.209  -1.442  -3.603  0.00  0.00    -0.292 N 
ATOM      2  C   UNL     1      -0.895  -1.094  -4.709  0.00  0.00    +0.316 C 
ATOM      3  O   UNL     1      -0.873   0.057  -5.102  0.00  0.00    -0.251 OA
ATOM      4  N   UNL     1      -1.606  -2.021  -5.381  0.00  0.00    -0.220 N 
ATOM      5  H   UNL     1      -0.226  -2.360  -3.290  0.00  0.00    +0.151 HD
ATOM      6  H   UNL     1      -2.100  -1.771  -6.177  0.00  0.00    +0.174 HD
ENDROOT
BRANCH   1   7
ATOM      7  C   UNL     1       0.564  -0.434  -2.873  0.00  0.00    +0.105 C 
ATOM      8  C   UNL     1       1.948  -0.293  -3.510  0.00  0.00    +0.033 C 
BRANCH   7  11
ATOM      9  C   UNL     1       1.046   1.462  -0.432  0.00  0.00    +0.065 C 
ATOM     10  C   UNL     1       0.921  -0.039  -0.380  0.00  0.00    +0.041 A 
ATOM     11  C   UNL     1       0.713  -0.859  -1.435  0.00  0.00    +0.013 A 
ATOM     12  C   UNL     1       0.661  -2.172  -0.956  0.00  0.00    +0.140 A 
ATOM     13  N   UNL     1       0.832  -2.141   0.341  0.00  0.00    -0.179 NA
ATOM     14  N   UNL     1       1.003  -0.806   0.728  0.00  0.00    -0.271 N 
ATOM     15  C   UNL     1       1.229  -0.326   2.094  0.00  0.00    +0.172 C 
ENDBRANCH   7  11
ENDBRANCH   1   7
BRANCH   4  16
ATOM     16  N   UNL     1      -1.631  -3.347  -4.929  0.00  0.00    -0.261 N 
ATOM     17  H   UNL     1      -1.207  -3.581  -4.089  0.00  0.00    +0.170 HD
BRANCH  16  18
ATOM     18  C   UNL     1      -2.270  -4.333  -5.689  0.00  0.00    +0.081 A 
ATOM     19  C   UNL     1      -2.956  -5.363  -5.058  0.00  0.00    +0.066 A 
ATOM     20  C   UNL     1      -3.585  -6.336  -5.811  0.00  0.00    +0.042 A 
ATOM     21  C   UNL     1      -3.532  -6.285  -7.193  0.00  0.00    +0.044 A 
ATOM     22  C   UNL     1      -2.849  -5.261  -7.825  0.00  0.00    +0.042 A 
ATOM     23  C   UNL     1      -2.223  -4.281  -7.077  0.00  0.00    +0.066 A 
ATOM     24 CL   UNL     1      -1.373  -2.992  -7.870  0.00  0.00    -0.081 Cl
ATOM     25 CL   UNL     1      -4.323  -7.510  -8.136  0.00  0.00    -0.083 Cl
ATOM     26 CL   UNL     1      -3.023  -5.428  -3.324  0.00  0.00    -0.081 Cl
ENDBRANCH  16  18
ENDBRANCH   4  16
TORSDOF 4
