REMARK  Name = ZINC63350638
REMARK  2 active torsions:
REMARK  status: ('A' for Active; 'I' for Inactive)
REMARK    1  A    between atoms: C_8  and  C_16
REMARK    2  A    between atoms: N_22  and  C_25
REMARK                            x       y       z     vdW  Elec       q    Type
REMARK                         _______ _______ _______ _____ _____    ______ ____
ROOT
ATOM      1  C   UNL     1       5.385  -2.566  -0.670  0.00  0.00    +0.101 A 
ATOM      2  C   UNL     1       6.005  -2.661  -1.880  0.00  0.00    +0.261 A 
ATOM      3  N   UNL     1       7.098  -3.478  -2.016  0.00  0.00    -0.302 N 
ATOM      4  H   UNL     1       7.543  -3.549  -2.875  0.00  0.00    +0.171 HD
ATOM      5  C   UNL     1       7.559  -4.181  -0.965  0.00  0.00    +0.168 A 
ATOM      6  S   UNL     1       8.926  -5.193  -1.160  0.00  0.00    -0.012 S 
ATOM      7  N   UNL     1       6.960  -4.101   0.238  0.00  0.00    -0.256 N 
ATOM      8  C   UNL     1       5.887  -3.305   0.416  0.00  0.00    +0.268 A 
ATOM      9  O   UNL     1       5.352  -3.232   1.508  0.00  0.00    -0.267 OA
ATOM     10  O   UNL     1       5.546  -1.958  -2.937  0.00  0.00    -0.267 OA
ENDROOT
BRANCH   1  17
ATOM     11  C   UNL     1       3.193   3.913   0.288  0.00  0.00    +0.001 A 
ATOM     12  C   UNL     1       4.494   4.011  -0.227  0.00  0.00    +0.002 A 
ATOM     13  C   UNL     1       5.294   2.937  -0.390  0.00  0.00    +0.026 A 
ATOM     14  C   UNL     1       4.838   1.637  -0.039  0.00  0.00    +0.043 A 
ATOM     15  N   UNL     1       5.410   0.457  -0.127  0.00  0.00    -0.376 N 
ATOM     16  C   UNL     1       4.519  -0.534   0.467  0.00  0.00    +0.128 C 
ATOM     17  C   UNL     1       4.182  -1.675  -0.496  0.00  0.00    +0.121 C 
ATOM     18  N   UNL     1       3.069  -2.450   0.076  0.00  0.00    -0.307 NA
ATOM     19  C   UNL     1       1.812  -1.698   0.136  0.00  0.00    +0.086 C 
ATOM     20  C   UNL     1       1.949  -0.517   1.115  0.00  0.00    +0.048 C 
ATOM     21  C   UNL     1       3.224   0.211   0.752  0.00  0.00    -0.035 C 
ATOM     22  C   UNL     1       3.462   1.504   0.501  0.00  0.00    -0.001 A 
ATOM     23  C   UNL     1       2.660   2.725   0.651  0.00  0.00    +0.010 A 
ATOM     24  H   UNL     1       2.945  -3.322  -0.415  0.00  0.00    +0.123 HD
ATOM     25  H   UNL     1       6.278   0.276  -0.521  0.00  0.00    +0.160 HD
ENDBRANCH   1  17
BRANCH   7  26
ATOM     26  C   UNL     1       7.461  -4.844   1.315  0.00  0.00    +0.052 A 
ATOM     27  C   UNL     1       6.990  -6.128   1.552  0.00  0.00    +0.029 A 
ATOM     28  C   UNL     1       7.485  -6.860   2.614  0.00  0.00    +0.040 A 
ATOM     29  C   UNL     1       8.451  -6.313   3.442  0.00  0.00    +0.124 A 
ATOM     30  C   UNL     1       8.922  -5.032   3.208  0.00  0.00    +0.040 A 
ATOM     31  C   UNL     1       8.434  -4.300   2.144  0.00  0.00    +0.029 A 
ATOM     32  F   UNL     1       8.934  -7.030   4.480  0.00  0.00    -0.205 F 
ENDBRANCH   7  26
TORSDOF 2
