REMARK  Name = ZINC63808361
REMARK  9 active torsions:
REMARK  status: ('A' for Active; 'I' for Inactive)
REMARK    1  A    between atoms: C_1  and  C_2
REMARK    2  A    between atoms: N_4  and  C_5
REMARK    3  A    between atoms: C_10  and  O_11
REMARK    4  A    between atoms: O_11  and  C_12
REMARK    5  A    between atoms: C_12  and  C_13
REMARK    6  A    between atoms: C_16  and  C_20
REMARK    7  A    between atoms: N_22  and  C_23
REMARK    8  A    between atoms: C_23  and  C_24
REMARK    9  A    between atoms: C_24  and  C_25
REMARK                            x       y       z     vdW  Elec       q    Type
REMARK                         _______ _______ _______ _____ _____    ______ ____
ROOT
ATOM      1  C   UNL     1      -5.982  -1.831  -0.236  0.00  0.00    +0.188 C 
ATOM      2  N   UNL     1      -5.965  -1.010   1.004  0.00  0.00    -0.263 NA
ATOM      3  C   UNL     1      -6.727   0.201   0.602  0.00  0.00    +0.297 C 
ATOM      4  O   UNL     1      -6.333   0.449  -0.760  0.00  0.00    -0.270 OA
ATOM      5  N   UNL     1      -5.867  -0.830  -1.323  0.00  0.00    -0.178 NA
ATOM      6  H   UNL     1      -6.425  -1.491   1.763  0.00  0.00    +0.126 HD
ATOM      7  H   UNL     1      -4.915  -0.757  -1.648  0.00  0.00    +0.156 HD
ENDROOT
BRANCH   3   8
ATOM      8  C   UNL     1      -6.355   1.369   1.478  0.00  0.00    +0.259 C 
ATOM      9  O   UNL     1      -5.714   2.292   1.020  0.00  0.00    -0.271 OA
ATOM     10  N   UNL     1      -6.733   1.389   2.772  0.00  0.00    -0.312 N 
ATOM     11  H   UNL     1      -7.245   0.652   3.139  0.00  0.00    +0.149 HD
BRANCH  10  12
ATOM     12  C   UNL     1      -6.372   2.525   3.624  0.00  0.00    +0.108 C 
BRANCH  12  13
ATOM     13  C   UNL     1      -6.920   2.299   5.034  0.00  0.00    +0.052 C 
BRANCH  13  14
ATOM     14  C   UNL     1      -6.548   3.467   5.911  0.00  0.00    -0.040 C 
ATOM     15  C   UNL     1      -7.307   4.552   6.185  0.00  0.00    +0.000 A 
ATOM     16  C   UNL     1      -8.655   4.954   5.766  0.00  0.00    +0.030 A 
ATOM     17  C   UNL     1      -9.160   6.126   6.215  0.00  0.00    +0.042 A 
ATOM     18  C   UNL     1      -8.429   6.964   7.070  0.00  0.00    +0.022 A 
ATOM     19  C   UNL     1      -7.185   6.662   7.498  0.00  0.00    +0.027 A 
ATOM     20  C   UNL     1      -6.557   5.454   7.088  0.00  0.00    +0.043 A 
ATOM     21  N   UNL     1      -5.379   4.947   7.361  0.00  0.00    -0.380 N 
ATOM     22  C   UNL     1      -5.252   3.661   6.666  0.00  0.00    +0.144 C 
ATOM     23 CL   UNL     1     -10.754   6.605   5.721  0.00  0.00    -0.084 Cl
ATOM     24  H   UNL     1      -4.706   5.352   7.930  0.00  0.00    +0.160 HD
ENDBRANCH  13  14
ENDBRANCH  12  13
ENDBRANCH  10  12
ENDBRANCH   3   8
BRANCH   1  25
ATOM     25  C   UNL     1      -4.791  -2.792  -0.261  0.00  0.00    +0.265 C 
BRANCH  25  26
ATOM     26  O   UNL     1      -3.575  -2.046  -0.168  0.00  0.00    -0.487 OA
BRANCH  26  32
ATOM     27  C   UNL     1      -1.192  -2.091  -0.088  0.00  0.00    +0.076 A 
ATOM     28  C   UNL     1      -0.011  -2.819  -0.092  0.00  0.00    +0.027 A 
ATOM     29  C   UNL     1      -0.050  -4.197  -0.188  0.00  0.00    +0.002 A 
ATOM     30  C   UNL     1      -1.263  -4.854  -0.281  0.00  0.00    +0.004 A 
ATOM     31  C   UNL     1      -2.444  -4.135  -0.278  0.00  0.00    +0.047 A 
ATOM     32  C   UNL     1      -2.414  -2.753  -0.176  0.00  0.00    +0.142 A 
BRANCH  27  36
ATOM     33  C   UNL     1      -0.167   1.503  -0.550  0.00  0.00    +0.109 C 
ATOM     34  C   UNL     1      -0.153  -0.004  -0.569  0.00  0.00    +0.214 C 
ATOM     35  O   UNL     1       0.760  -0.595  -1.105  0.00  0.00    -0.276 OA
ATOM     36  N   UNL     1      -1.156  -0.694   0.009  0.00  0.00    -0.283 N 
ATOM     37  H   UNL     1      -1.852  -0.223   0.493  0.00  0.00    +0.155 HD
ENDBRANCH  27  36
ENDBRANCH  26  32
ENDBRANCH  25  26
ENDBRANCH   1  25
TORSDOF 8
