REMARK  Name = ZINC03670209
REMARK  8 active torsions:
REMARK  status: ('A' for Active; 'I' for Inactive)
REMARK    1  A    between atoms: C_1  and  C_2
REMARK    2  A    between atoms: C_5  and  N_9
REMARK    3  A    between atoms: C_7  and  C_8
REMARK    4  A    between atoms: C_19  and  C_20
REMARK    5  A    between atoms: C_19  and  O_31
REMARK    6  A    between atoms: N_22  and  C_23
REMARK    7  A    between atoms: C_23  and  C_24
REMARK    8  A    between atoms: C_24  and  C_25
REMARK                            x       y       z     vdW  Elec       q    Type
REMARK                         _______ _______ _______ _____ _____    ______ ____
ROOT
ATOM      1  N   UNL     1       1.162   3.485   0.009  0.00  0.00    -0.214 N 
ATOM      2  C   UNL     1       2.311   4.179   0.103  0.00  0.00    +0.314 C 
ATOM      3  O   UNL     1       3.356   3.562   0.181  0.00  0.00    -0.252 OA
ATOM      4  N   UNL     1       2.358   5.517   0.114  0.00  0.00    -0.269 N 
ATOM      5  C   UNL     1       1.218   6.317   0.030  0.00  0.00    +0.043 A 
ATOM      6  C   UNL     1       1.321   7.702   0.047  0.00  0.00    +0.024 A 
ATOM      7  C   UNL     1       0.181   8.477  -0.037  0.00  0.00    +0.002 A 
ATOM      8  C   UNL     1      -1.063   7.881  -0.137  0.00  0.00    +0.001 A 
ATOM      9  C   UNL     1      -1.171   6.500  -0.154  0.00  0.00    +0.010 A 
ATOM     10  C   UNL     1      -0.037   5.727  -0.071  0.00  0.00    +0.033 A 
ATOM     11  C   UNL     1      -0.112   4.217  -0.092  0.00  0.00    +0.247 C 
ATOM     12  H   UNL     1       3.223   5.949   0.184  0.00  0.00    +0.156 HD
ENDROOT
BRANCH   1  17
ATOM     13  C   UNL     1       1.224  -2.188  -0.020  0.00  0.00    +0.044 C 
ATOM     14  C   UNL     1       1.207  -0.681  -0.012  0.00  0.00    -0.047 A 
ATOM     15  C   UNL     1       0.982   0.001   1.170  0.00  0.00    +0.005 A 
ATOM     16  C   UNL     1       0.967   1.382   1.180  0.00  0.00    +0.024 A 
ATOM     17  C   UNL     1       1.177   2.086   0.002  0.00  0.00    +0.042 A 
ATOM     18  C   UNL     1       1.403   1.399  -1.183  0.00  0.00    +0.027 A 
ATOM     19  C   UNL     1       1.417   0.018  -1.187  0.00  0.00    -0.046 A 
ATOM     20  C   UNL     1       1.662  -0.729  -2.473  0.00  0.00    +0.044 C 
ENDBRANCH   1  17
BRANCH  11  21
ATOM     21  C   UNL     1      -0.788   3.799  -1.372  0.00  0.00    +0.269 C 
ATOM     22  O   UNL     1      -1.920   3.362  -1.345  0.00  0.00    -0.270 OA
ATOM     23  N   UNL     1      -0.136   3.909  -2.546  0.00  0.00    -0.311 N 
ATOM     24  H   UNL     1       0.769   4.257  -2.567  0.00  0.00    +0.149 HD
BRANCH  23  25
ATOM     25  C   UNL     1      -0.793   3.501  -3.790  0.00  0.00    +0.108 C 
BRANCH  25  26
ATOM     26  C   UNL     1       0.158   3.727  -4.967  0.00  0.00    +0.049 C 
BRANCH  26  27
ATOM     27  C   UNL     1      -0.518   3.308  -6.247  0.00  0.00    -0.072 C 
ATOM     28  C   UNL     1      -1.123   4.219  -6.940  0.00  0.00    -0.028 C 
ATOM     29  C   UNL     1      -1.844   3.954  -8.230  0.00  0.00    +0.027 C 
ATOM     30  C   UNL     1      -1.420   2.600  -8.803  0.00  0.00    +0.004 C 
ATOM     31  C   UNL     1      -1.519   1.550  -7.690  0.00  0.00    +0.005 C 
ATOM     32  C   UNL     1      -0.454   1.860  -6.636  0.00  0.00    +0.030 C 
ENDBRANCH  26  27
ENDBRANCH  25  26
ENDBRANCH  23  25
ENDBRANCH  11  21
BRANCH  11  33
ATOM     33  O   UNL     1      -0.944   3.807   0.995  0.00  0.00    -0.360 OA
ATOM     34  H   UNL     1      -1.809   4.238   1.013  0.00  0.00    +0.213 HD
ENDBRANCH  11  33
TORSDOF 6
