REMARK  Name = ZINC41728603
REMARK  9 active torsions:
REMARK  status: ('A' for Active; 'I' for Inactive)
REMARK    1  A    between atoms: C_1  and  C_2
REMARK    2  A    between atoms: C_5  and  C_30
REMARK    3  A    between atoms: N_8  and  C_10
REMARK    4  A    between atoms: C_10  and  C_11
REMARK    5  A    between atoms: C_11  and  C_12
REMARK    6  A    between atoms: C_12  and  N_13
REMARK    7  A    between atoms: C_14  and  C_16
REMARK    8  A    between atoms: N_18  and  C_19
REMARK    9  A    between atoms: C_21  and  N_27
REMARK                            x       y       z     vdW  Elec       q    Type
REMARK                         _______ _______ _______ _____ _____    ______ ____
ROOT
ATOM      1  N   UNL     1       5.194  -2.092   3.305  0.00  0.00    -0.308 N 
ATOM      2  C   UNL     1       6.097  -2.430   4.247  0.00  0.00    +0.299 C 
ATOM      3  O   UNL     1       5.751  -3.069   5.218  0.00  0.00    -0.265 OA
ATOM      4  H   UNL     1       5.471  -1.581   2.529  0.00  0.00    +0.149 HD
ENDROOT
BRANCH   2   5
ATOM      5  C   UNL     1       7.524  -2.018   4.094  0.00  0.00    +0.303 C 
ATOM      6  O   UNL     1       7.871  -1.378   3.122  0.00  0.00    -0.265 OA
ATOM      7  N   UNL     1       8.428  -2.355   5.036  0.00  0.00    -0.275 N 
ATOM      8  H   UNL     1       8.140  -2.810   5.843  0.00  0.00    +0.155 HD
BRANCH   7   9
ATOM      9  C   UNL     1       9.780  -2.051   4.848  0.00  0.00    +0.072 A 
ATOM     10  C   UNL     1      10.146  -0.886   4.188  0.00  0.00    +0.062 A 
ATOM     11  C   UNL     1      11.482  -0.587   4.004  0.00  0.00    +0.163 A 
ATOM     12  C   UNL     1      12.458  -1.448   4.478  0.00  0.00    +0.156 A 
ATOM     13  C   UNL     1      12.097  -2.612   5.136  0.00  0.00    +0.081 A 
ATOM     14  C   UNL     1      10.761  -2.913   5.329  0.00  0.00    +0.147 A 
ATOM     15  F   UNL     1      10.409  -4.044   5.977  0.00  0.00    -0.203 F 
ATOM     16  F   UNL     1      13.763  -1.153   4.296  0.00  0.00    -0.203 F 
BRANCH  11  17
ATOM     17  N   UNL     1      11.871   0.655   3.300  0.00  0.00    +0.059 N 
ATOM     18  O   UNL     1      11.020   1.408   2.886  0.00  0.00    -0.126 OA
ATOM     19  O   UNL     1      13.040   0.918   3.138  0.00  0.00    -0.126 OA
ENDBRANCH  11  17
ENDBRANCH   7   9
ENDBRANCH   2   5
BRANCH   1  20
ATOM     20  C   UNL     1       3.794  -2.497   3.455  0.00  0.00    +0.103 C 
BRANCH  20  21
ATOM     21  C   UNL     1       2.986  -1.990   2.259  0.00  0.00    +0.000 C 
BRANCH  21  22
ATOM     22  C   UNL     1       1.524  -2.412   2.415  0.00  0.00    -0.077 C 
BRANCH  22  28
ATOM     23  C   UNL     1      -0.008   1.584   0.038  0.00  0.00    +0.005 C 
ATOM     24  C   UNL     1       0.001   0.054   0.031  0.00  0.00    -0.031 C 
ATOM     25  C   UNL     1      -1.439  -0.466   0.049  0.00  0.00    +0.003 C 
ATOM     26  C   UNL     1      -1.417  -1.996   0.121  0.00  0.00    -0.031 C 
ATOM     27  C   UNL     1      -0.627  -2.432   1.356  0.00  0.00    -0.076 C 
ATOM     28  N   UNL     1       0.748  -1.926   1.266  0.00  0.00    +0.380 N 
ATOM     29  C   UNL     1       0.740  -0.458   1.269  0.00  0.00    -0.076 C 
ATOM     30  C   UNL     1      -0.751  -2.557  -1.137  0.00  0.00    +0.005 C 
ATOM     31  H   UNL     1       1.172  -2.257   0.412  0.00  0.00    -0.082 HD
ENDBRANCH  22  28
ENDBRANCH  21  22
ENDBRANCH  20  21
ENDBRANCH   1  20
TORSDOF 7
