REMARK  Name = ZINC50553672
REMARK  9 active torsions:
REMARK  status: ('A' for Active; 'I' for Inactive)
REMARK    1  A    between atoms: C_1  and  C_2
REMARK    2  A    between atoms: C_2  and  C_3
REMARK    3  A    between atoms: C_2  and  N_4
REMARK    4  A    between atoms: C_5  and  C_7
REMARK    5  A    between atoms: N_9  and  N_10
REMARK    6  A    between atoms: C_11  and  C_13
REMARK    7  A    between atoms: C_13  and  C_14
REMARK    8  A    between atoms: C_13  and  C_15
REMARK    9  A    between atoms: C_13  and  C_16
REMARK                            x       y       z     vdW  Elec       q    Type
REMARK                         _______ _______ _______ _____ _____    ______ ____
ROOT
ATOM      1  N   UNL     1      -5.452  -1.763  -2.277  0.00  0.00    -0.233 N 
ATOM      2  C   UNL     1      -6.132  -1.887  -3.434  0.00  0.00    +0.239 C 
ATOM      3  O   UNL     1      -5.613  -1.562  -4.480  0.00  0.00    -0.273 OA
ATOM      4  H   UNL     1      -5.868  -2.023  -1.440  0.00  0.00    +0.173 HD
ENDROOT
BRANCH   1   7
ATOM      5  C   UNL     1      -3.466  -1.135  -1.126  0.00  0.00    +0.315 C 
ATOM      6  O   UNL     1      -3.986  -1.460  -0.079  0.00  0.00    -0.264 OA
ATOM      7  N   UNL     1      -4.145  -1.259  -2.283  0.00  0.00    -0.227 N 
ATOM      8  H   UNL     1      -3.730  -0.999  -3.120  0.00  0.00    +0.173 HD
BRANCH   5  10
ATOM      9  N   UNL     1      -1.391  -0.472   0.025  0.00  0.00    -0.305 N 
ATOM     10  C   UNL     1      -2.071  -0.596  -1.132  0.00  0.00    +0.301 C 
ATOM     11  O   UNL     1      -1.551  -0.271  -2.179  0.00  0.00    -0.265 OA
ATOM     12  H   UNL     1      -1.807  -0.733   0.862  0.00  0.00    +0.149 HD
BRANCH   9  14
ATOM     13  C   UNL     1      -0.068   1.584   0.051  0.00  0.00    +0.027 C 
ATOM     14  C   UNL     1      -0.025   0.055   0.019  0.00  0.00    +0.067 C 
ATOM     15  C   UNL     1       0.726  -0.460   1.248  0.00  0.00    +0.027 C 
ENDBRANCH   9  14
ENDBRANCH   5  10
ENDBRANCH   1   7
BRANCH   2  16
ATOM     16  C   UNL     1      -7.538  -2.430  -3.428  0.00  0.00    +0.068 C 
ATOM     17  C   UNL     1      -7.521  -3.883  -2.951  0.00  0.00    +0.025 C 
ATOM     18  C   UNL     1      -8.403  -1.593  -2.483  0.00  0.00    +0.025 C 
BRANCH  16  19
ATOM     19  C   UNL     1      -8.108  -2.365  -4.821  0.00  0.00    -0.031 A 
ATOM     20  C   UNL     1      -7.569  -3.147  -5.825  0.00  0.00    +0.006 A 
ATOM     21  C   UNL     1      -8.091  -3.088  -7.104  0.00  0.00    +0.022 A 
ATOM     22  C   UNL     1      -9.153  -2.246  -7.379  0.00  0.00    +0.059 A 
ATOM     23  C   UNL     1      -9.693  -1.463  -6.374  0.00  0.00    +0.060 A 
ATOM     24  C   UNL     1      -9.173  -1.527  -5.093  0.00  0.00    +0.026 A 
ATOM     25 CL   UNL     1     -11.026  -0.405  -6.718  0.00  0.00    -0.082 Cl
ATOM     26 CL   UNL     1      -9.808  -2.171  -8.985  0.00  0.00    -0.082 Cl
ENDBRANCH  16  19
ENDBRANCH   2  16
TORSDOF 5
