REMARK  Name = ZINC38613236
REMARK  8 active torsions:
REMARK  status: ('A' for Active; 'I' for Inactive)
REMARK    1  A    between atoms: C_1  and  C_2
REMARK    2  A    between atoms: C_2  and  C_3
REMARK    3  A    between atoms: C_2  and  C_4
REMARK    4  A    between atoms: C_6  and  C_10
REMARK    5  A    between atoms: N_12  and  N_13
REMARK    6  A    between atoms: C_14  and  C_15
REMARK    7  A    between atoms: C_14  and  C_16
REMARK    8  A    between atoms: C_19  and  N_22
REMARK                            x       y       z     vdW  Elec       q    Type
REMARK                         _______ _______ _______ _____ _____    ______ ____
ROOT
ATOM      1  C   UNL     1      -1.968  -3.822  -0.622  0.00  0.00    +0.263 C 
ATOM      2  O   UNL     1      -1.737  -4.418   0.410  0.00  0.00    -0.271 OA
ATOM      3  N   UNL     1      -2.906  -4.284  -1.471  0.00  0.00    -0.205 N 
ATOM      4  H   UNL     1      -3.091  -3.808  -2.296  0.00  0.00    +0.177 HD
ENDROOT
BRANCH   1   7
ATOM      5  C   UNL     1       1.022  -2.529  -1.277  0.00  0.00    +0.064 C 
ATOM      6  C   UNL     1      -0.088  -2.860  -1.940  0.00  0.00    +0.036 C 
ATOM      7  C   UNL     1      -1.204  -2.566  -0.953  0.00  0.00    +0.240 C 
ATOM      8  N   UNL     1      -0.480  -2.065   0.227  0.00  0.00    -0.170 NA
ATOM      9  N   UNL     1       0.725  -2.085  -0.035  0.00  0.00    -0.158 NA
BRANCH   5  11
ATOM     10  C   UNL     1       3.076  -1.260  -1.840  0.00  0.00    +0.014 C 
ATOM     11  C   UNL     1       2.417  -2.640  -1.835  0.00  0.00    +0.033 C 
ATOM     12  C   UNL     1       3.239  -3.594  -0.966  0.00  0.00    +0.014 C 
ENDBRANCH   5  11
ENDBRANCH   1   7
BRANCH   3  13
ATOM     13  N   UNL     1      -3.616  -5.452  -1.163  0.00  0.00    -0.184 NA
ATOM     14  C   UNL     1      -4.436  -5.961  -2.030  0.00  0.00    +0.063 C 
ATOM     15  C   UNL     1      -5.336  -7.104  -1.636  0.00  0.00    +0.068 C 
BRANCH  14  16
ATOM     16  C   UNL     1      -4.487  -5.422  -3.402  0.00  0.00    -0.002 A 
ATOM     17  C   UNL     1      -3.316  -4.995  -4.032  0.00  0.00    +0.012 A 
ATOM     18  C   UNL     1      -3.371  -4.491  -5.315  0.00  0.00    +0.033 A 
ATOM     19  C   UNL     1      -4.583  -4.408  -5.977  0.00  0.00    +0.126 A 
ATOM     20  C   UNL     1      -5.747  -4.828  -5.359  0.00  0.00    +0.033 A 
ATOM     21  C   UNL     1      -5.706  -5.340  -4.079  0.00  0.00    +0.012 A 
BRANCH  19  22
ATOM     22  N   UNL     1      -4.634  -3.866  -7.354  0.00  0.00    +0.056 N 
ATOM     23  O   UNL     1      -3.619  -3.497  -7.896  0.00  0.00    -0.126 OA
ATOM     24  O   UNL     1      -5.692  -3.792  -7.935  0.00  0.00    -0.126 OA
ENDBRANCH  19  22
ENDBRANCH  14  16
ENDBRANCH   3  13
TORSDOF 5
