REMARK  Name = ZINC17262949
REMARK  8 active torsions:
REMARK  status: ('A' for Active; 'I' for Inactive)
REMARK    1  A    between atoms: C_3  and  C_10
REMARK    2  A    between atoms: C_5  and  N_7
REMARK    3  A    between atoms: N_12  and  C_13
REMARK    4  A    between atoms: C_13  and  C_14
REMARK    5  A    between atoms: N_16  and  C_17
REMARK    6  A    between atoms: C_17  and  C_18
REMARK    7  A    between atoms: C_18  and  N_19
REMARK    8  A    between atoms: C_23  and  C_24
REMARK                            x       y       z     vdW  Elec       q    Type
REMARK                         _______ _______ _______ _____ _____    ______ ____
ROOT
ATOM      1  C   UNL     1       1.817   9.086   0.327  0.00  0.00    +0.230 C 
ATOM      2  O   UNL     1       2.660   8.257   0.597  0.00  0.00    -0.274 OA
ATOM      3  N   UNL     1       2.180  10.357   0.069  0.00  0.00    -0.313 N 
ATOM      4  H   UNL     1       1.506  11.020  -0.147  0.00  0.00    +0.149 HD
ENDROOT
BRANCH   1   5
ATOM      5  C   UNL     1       0.363   8.693   0.281  0.00  0.00    +0.200 C 
BRANCH   5   8
ATOM      6  C   UNL     1      -0.988   6.692   0.614  0.00  0.00    +0.245 C 
ATOM      7  O   UNL     1      -1.977   7.355   0.368  0.00  0.00    -0.270 OA
ATOM      8  N   UNL     1       0.231   7.269   0.596  0.00  0.00    -0.303 N 
ATOM      9  H   UNL     1       1.020   6.740   0.792  0.00  0.00    +0.150 HD
BRANCH   6  12
ATOM     10  C   UNL     1      -0.118   3.150   1.511  0.00  0.00    +0.003 A 
ATOM     11  C   UNL     1       0.013   4.492   1.215  0.00  0.00    +0.013 A 
ATOM     12  C   UNL     1      -1.121   5.255   0.932  0.00  0.00    +0.039 A 
ATOM     13  C   UNL     1      -2.381   4.655   0.951  0.00  0.00    +0.045 A 
ATOM     14  C   UNL     1      -2.497   3.312   1.243  0.00  0.00    +0.127 A 
ATOM     15  C   UNL     1      -1.369   2.562   1.528  0.00  0.00    +0.033 A 
BRANCH  14  16
ATOM     16  N   UNL     1      -3.832   2.672   1.258  0.00  0.00    +0.056 N 
ATOM     17  O   UNL     1      -3.937   1.487   1.520  0.00  0.00    -0.126 OA
ATOM     18  O   UNL     1      -4.826   3.331   1.008  0.00  0.00    -0.126 OA
ENDBRANCH  14  16
ENDBRANCH   6  12
ENDBRANCH   5   8
ENDBRANCH   1   5
BRANCH   3  19
ATOM     19  C   UNL     1       3.594  10.739   0.114  0.00  0.00    +0.123 C 
BRANCH  19  20
ATOM     20  C   UNL     1       3.732  12.227  -0.215  0.00  0.00    +0.136 C 
BRANCH  20  21
ATOM     21  N   UNL     1       5.146  12.608  -0.170  0.00  0.00    -0.227 N 
ATOM     22  C   UNL     1       5.874  12.519  -1.270  0.00  0.00    +0.260 C 
ATOM     23  O   UNL     1       5.402  12.127  -2.320  0.00  0.00    -0.269 OA
ATOM     24  C   UNL     1       7.293  12.919  -1.157  0.00  0.00    +0.080 C 
ATOM     25  C   UNL     1       8.264  12.933  -2.103  0.00  0.00    +0.028 C 
ATOM     26  S   UNL     1       7.375  13.380   0.568  0.00  0.00    -0.026 S 
ATOM     27  C   UNL     1       5.672  13.048   0.991  0.00  0.00    +0.286 C 
ATOM     28  O   UNL     1       5.121  13.183   2.067  0.00  0.00    -0.262 OA
BRANCH  25  29
ATOM     29  C   UNL     1       9.573  13.532  -1.804  0.00  0.00    -0.024 A 
ATOM     30  C   UNL     1       9.763  14.248  -0.617  0.00  0.00    +0.009 A 
ATOM     31  C   UNL     1      10.995  14.802  -0.340  0.00  0.00    +0.020 A 
ATOM     32  C   UNL     1      12.039  14.661  -1.240  0.00  0.00    +0.041 A 
ATOM     33  C   UNL     1      11.857  13.958  -2.420  0.00  0.00    +0.020 A 
ATOM     34  C   UNL     1      10.633  13.393  -2.707  0.00  0.00    +0.009 A 
ATOM     35 CL   UNL     1      13.585  15.368  -0.886  0.00  0.00    -0.084 Cl
ENDBRANCH  25  29
ENDBRANCH  20  21
ENDBRANCH  19  20
ENDBRANCH   3  19
TORSDOF 8
