REMARK  Name = ZINC67240342
REMARK  9 active torsions:
REMARK  status: ('A' for Active; 'I' for Inactive)
REMARK    1  A    between atoms: C_1  and  C_2
REMARK    2  A    between atoms: C_5  and  O_9
REMARK    3  A    between atoms: C_6  and  C_8
REMARK    4  A    between atoms: O_9  and  C_10
REMARK    5  A    between atoms: C_10  and  C_11
REMARK    6  A    between atoms: C_11  and  C_12
REMARK    7  A    between atoms: N_14  and  C_15
REMARK    8  A    between atoms: C_18  and  C_21
REMARK    9  A    between atoms: C_21  and  N_22
REMARK                            x       y       z     vdW  Elec       q    Type
REMARK                         _______ _______ _______ _____ _____    ______ ____
ROOT
ATOM      1  C   UNL     1       0.079  -6.965  -2.452  0.00  0.00    +0.220 C 
ATOM      2  O   UNL     1       0.057  -6.299  -3.465  0.00  0.00    -0.275 OA
ATOM      3  N   UNL     1       0.098  -8.311  -2.530  0.00  0.00    -0.285 N 
ATOM      4  H   UNL     1       0.183  -8.842  -1.723  0.00  0.00    +0.155 HD
ENDROOT
BRANCH   3   5
ATOM      5  C   UNL     1      -0.006  -8.941  -3.775  0.00  0.00    +0.033 A 
ATOM      6  C   UNL     1      -0.692 -10.143  -3.892  0.00  0.00    +0.023 A 
ATOM      7  C   UNL     1      -0.793 -10.762  -5.122  0.00  0.00    +0.007 A 
ATOM      8  C   UNL     1      -0.211 -10.187  -6.237  0.00  0.00    -0.030 A 
ATOM      9  C   UNL     1       0.473  -8.991  -6.124  0.00  0.00    +0.007 A 
ATOM     10  C   UNL     1       0.572  -8.363  -4.897  0.00  0.00    +0.023 A 
BRANCH   8  11
ATOM     11  C   UNL     1      -0.323 -10.865  -7.578  0.00  0.00    +0.141 C 
BRANCH  11  12
ATOM     12  N   UNL     1      -1.528 -10.393  -8.265  0.00  0.00    -0.295 N 
ATOM     13  C   UNL     1      -1.834 -10.867  -9.489  0.00  0.00    +0.297 C 
ATOM     14  O   UNL     1      -1.111 -11.685 -10.023  0.00  0.00    -0.253 OA
ATOM     15  N   UNL     1      -2.942 -10.432 -10.121  0.00  0.00    -0.313 N 
ATOM     16  H   UNL     1      -2.104  -9.740  -7.839  0.00  0.00    +0.151 HD
ATOM     17  H   UNL     1      -3.519  -9.779  -9.695  0.00  0.00    +0.146 HD
ATOM     18  H   UNL     1      -3.163 -10.773 -11.002  0.00  0.00    +0.146 HD
ENDBRANCH  11  12
ENDBRANCH   8  11
ENDBRANCH   3   5
BRANCH   1  19
ATOM     19  C   UNL     1       0.086  -6.289  -1.105  0.00  0.00    +0.137 C 
BRANCH  19  20
ATOM     20  C   UNL     1       0.061  -4.771  -1.297  0.00  0.00    +0.238 C 
BRANCH  20  21
ATOM     21  O   UNL     1       0.068  -4.129  -0.020  0.00  0.00    -0.491 OA
BRANCH  21  26
ATOM     22  C   UNL     1      -0.017   1.502   0.011  0.00  0.00    +0.044 C 
ATOM     23  C   UNL     1       0.006  -0.004   0.003  0.00  0.00    -0.050 A 
ATOM     24  C   UNL     1       0.002  -0.688  -1.199  0.00  0.00    +0.007 A 
ATOM     25  C   UNL     1       0.023  -2.069  -1.210  0.00  0.00    +0.046 A 
ATOM     26  C   UNL     1       0.048  -2.770  -0.013  0.00  0.00    +0.123 A 
ATOM     27  C   UNL     1       0.052  -2.082   1.192  0.00  0.00    -0.009 A 
ATOM     28  C   UNL     1       0.037  -0.701   1.197  0.00  0.00    +0.010 A 
ATOM     29  C   UNL     1       0.079  -2.841   2.494  0.00  0.00    +0.047 C 
ENDBRANCH  21  26
ENDBRANCH  20  21
ENDBRANCH  19  20
ENDBRANCH   1  19
TORSDOF 7
