REMARK  Name = ZINC06501018
REMARK  16 active torsions:
REMARK  status: ('A' for Active; 'I' for Inactive)
REMARK    1  A    between atoms: C_1  and  C_2
REMARK    2  A    between atoms: C_2  and  C_3
REMARK    3  A    between atoms: C_3  and  C_4
REMARK    4  A    between atoms: C_4  and  C_6
REMARK    5  A    between atoms: C_4  and  N_14
REMARK    6  A    between atoms: N_8  and  C_9
REMARK    7  A    between atoms: N_14  and  C_15
REMARK    8  A    between atoms: C_15  and  C_16
REMARK    9  A    between atoms: C_16  and  N_17
REMARK   10  A    between atoms: N_17  and  C_18
REMARK   11  A    between atoms: N_17  and  C_20
REMARK   12  A    between atoms: C_18  and  C_19
REMARK   13  A    between atoms: C_20  and  C_21
REMARK   14  A    between atoms: C_22  and  C_24
REMARK   15  A    between atoms: C_25  and  N_32
REMARK   16  A    between atoms: C_26  and  C_29
REMARK                            x       y       z     vdW  Elec       q    Type
REMARK                         _______ _______ _______ _____ _____    ______ ____
ROOT
ATOM      1  N   UNL     1       1.377  -2.430   0.145  0.00  0.00    -0.287 N 
ATOM      2  C   UNL     1       0.970  -2.914   1.336  0.00  0.00    +0.257 C 
ATOM      3  O   UNL     1      -0.185  -3.267   1.486  0.00  0.00    -0.269 OA
ENDROOT
BRANCH   2   4
ATOM      4  C   UNL     1       1.918  -3.015   2.447  0.00  0.00    +0.115 A 
ATOM      5  C   UNL     1       1.733  -3.558   3.720  0.00  0.00    +0.076 A 
ATOM      6  C   UNL     1       2.867  -3.481   4.526  0.00  0.00    +0.155 A 
ATOM      7  N   UNL     1       3.965  -2.931   4.050  0.00  0.00    -0.203 NA
ATOM      8  S   UNL     1       3.616  -2.484   2.535  0.00  0.00    +0.019 S 
BRANCH   6   9
ATOM      9  C   UNL     1       2.838  -4.010   5.901  0.00  0.00    +0.262 C 
ATOM     10  O   UNL     1       1.854  -4.600   6.305  0.00  0.00    -0.269 OA
ATOM     11  N   UNL     1       3.902  -3.840   6.711  0.00  0.00    -0.324 N 
ATOM     12  H   UNL     1       4.687  -3.370   6.389  0.00  0.00    +0.145 HD
ATOM     13  H   UNL     1       3.883  -4.189   7.617  0.00  0.00    +0.145 HD
ENDBRANCH   6   9
BRANCH   5  14
ATOM     14  N   UNL     1       0.536  -4.121   4.141  0.00  0.00    -0.355 N 
ATOM     15  H   UNL     1      -0.191  -4.243   3.511  0.00  0.00    +0.142 HD
ATOM     16  H   UNL     1       0.427  -4.391   5.066  0.00  0.00    +0.142 HD
ENDBRANCH   5  14
ENDBRANCH   2   4
BRANCH   1  17
ATOM     17  C   UNL     1       0.407  -2.232  -0.935  0.00  0.00    +0.162 C 
BRANCH  17  18
ATOM     18  C   UNL     1       0.800  -3.072  -2.123  0.00  0.00    +0.234 C 
ATOM     19  O   UNL     1       1.792  -3.768  -2.072  0.00  0.00    -0.274 OA
ATOM     20  N   UNL     1       0.049  -3.050  -3.242  0.00  0.00    -0.311 N 
ATOM     21  H   UNL     1      -0.744  -2.493  -3.282  0.00  0.00    +0.149 HD
BRANCH  20  22
ATOM     22  C   UNL     1       0.431  -3.866  -4.397  0.00  0.00    +0.073 C 
ATOM     23  C   UNL     1       1.407  -3.083  -5.298  0.00  0.00    +0.022 C 
ATOM     24  C   UNL     1       1.004  -3.487  -6.737  0.00  0.00    +0.002 C 
ATOM     25  C   UNL     1      -0.540  -3.570  -6.649  0.00  0.00    +0.002 C 
ATOM     26  C   UNL     1      -0.807  -4.176  -5.256  0.00  0.00    +0.022 C 
ENDBRANCH  20  22
ENDBRANCH  17  18
BRANCH  17  27
ATOM     27  C   UNL     1       0.388  -0.756  -1.338  0.00  0.00    +0.032 C 
BRANCH  27  29
ATOM     28  C   UNL     1      -0.151   1.560  -0.572  0.00  0.00    +0.004 C 
ATOM     29  C   UNL     1      -0.131   0.085  -0.169  0.00  0.00    -0.001 C 
ENDBRANCH  27  29
ENDBRANCH  17  27
ENDBRANCH   1  17
BRANCH   1  30
ATOM     30  C   UNL     1       2.789  -2.103  -0.068  0.00  0.00    +0.090 C 
BRANCH  30  31
ATOM     31  C   UNL     1       3.063  -0.680   0.425  0.00  0.00    -0.060 C 
BRANCH  31  32
ATOM     32  N   UNL     1       4.477  -0.349   0.204  0.00  0.00    +0.380 N 
ATOM     33  H   UNL     1       5.058  -1.058   0.627  0.00  0.00    -0.082 HD
BRANCH  32  34
ATOM     34  C   UNL     1       4.747  -0.292  -1.239  0.00  0.00    -0.082 C 
ATOM     35  C   UNL     1       6.243  -0.071  -1.470  0.00  0.00    -0.017 C 
ENDBRANCH  32  34
BRANCH  32  36
ATOM     36  C   UNL     1       4.775   0.955   0.810  0.00  0.00    -0.082 C 
ATOM     37  C   UNL     1       4.659   0.849   2.332  0.00  0.00    -0.017 C 
ENDBRANCH  32  36
ENDBRANCH  31  32
ENDBRANCH  30  31
ENDBRANCH   1  30
TORSDOF 13
