REMARK  Name = ZINC37538182
REMARK  10 active torsions:
REMARK  status: ('A' for Active; 'I' for Inactive)
REMARK    1  A    between atoms: C_1  and  C_2
REMARK    2  A    between atoms: C_2  and  C_4
REMARK    3  A    between atoms: C_2  and  C_28
REMARK    4  A    between atoms: C_9  and  C_25
REMARK    5  A    between atoms: C_9  and  C_26
REMARK    6  A    between atoms: C_13  and  C_18
REMARK    7  A    between atoms: C_18  and  C_19
REMARK    8  A    between atoms: C_26  and  O_27
REMARK    9  A    between atoms: C_28  and  C_30
REMARK   10  A    between atoms: C_28  and  N_31
REMARK                            x       y       z     vdW  Elec       q    Type
REMARK                         _______ _______ _______ _____ _____    ______ ____
ROOT
ATOM      1  C   UNL     1       0.102   1.231   2.263  0.00  0.00    +0.266 C 
ATOM      2  C   UNL     1      -0.940   1.214   3.336  0.00  0.00    +0.255 C 
ATOM      3  O   UNL     1      -1.626   2.224   3.481  0.00  0.00    -0.272 OA
ATOM      4  N   UNL     1      -1.192   0.191   4.161  0.00  0.00    -0.297 N 
ATOM      5  C   UNL     1      -1.500  -1.171   3.698  0.00  0.00    +0.131 C 
ATOM      6  C   UNL     1      -0.203  -1.920   3.497  0.00  0.00    +0.239 C 
ATOM      7  O   UNL     1       0.591  -1.945   4.438  0.00  0.00    -0.273 OA
ATOM      8  N   UNL     1       0.128  -2.555   2.372  0.00  0.00    -0.300 N 
ATOM      9  C   UNL     1       0.372  -1.960   1.071  0.00  0.00    +0.186 C 
ATOM     10  C   UNL     1       1.128  -0.660   1.236  0.00  0.00    +0.329 C 
ATOM     11  O   UNL     1       1.922  -0.315   0.391  0.00  0.00    -0.249 OA
ATOM     12  O   UNL     1       0.921   0.075   2.330  0.00  0.00    -0.450 OA
ATOM     13  C   UNL     1      -2.300  -1.879   4.807  0.00  0.00    +0.044 C 
ATOM     14  H   UNL     1      -1.173   0.354   5.123  0.00  0.00    +0.150 HD
ATOM     15  H   UNL     1       0.217  -3.542   2.428  0.00  0.00    +0.150 HD
ENDROOT
BRANCH   1  17
ATOM     16  C   UNL     1      -2.058   1.576   1.057  0.00  0.00    +0.013 C 
ATOM     17  C   UNL     1      -0.552   1.367   0.888  0.00  0.00    +0.056 C 
BRANCH  17  18
ATOM     18  C   UNL     1       0.050   2.566   0.153  0.00  0.00    +0.078 C 
ATOM     19  C   UNL     1       1.532   2.303  -0.124  0.00  0.00    +0.028 C 
BRANCH  18  20
ATOM     20  N   UNL     1      -0.656   2.767  -1.114  0.00  0.00    -0.297 N 
ATOM     21  C   UNL     1      -0.680   3.987  -1.687  0.00  0.00    +0.297 C 
ATOM     22  O   UNL     1      -0.115   4.921  -1.151  0.00  0.00    -0.253 OA
ATOM     23  N   UNL     1      -1.329   4.172  -2.853  0.00  0.00    -0.313 N 
ATOM     24  H   UNL     1      -1.107   2.022  -1.542  0.00  0.00    +0.151 HD
ATOM     25  H   UNL     1      -1.780   3.427  -3.280  0.00  0.00    +0.146 HD
ATOM     26  H   UNL     1      -1.346   5.050  -3.265  0.00  0.00    +0.146 HD
ENDBRANCH  18  20
ENDBRANCH  17  18
ENDBRANCH   1  17
BRANCH   9  27
ATOM     27  C   UNL     1       1.216  -2.917   0.220  0.00  0.00    +0.069 C 
BRANCH  27  28
ATOM     28  C   UNL     1       0.428  -4.171  -0.057  0.00  0.00    -0.045 A 
ATOM     29  C   UNL     1       0.502  -5.241   0.816  0.00  0.00    +0.004 A 
ATOM     30  C   UNL     1      -0.222  -6.391   0.562  0.00  0.00    +0.000 A 
ATOM     31  C   UNL     1      -1.019  -6.471  -0.564  0.00  0.00    +0.000 A 
ATOM     32  C   UNL     1      -1.094  -5.401  -1.436  0.00  0.00    +0.000 A 
ATOM     33  C   UNL     1      -0.374  -4.249  -1.180  0.00  0.00    +0.004 A 
ENDBRANCH  27  28
ENDBRANCH   9  27
BRANCH   5  34
ATOM     34  C   UNL     1      -2.346  -1.140   2.434  0.00  0.00    +0.190 C 
BRANCH  34  35
ATOM     35  O   UNL     1      -3.058  -2.373   2.307  0.00  0.00    -0.392 OA
ATOM     36  H   UNL     1      -3.620  -2.424   1.522  0.00  0.00    +0.210 HD
ENDBRANCH  34  35
ENDBRANCH   5  34
TORSDOF 7
