REMARK  Name = ZINC05236676
REMARK  6 active torsions:
REMARK  status: ('A' for Active; 'I' for Inactive)
REMARK    1  A    between atoms: C_1  and  C_2
REMARK    2  A    between atoms: C_7  and  C_11
REMARK    3  A    between atoms: C_14  and  C_17
REMARK    4  A    between atoms: C_17  and  C_18
REMARK    5  A    between atoms: C_17  and  C_19
REMARK    6  A    between atoms: C_22  and  C_24
REMARK                            x       y       z     vdW  Elec       q    Type
REMARK                         _______ _______ _______ _____ _____    ______ ____
ROOT
ATOM      1  C   UNL     1      -0.018   1.503   0.010  0.00  0.00    +0.044 C 
ATOM      2  C   UNL     1       0.002  -0.004   0.002  0.00  0.00    -0.049 C 
ATOM      3  C   UNL     1      -1.175  -0.684   0.004  0.00  0.00    +0.016 C 
ATOM      4  C   UNL     1      -1.171  -2.096  -0.004  0.00  0.00    +0.040 C 
ATOM      5  C   UNL     1      -2.370  -2.814  -0.003  0.00  0.00    +0.031 C 
ATOM      6  C   UNL     1      -3.766  -2.218   0.001  0.00  0.00    +0.077 C 
ATOM      7  C   UNL     1      -4.640  -3.436   0.386  0.00  0.00    +0.108 C 
ATOM      8  N   UNL     1      -3.785  -4.569  -0.038  0.00  0.00    -0.235 NA
ATOM      9  N   UNL     1      -2.489  -4.148  -0.010  0.00  0.00    -0.283 N 
ATOM     10  C   UNL     1       0.121  -2.794  -0.015  0.00  0.00    +0.190 C 
ATOM     11  O   UNL     1       0.172  -4.016  -0.022  0.00  0.00    -0.287 OA
ATOM     12  C   UNL     1       1.299  -2.027  -0.016  0.00  0.00    -0.003 C 
ATOM     13  C   UNL     1       1.226  -0.668  -0.013  0.00  0.00    +0.010 C 
ATOM     14  C   UNL     1       2.643  -2.709  -0.026  0.00  0.00    +0.048 C 
ATOM     15  H   UNL     1      -3.921  -5.369   0.561  0.00  0.00    +0.145 HD
ATOM     16  H   UNL     1      -1.730  -4.752   0.005  0.00  0.00    +0.166 HD
ENDROOT
BRANCH   7  17
ATOM     17  C   UNL     1      -5.941  -3.428  -0.374  0.00  0.00    -0.029 A 
ATOM     18  C   UNL     1      -5.983  -3.885  -1.678  0.00  0.00    +0.005 A 
ATOM     19  C   UNL     1      -7.177  -3.877  -2.375  0.00  0.00    +0.004 A 
ATOM     20  C   UNL     1      -8.329  -3.413  -1.768  0.00  0.00    -0.045 A 
ATOM     21  C   UNL     1      -8.287  -2.957  -0.464  0.00  0.00    +0.004 A 
ATOM     22  C   UNL     1      -7.095  -2.969   0.235  0.00  0.00    +0.005 A 
BRANCH  20  23
ATOM     23  C   UNL     1      -9.630  -3.404  -2.529  0.00  0.00    +0.013 C 
ATOM     24  C   UNL     1     -10.653  -4.277  -1.800  0.00  0.00    +0.012 C 
ATOM     25  C   UNL     1     -10.156  -1.970  -2.621  0.00  0.00    +0.012 C 
ENDBRANCH  20  23
ENDBRANCH   7  17
TORSDOF 2
