REMARK  Name = ZINC67617764
REMARK  9 active torsions:
REMARK  status: ('A' for Active; 'I' for Inactive)
REMARK    1  A    between atoms: C_1  and  C_2
REMARK    2  A    between atoms: C_7  and  C_10
REMARK    3  A    between atoms: C_14  and  C_17
REMARK    4  A    between atoms: C_17  and  N_18
REMARK    5  A    between atoms: N_21  and  C_22
REMARK    6  A    between atoms: C_22  and  C_23
REMARK    7  A    between atoms: C_23  and  C_24
REMARK    8  A    between atoms: C_24  and  N_25
REMARK    9  A    between atoms: N_25  and  C_26
REMARK                            x       y       z     vdW  Elec       q    Type
REMARK                         _______ _______ _______ _____ _____    ______ ____
ROOT
ATOM      1  N   UNL     1      -3.369  -5.796  -4.369  0.00  0.00    -0.295 N 
ATOM      2  C   UNL     1      -3.827  -6.645  -5.310  0.00  0.00    +0.300 C 
ATOM      3  O   UNL     1      -4.917  -7.168  -5.179  0.00  0.00    -0.253 OA
ATOM      4  N   UNL     1      -3.077  -6.914  -6.397  0.00  0.00    -0.299 N 
ATOM      5  H   UNL     1      -2.500  -5.378  -4.474  0.00  0.00    +0.151 HD
ATOM      6  H   UNL     1      -2.208  -6.497  -6.502  0.00  0.00    +0.150 HD
ENDROOT
BRANCH   1   7
ATOM      7  C   UNL     1      -4.185  -5.503  -3.188  0.00  0.00    +0.142 C 
BRANCH   7  19
ATOM      8  C   UNL     1       0.024   1.508  -0.007  0.00  0.00    +0.039 C 
ATOM      9  C   UNL     1       0.027  -0.022  -0.001  0.00  0.00    +0.133 C 
ATOM     10  C   UNL     1      -1.417  -0.537   0.001  0.00  0.00    +0.137 C 
ATOM     11  N   UNL     1      -1.389  -1.995   0.196  0.00  0.00    -0.312 N 
ATOM     12  C   UNL     1      -0.598  -2.529   1.316  0.00  0.00    +0.137 C 
ATOM     13  C   UNL     1       0.806  -1.917   1.250  0.00  0.00    +0.133 C 
ATOM     14  O   UNL     1       0.698  -0.493   1.171  0.00  0.00    -0.371 OA
ATOM     15  C   UNL     1       1.591  -2.301   2.506  0.00  0.00    +0.039 C 
ATOM     16  C   UNL     1      -2.091  -2.844  -0.652  0.00  0.00    +0.099 A 
ATOM     17  C   UNL     1      -2.927  -2.308  -1.627  0.00  0.00    +0.042 A 
ATOM     18  C   UNL     1      -3.619  -3.164  -2.464  0.00  0.00    +0.010 A 
ATOM     19  C   UNL     1      -3.451  -4.533  -2.299  0.00  0.00    -0.014 A 
ATOM     20  C   UNL     1      -2.604  -4.995  -1.311  0.00  0.00    +0.089 A 
ATOM     21  N   UNL     1      -1.953  -4.155  -0.530  0.00  0.00    -0.349 N 
ATOM     22  H   UNL     1      -1.361  -4.507   0.154  0.00  0.00    +0.167 HD
ENDBRANCH   7  19
ENDBRANCH   1   7
BRANCH   4  23
ATOM     23  C   UNL     1      -3.575  -7.837  -7.420  0.00  0.00    +0.107 C 
BRANCH  23  24
ATOM     24  C   UNL     1      -2.538  -7.967  -8.538  0.00  0.00    +0.037 C 
BRANCH  24  25
ATOM     25  C   UNL     1      -3.058  -8.931  -9.607  0.00  0.00    +0.103 C 
BRANCH  25  26
ATOM     26  N   UNL     1      -2.065  -9.055 -10.677  0.00  0.00    -0.344 N 
ATOM     27  H   UNL     1      -1.232  -8.560 -10.626  0.00  0.00    +0.146 HD
BRANCH  26  28
ATOM     28  C   UNL     1      -2.317  -9.886 -11.770  0.00  0.00    +0.027 A 
ATOM     29  C   UNL     1      -3.512 -10.591 -11.848  0.00  0.00    +0.023 A 
ATOM     30  C   UNL     1      -3.758 -11.412 -12.931  0.00  0.00    +0.002 A 
ATOM     31  C   UNL     1      -2.818 -11.532 -13.937  0.00  0.00    +0.000 A 
ATOM     32  C   UNL     1      -1.628 -10.832 -13.864  0.00  0.00    +0.002 A 
ATOM     33  C   UNL     1      -1.377 -10.005 -12.786  0.00  0.00    +0.023 A 
ENDBRANCH  26  28
ENDBRANCH  25  26
ENDBRANCH  24  25
ENDBRANCH  23  24
ENDBRANCH   4  23
TORSDOF 7
