REMARK  Name = ZINC36502377
REMARK  13 active torsions:
REMARK  status: ('A' for Active; 'I' for Inactive)
REMARK    1  A    between atoms: C_1  and  C_2
REMARK    2  A    between atoms: C_2  and  C_3
REMARK    3  A    between atoms: C_3  and  C_4
REMARK    4  A    between atoms: C_4  and  N_5
REMARK    5  A    between atoms: C_6  and  C_8
REMARK    6  A    between atoms: C_8  and  C_10
REMARK    7  A    between atoms: C_8  and  N_19
REMARK    8  A    between atoms: C_11  and  O_18
REMARK    9  A    between atoms: C_13  and  O_17
REMARK   10  A    between atoms: C_15  and  O_16
REMARK   11  A    between atoms: N_19  and  C_20
REMARK   12  A    between atoms: C_20  and  C_21
REMARK   13  A    between atoms: C_26  and  C_28
REMARK                            x       y       z     vdW  Elec       q    Type
REMARK                         _______ _______ _______ _____ _____    ______ ____
ROOT
ATOM      1  C   UNL     1      -3.803  -4.489   0.264  0.00  0.00    +0.200 C 
ENDROOT
BRANCH   1   2
ATOM      2  C   UNL     1      -3.997  -3.965   1.664  0.00  0.00    +0.065 A 
ATOM      3  C   UNL     1      -3.431  -4.633   2.739  0.00  0.00    +0.129 A 
ATOM      4  C   UNL     1      -3.609  -4.151   4.027  0.00  0.00    +0.091 A 
ATOM      5  C   UNL     1      -4.352  -2.999   4.239  0.00  0.00    +0.124 A 
ATOM      6  C   UNL     1      -4.918  -2.331   3.164  0.00  0.00    +0.091 A 
ATOM      7  C   UNL     1      -4.736  -2.811   1.876  0.00  0.00    +0.129 A 
BRANCH   7   8
ATOM      8  O   UNL     1      -5.286  -2.153   0.821  0.00  0.00    -0.506 OA
ATOM      9  H   UNL     1      -6.179  -2.448   0.597  0.00  0.00    +0.292 HD
ENDBRANCH   7   8
BRANCH   5  10
ATOM     10  O   UNL     1      -4.527  -2.527   5.501  0.00  0.00    -0.507 OA
ATOM     11  H   UNL     1      -3.846  -1.902   5.785  0.00  0.00    +0.292 HD
ENDBRANCH   5  10
BRANCH   3  12
ATOM     12  O   UNL     1      -2.702  -5.761   2.531  0.00  0.00    -0.506 OA
ATOM     13  H   UNL     1      -1.749  -5.608   2.468  0.00  0.00    +0.292 HD
ENDBRANCH   3  12
ENDBRANCH   1   2
BRANCH   1  15
ATOM     14  N   UNL     1      -1.479  -3.661   0.085  0.00  0.00    -0.313 N 
ATOM     15  C   UNL     1      -2.334  -4.701   0.005  0.00  0.00    +0.238 C 
ATOM     16  O   UNL     1      -1.920  -5.806  -0.274  0.00  0.00    -0.273 OA
ATOM     17  H   UNL     1      -1.810  -2.777   0.308  0.00  0.00    +0.149 HD
BRANCH  14  18
ATOM     18  C   UNL     1      -0.051  -3.866  -0.167  0.00  0.00    +0.104 C 
BRANCH  18  19
ATOM     19  C   UNL     1       0.690  -2.537  -0.014  0.00  0.00    +0.018 C 
BRANCH  19  21
ATOM     20  C   UNL     1       2.923  -1.421  -0.123  0.00  0.00    +0.004 C 
ATOM     21  C   UNL     1       2.182  -2.751  -0.276  0.00  0.00    -0.002 C 
ENDBRANCH  19  21
ENDBRANCH  18  19
ENDBRANCH  14  18
ENDBRANCH   1  15
BRANCH   1  22
ATOM     22  N   UNL     1      -4.513  -5.763   0.117  0.00  0.00    -0.274 N 
ATOM     23  C   UNL     1      -4.337  -6.508  -0.992  0.00  0.00    +0.248 C 
ATOM     24  O   UNL     1      -5.020  -7.497  -1.174  0.00  0.00    -0.270 OA
BRANCH  23  25
ATOM     25  C   UNL     1      -3.313  -6.124  -1.986  0.00  0.00    +0.037 A 
ATOM     26  C   UNL     1      -2.850  -4.808  -2.043  0.00  0.00    +0.013 A 
ATOM     27  C   UNL     1      -1.894  -4.456  -2.973  0.00  0.00    +0.001 A 
ATOM     28  C   UNL     1      -1.394  -5.404  -3.849  0.00  0.00    +0.000 A 
ATOM     29  C   UNL     1      -1.849  -6.709  -3.798  0.00  0.00    +0.001 A 
ATOM     30  C   UNL     1      -2.800  -7.076  -2.869  0.00  0.00    +0.013 A 
ENDBRANCH  23  25
BRANCH  22  31
ATOM     31  C   UNL     1      -5.414  -6.226   1.176  0.00  0.00    +0.183 C 
BRANCH  31  32
ATOM     32  C   UNL     1      -6.832  -5.859   0.824  0.00  0.00    +0.122 A 
ATOM     33  C   UNL     1      -7.724  -6.661   0.215  0.00  0.00    +0.046 A 
ATOM     34  C   UNL     1      -8.919  -5.918   0.082  0.00  0.00    +0.041 A 
ATOM     35  C   UNL     1      -8.686  -4.706   0.617  0.00  0.00    +0.195 A 
ATOM     36  O   UNL     1      -7.422  -4.678   1.070  0.00  0.00    -0.466 OA
ENDBRANCH  31  32
ENDBRANCH  22  31
ENDBRANCH   1  22
TORSDOF 12
