REMARK  Name = ZINC01750727
REMARK  3 active torsions:
REMARK  status: ('A' for Active; 'I' for Inactive)
REMARK    1  A    between atoms: C_4  and  C_7
REMARK    2  A    between atoms: C_10  and  N_13
REMARK    3  A    between atoms: N_13  and  C_14
REMARK                            x       y       z     vdW  Elec       q    Type
REMARK                         _______ _______ _______ _____ _____    ______ ____
ROOT
ATOM      1  C   UNL     1       2.476   1.060  -0.158  0.00  0.00    -0.018 A 
ATOM      2  C   UNL     1       2.505  -0.334  -0.145  0.00  0.00    +0.010 A 
ATOM      3  C   UNL     1       3.713  -0.997  -0.118  0.00  0.00    +0.024 A 
ATOM      4  C   UNL     1       4.902  -0.278  -0.092  0.00  0.00    +0.032 A 
ATOM      5  C   UNL     1       4.876   1.112  -0.100  0.00  0.00    +0.024 A 
ATOM      6  C   UNL     1       3.670   1.780  -0.132  0.00  0.00    +0.010 A 
ENDROOT
BRANCH   1  10
ATOM      7  C   UNL     1      -1.246   3.113  -0.258  0.00  0.00    +0.000 A 
ATOM      8  C   UNL     1      -1.222   1.730  -0.257  0.00  0.00    +0.001 A 
ATOM      9  C   UNL     1      -0.017   1.059  -0.219  0.00  0.00    +0.008 A 
ATOM     10  C   UNL     1       1.178   1.776  -0.193  0.00  0.00    -0.018 A 
ATOM     11  C   UNL     1       1.148   3.170  -0.200  0.00  0.00    +0.008 A 
ATOM     12  C   UNL     1      -0.063   3.831  -0.232  0.00  0.00    +0.001 A 
ENDBRANCH   1  10
BRANCH   4  13
ATOM     13  N   UNL     1       6.125  -0.952  -0.059  0.00  0.00    -0.301 N 
ATOM     14  H   UNL     1       6.955  -0.453  -0.103  0.00  0.00    +0.154 HD
BRANCH  13  15
ATOM     15  C   UNL     1       6.151  -2.321   0.038  0.00  0.00    +0.109 A 
ATOM     16  C   UNL     1       6.805  -2.927   1.074  0.00  0.00    +0.112 A 
ATOM     17  C   UNL     1       6.811  -4.329   1.151  0.00  0.00    +0.256 A 
ATOM     18  O   UNL     1       7.383  -4.891   2.069  0.00  0.00    -0.268 OA
ATOM     19  N   UNL     1       6.183  -5.050   0.201  0.00  0.00    -0.275 N 
ATOM     20  H   UNL     1       6.190  -6.049   0.252  0.00  0.00    +0.173 HD
ATOM     21  C   UNL     1       5.549  -4.438  -0.815  0.00  0.00    +0.328 A 
ATOM     22  O   UNL     1       4.989  -5.107  -1.662  0.00  0.00    -0.247 OA
ATOM     23  N   UNL     1       5.524  -3.096  -0.908  0.00  0.00    -0.296 N 
ATOM     24  H   UNL     1       5.046  -2.659  -1.671  0.00  0.00    +0.172 HD
ENDBRANCH  13  15
ENDBRANCH   4  13
TORSDOF 3
