REMARK  Name = ZINC08253762
REMARK  11 active torsions:
REMARK  status: ('A' for Active; 'I' for Inactive)
REMARK    1  A    between atoms: C_1  and  N_2
REMARK    2  A    between atoms: N_2  and  C_3
REMARK    3  A    between atoms: N_2  and  C_4
REMARK    4  A    between atoms: C_7  and  N_10
REMARK    5  A    between atoms: N_12  and  C_30
REMARK    6  A    between atoms: C_15  and  O_29
REMARK    7  A    between atoms: C_17  and  O_28
REMARK    8  A    between atoms: C_20  and  C_25
REMARK    9  A    between atoms: C_30  and  C_31
REMARK   10  A    between atoms: C_34  and  O_37
REMARK   11  A    between atoms: O_37  and  C_38
REMARK                            x       y       z     vdW  Elec       q    Type
REMARK                         _______ _______ _______ _____ _____    ______ ____
ROOT
ATOM      1  N   UNL     1       4.795   0.866   0.279  0.00  0.00    -0.226 NA
ATOM      2  C   UNL     1       3.660   1.498   0.469  0.00  0.00    +0.158 C 
ATOM      3  N   UNL     1       2.394   0.972   0.391  0.00  0.00    -0.299 N 
ATOM      4  C   UNL     1       1.265   1.846   0.561  0.00  0.00    +0.121 C 
ATOM      5  C   UNL     1       0.044   1.214   1.156  0.00  0.00    +0.164 C 
ATOM      6  C   UNL     1      -0.139   1.561   2.630  0.00  0.00    +0.146 C 
ATOM      7  C   UNL     1      -0.164   3.087   2.765  0.00  0.00    +0.048 C 
ATOM      8  C   UNL     1       1.208   3.632   2.388  0.00  0.00    +0.092 C 
ATOM      9  C   UNL     1       1.602   3.265   0.970  0.00  0.00    +0.089 C 
ATOM     10  S   UNL     1       3.439   3.217   0.884  0.00  0.00    -0.084 S 
ENDROOT
BRANCH   1  14
ATOM     11  C   UNL     1       8.384   2.907   0.629  0.00  0.00    +0.029 A 
ATOM     12  C   UNL     1       8.239   1.655   1.215  0.00  0.00    +0.025 A 
ATOM     13  C   UNL     1       7.045   0.973   1.100  0.00  0.00    +0.029 A 
ATOM     14  C   UNL     1       5.983   1.542   0.395  0.00  0.00    +0.067 A 
ATOM     15  C   UNL     1       6.135   2.797  -0.197  0.00  0.00    +0.029 A 
ATOM     16  C   UNL     1       7.329   3.476  -0.073  0.00  0.00    +0.025 A 
BRANCH  11  18
ATOM     17  C   UNL     1      10.710   2.998   1.489  0.00  0.00    +0.129 C 
ATOM     18  N   UNL     1       9.597   3.596   0.748  0.00  0.00    -0.336 N 
ATOM     19  C   UNL     1       9.752   4.916   0.132  0.00  0.00    +0.129 C 
ENDBRANCH  11  18
ENDBRANCH   1  14
BRANCH   8  20
ATOM     20  C   UNL     1       1.190   5.133   2.518  0.00  0.00    +0.215 C 
ATOM     21  O   UNL     1       1.468   5.828   1.564  0.00  0.00    -0.276 OA
ATOM     22  N   UNL     1       0.866   5.704   3.695  0.00  0.00    -0.329 N 
ATOM     23  H   UNL     1       0.643   5.148   4.459  0.00  0.00    +0.145 HD
ATOM     24  H   UNL     1       0.854   6.670   3.779  0.00  0.00    +0.145 HD
ENDBRANCH   8  20
BRANCH   6  25
ATOM     25  O   UNL     1      -1.372   1.015   3.104  0.00  0.00    -0.389 OA
ATOM     26  H   UNL     1      -1.551   1.199   4.037  0.00  0.00    +0.210 HD
ENDBRANCH   6  25
BRANCH   5  27
ATOM     27  O   UNL     1       0.150  -0.205   1.026  0.00  0.00    -0.387 OA
ATOM     28  H   UNL     1      -0.604  -0.691   1.388  0.00  0.00    +0.210 HD
ENDBRANCH   5  27
BRANCH   3  29
ATOM     29  C   UNL     1       2.196  -0.458   0.139  0.00  0.00    +0.142 C 
BRANCH  29  30
ATOM     30  C   UNL     1       3.230  -0.942  -0.845  0.00  0.00    -0.030 A 
ATOM     31  C   UNL     1       2.962  -0.906  -2.201  0.00  0.00    +0.009 A 
ATOM     32  C   UNL     1       3.910  -1.344  -3.106  0.00  0.00    +0.046 A 
ATOM     33  C   UNL     1       5.128  -1.831  -2.651  0.00  0.00    +0.120 A 
ATOM     34  C   UNL     1       5.392  -1.870  -1.290  0.00  0.00    +0.046 A 
ATOM     35  C   UNL     1       4.442  -1.426  -0.390  0.00  0.00    +0.009 A 
BRANCH  33  36
ATOM     36  O   UNL     1       6.060  -2.267  -3.538  0.00  0.00    -0.495 OA
ATOM     37  C   UNL     1       5.720  -2.196  -4.925  0.00  0.00    +0.277 C 
ENDBRANCH  33  36
ENDBRANCH  29  30
ENDBRANCH   3  29
TORSDOF 8
