REMARK  Name = ZINC09614786
REMARK  4 active torsions:
REMARK  status: ('A' for Active; 'I' for Inactive)
REMARK    1  A    between atoms: C_1  and  C_3
REMARK    2  A    between atoms: C_3  and  C_4
REMARK    3  A    between atoms: C_4  and  C_5
REMARK    4  A    between atoms: N_13  and  N_14
REMARK                            x       y       z     vdW  Elec       q    Type
REMARK                         _______ _______ _______ _____ _____    ______ ____
ROOT
ATOM      1  C   UNL     1       0.409   2.383   0.013  0.00  0.00    +0.307 C 
ATOM      2  O   UNL     1       0.796   1.233   0.005  0.00  0.00    -0.267 OA
ATOM      3  N   UNL     1      -0.912   2.649   0.021  0.00  0.00    -0.222 N 
ATOM      4  H   UNL     1      -1.222   3.568   0.027  0.00  0.00    +0.175 HD
ENDROOT
BRANCH   3   5
ATOM      5  N   UNL     1      -1.839   1.598   0.020  0.00  0.00    -0.276 N 
ATOM      6  C   UNL     1      -3.186   1.869   0.027  0.00  0.00    +0.183 C 
ATOM      7  N   UNL     1      -4.095   0.838   0.026  0.00  0.00    -0.370 N 
ATOM      8  H   UNL     1      -1.529   0.678   0.013  0.00  0.00    +0.187 HD
ATOM      9  H   UNL     1      -4.532   3.397   0.042  0.00  0.00    +0.159 HD
ATOM     10  H   UNL     1      -3.786  -0.082   0.020  0.00  0.00    +0.159 HD
ATOM     11  H   UNL     1      -5.046   1.029   0.032  0.00  0.00    +0.159 HD
ATOM     12  N   UNL     1      -3.544   3.145   0.036  0.00  0.00    -0.370 N 
ATOM     13  H   UNL     1      -2.827   3.880   0.037  0.00  0.00    +0.159 HD
ENDBRANCH   3   5
BRANCH   1  14
ATOM     14  C   UNL     1       1.405   3.513   0.008  0.00  0.00    +0.394 C 
ATOM     15  F   UNL     1       1.615   3.944  -1.306  0.00  0.00    -0.188 F 
ATOM     16  F   UNL     1       0.910   4.574   0.774  0.00  0.00    -0.188 F 
BRANCH  14  17
ATOM     17  C   UNL     1       2.729   3.029   0.604  0.00  0.00    +0.411 C 
ATOM     18  F   UNL     1       2.519   2.598   1.918  0.00  0.00    -0.189 F 
ATOM     19  F   UNL     1       3.224   1.968  -0.162  0.00  0.00    -0.189 F 
BRANCH  17  20
ATOM     20  C   UNL     1       3.741   4.177   0.599  0.00  0.00    +0.461 C 
ATOM     21  F   UNL     1       3.245   5.238   1.364  0.00  0.00    -0.165 F 
ATOM     22  F   UNL     1       4.951   3.734   1.143  0.00  0.00    -0.165 F 
ATOM     23  F   UNL     1       3.950   4.608  -0.716  0.00  0.00    -0.165 F 
ENDBRANCH  17  20
ENDBRANCH  14  17
ENDBRANCH   1  14
TORSDOF 4
