REMARK  Name = ZINC35631944
REMARK  6 active torsions:
REMARK  status: ('A' for Active; 'I' for Inactive)
REMARK    1  A    between atoms: C_1  and  C_2
REMARK    2  A    between atoms: C_2  and  C_4
REMARK    3  A    between atoms: C_2  and  O_20
REMARK    4  A    between atoms: C_5  and  O_11
REMARK    5  A    between atoms: O_11  and  C_12
REMARK    6  A    between atoms: C_16  and  C_18
REMARK                            x       y       z     vdW  Elec       q    Type
REMARK                         _______ _______ _______ _____ _____    ______ ____
ROOT
ATOM      1  C   UNL     1       0.659  -0.291  -1.280  0.00  0.00    +0.058 A 
ATOM      2  C   UNL     1      -0.081  -0.722  -2.371  0.00  0.00    +0.137 A 
ATOM      3  C   UNL     1       0.506  -0.777  -3.627  0.00  0.00    +0.047 A 
ATOM      4  C   UNL     1       1.827  -0.404  -3.789  0.00  0.00    +0.006 A 
ATOM      5  C   UNL     1       2.564   0.025  -2.701  0.00  0.00    +0.039 A 
ATOM      6  C   UNL     1       1.979   0.087  -1.447  0.00  0.00    +0.133 A 
ATOM      7  F   UNL     1       2.700   0.512  -0.386  0.00  0.00    -0.205 F 
ENDROOT
BRANCH   1   9
ATOM      8  C   UNL     1      -0.277   1.228   0.443  0.00  0.00    +0.043 C 
ATOM      9  C   UNL     1       0.024  -0.229   0.086  0.00  0.00    +0.148 C 
BRANCH   9  10
ATOM     10  O   UNL     1       0.919  -0.782   1.053  0.00  0.00    -0.387 OA
ATOM     11  H   UNL     1       0.575  -0.774   1.956  0.00  0.00    +0.210 HD
ENDBRANCH   9  10
ENDBRANCH   1   9
BRANCH   2  12
ATOM     12  O   UNL     1      -1.379  -1.090  -2.211  0.00  0.00    -0.456 OA
BRANCH  12  13
ATOM     13  C   UNL     1      -2.063  -1.512  -3.306  0.00  0.00    +0.130 A 
ATOM     14  C   UNL     1      -2.064  -2.859  -3.646  0.00  0.00    +0.046 A 
ATOM     15  C   UNL     1      -2.758  -3.295  -4.760  0.00  0.00    +0.005 A 
ATOM     16  C   UNL     1      -3.454  -2.396  -5.541  0.00  0.00    +0.019 A 
ATOM     17  C   UNL     1      -3.459  -1.040  -5.207  0.00  0.00    +0.055 A 
ATOM     18  C   UNL     1      -2.762  -0.602  -4.080  0.00  0.00    +0.065 A 
BRANCH  17  19
ATOM     19  C   UNL     1      -4.179  -0.103  -6.016  0.00  0.00    +0.099 C 
ATOM     20  N   UNL     1      -4.751   0.640  -6.657  0.00  0.00    -0.191 NA
ENDBRANCH  17  19
ENDBRANCH  12  13
ENDBRANCH   2  12
TORSDOF 5
