REMARK  Name = ZINC04825757
REMARK  6 active torsions:
REMARK  status: ('A' for Active; 'I' for Inactive)
REMARK    1  A    between atoms: C_4  and  C_7
REMARK    2  A    between atoms: C_16  and  C_19
REMARK    3  A    between atoms: C_19  and  N_20
REMARK    4  A    between atoms: N_23  and  C_24
REMARK    5  A    between atoms: C_24  and  C_25
REMARK    6  A    between atoms: C_25  and  N_64
REMARK                            x       y       z     vdW  Elec       q    Type
REMARK                         _______ _______ _______ _____ _____    ______ ____
ROOT
ATOM      1  C   UNL     1       3.672   2.182  -0.023  0.00  0.00    -0.003 C 
ATOM      2  C   UNL     1       4.468   1.830  -1.281  0.00  0.00    +0.015 C 
ATOM      3  C   UNL     1       5.782   2.612  -1.290  0.00  0.00    -0.009 C 
ATOM      4  C   UNL     1       6.601   2.248  -0.050  0.00  0.00    +0.007 C 
ATOM      5  C   UNL     1       5.805   2.600   1.209  0.00  0.00    -0.009 C 
ATOM      6  C   UNL     1       4.491   1.817   1.217  0.00  0.00    +0.015 C 
ATOM      7  C   UNL     1       5.505   4.100   1.219  0.00  0.00    +0.012 C 
ATOM      8  C   UNL     1       4.686   4.465  -0.021  0.00  0.00    -0.012 C 
ATOM      9  C   UNL     1       5.482   4.113  -1.279  0.00  0.00    +0.012 C 
ATOM     10  C   UNL     1       3.372   3.682  -0.012  0.00  0.00    +0.020 C 
ENDROOT
BRANCH   1  14
ATOM     11  C   UNL     1       0.002  -0.004   0.002  0.00  0.00    +0.000 A 
ATOM     12  C   UNL     1      -0.017   1.378   0.010  0.00  0.00    +0.000 A 
ATOM     13  C   UNL     1       1.171   2.086   0.002  0.00  0.00    +0.004 A 
ATOM     14  C   UNL     1       2.377   1.411  -0.015  0.00  0.00    -0.041 A 
ATOM     15  C   UNL     1       2.396   0.029  -0.022  0.00  0.00    +0.004 A 
ATOM     16  C   UNL     1       1.208  -0.679  -0.013  0.00  0.00    +0.000 A 
ENDBRANCH   1  14
BRANCH   8  17
ATOM     17  C   UNL     1       4.387   5.965  -0.010  0.00  0.00    +0.112 C 
BRANCH  17  18
ATOM     18  N   UNL     1       5.645   6.715  -0.018  0.00  0.00    -0.299 N 
ATOM     19  C   UNL     1       5.627   8.063  -0.011  0.00  0.00    +0.300 C 
ATOM     20  O   UNL     1       4.566   8.656   0.001  0.00  0.00    -0.253 OA
ATOM     21  N   UNL     1       6.785   8.752  -0.019  0.00  0.00    -0.301 N 
ATOM     22  H   UNL     1       6.492   6.242  -0.029  0.00  0.00    +0.150 HD
ATOM     23  H   UNL     1       7.631   8.279  -0.029  0.00  0.00    +0.150 HD
BRANCH  21  24
ATOM     24  C   UNL     1       6.765  10.217  -0.011  0.00  0.00    +0.087 C 
BRANCH  24  25
ATOM     25  C   UNL     1       8.200  10.747  -0.022  0.00  0.00    -0.060 C 
BRANCH  25  31
ATOM     26  C   UNL     1       7.611  12.741  -1.264  0.00  0.00    -0.050 C 
ATOM     27  C   UNL     1       7.554  14.270  -1.189  0.00  0.00    +0.141 C 
ATOM     28  O   UNL     1       8.867  14.778  -0.936  0.00  0.00    -0.383 OA
ATOM     29  C   UNL     1       9.451  14.288   0.274  0.00  0.00    +0.141 C 
ATOM     30  C   UNL     1       9.527  12.760   0.214  0.00  0.00    -0.050 C 
ATOM     31  N   UNL     1       8.165  12.225   0.005  0.00  0.00    +0.384 N 
ATOM     32  H   UNL     1       7.564  12.530   0.780  0.00  0.00    -0.082 HD
ENDBRANCH  25  31
ENDBRANCH  24  25
ENDBRANCH  21  24
ENDBRANCH  17  18
ENDBRANCH   8  17
TORSDOF 6
