REMARK  Name = ZINC39313665
REMARK  3 active torsions:
REMARK  status: ('A' for Active; 'I' for Inactive)
REMARK    1  A    between atoms: C_9  and  C_12
REMARK    2  A    between atoms: C_12  and  S_13
REMARK    3  A    between atoms: S_13  and  C_14
REMARK                            x       y       z     vdW  Elec       q    Type
REMARK                         _______ _______ _______ _____ _____    ______ ____
ROOT
ATOM      1  C   UNL     1      -0.017   1.380   0.010  0.00  0.00    +0.039 A 
ATOM      2  C   UNL     1       1.187   2.067   0.002  0.00  0.00    +0.019 A 
ATOM      3  C   UNL     1       2.373   1.371  -0.013  0.00  0.00    +0.031 A 
ATOM      4  C   UNL     1       2.427  -0.026  -0.021  0.00  0.00    +0.044 A 
ATOM      5  C   UNL     1       1.192  -0.698  -0.013  0.00  0.00    +0.062 A 
ATOM      6  C   UNL     1       0.002  -0.004   0.002  0.00  0.00    +0.125 A 
ATOM      7  F   UNL     1      -1.165  -0.685   0.010  0.00  0.00    -0.205 F 
ATOM      8  N   UNL     1       3.681  -0.635  -0.037  0.00  0.00    -0.330 N 
ATOM      9  C   UNL     1       4.861   0.241  -0.044  0.00  0.00    +0.144 C 
ATOM     10  S   UNL     1       4.071   1.901  -0.027  0.00  0.00    -0.100 S 
ATOM     11  H   UNL     1       3.771  -1.600  -0.043  0.00  0.00    +0.147 HD
ENDROOT
BRANCH   9  12
ATOM     12  C   UNL     1       5.715   0.024   1.207  0.00  0.00    +0.111 C 
BRANCH  12  13
ATOM     13  S   UNL     1       4.728   0.392   2.684  0.00  0.00    -0.082 S 
BRANCH  13  14
ATOM     14  C   UNL     1       5.837   0.098   4.021  0.00  0.00    +0.210 A 
ATOM     15  N   UNL     1       5.545   0.241   5.319  0.00  0.00    -0.188 NA
ATOM     16  H   UNL     1       8.497  -0.676   5.454  0.00  0.00    +0.192 HD
ATOM     17  C   UNL     1       6.600  -0.060   6.046  0.00  0.00    +0.209 A 
ATOM     18  N   UNL     1       7.599  -0.406   5.207  0.00  0.00    -0.246 N 
ATOM     19  N   UNL     1       7.081  -0.301   3.906  0.00  0.00    -0.144 NA
ATOM     20  N   UNL     1       6.673  -0.027   7.426  0.00  0.00    -0.328 N 
ATOM     21  H   UNL     1       5.898   0.237   7.947  0.00  0.00    +0.145 HD
ATOM     22  H   UNL     1       7.499  -0.267   7.875  0.00  0.00    +0.145 HD
ENDBRANCH  13  14
ENDBRANCH  12  13
ENDBRANCH   9  12
TORSDOF 3
