REMARK  Name = ZINC43428700
REMARK  4 active torsions:
REMARK  status: ('A' for Active; 'I' for Inactive)
REMARK    1  A    between atoms: N_15  and  CA_16
REMARK    2  A    between atoms: CA_16  and  CB_18
REMARK    3  A    between atoms: CA_16  and  C_22
REMARK    4  A    between atoms: CB_18  and  CG_19
REMARK                            x       y       z     vdW  Elec       q    Type
REMARK                         _______ _______ _______ _____ _____    ______ ____
ROOT
ATOM      1  C   UNK A   0      -0.016   1.525   0.010  0.00  0.00    +0.002 C 
ATOM      2  C   UNK A   0       1.421   2.050  -0.003  0.00  0.00    +0.003 C 
ATOM      3  C   UNK A   0       2.122   1.565  -1.273  0.00  0.00    +0.033 C 
ATOM      4  C   UNK A   0       2.135   0.041  -1.311  0.00  0.00    +0.139 C 
ATOM      5  C   UNK A   0       0.705  -0.506  -1.264  0.00  0.00    +0.106 C 
ATOM      6  C   UNK A   0       0.005  -0.004   0.002  0.00  0.00    +0.025 C 
ATOM      7  N   UNK A   0       0.789  -1.977  -1.194  0.00  0.00    -0.278 N 
ATOM      8  C   UNK A   0       1.650  -2.563  -0.154  0.00  0.00    +0.137 C 
ATOM      9  C   UNK A   0       3.030  -1.902  -0.232  0.00  0.00    +0.179 C 
ATOM     10  O   UNK A   0       2.867  -0.480  -0.202  0.00  0.00    -0.373 OA
ATOM     11  C   UNK A   0       0.101  -2.756  -2.052  0.00  0.00    +0.303 C 
ATOM     12  O   UNK A   0      -0.674  -2.254  -2.842  0.00  0.00    -0.253 OA
ATOM     13  N   ASN A   1       0.272  -4.093  -2.033  0.00  0.00    -0.285 N 
ATOM     14  H   ASN A   1       0.833  -4.501  -1.355  0.00  0.00    +0.151 HD
ENDROOT
BRANCH  13  15
ATOM     15  CA  ASN A   1      -0.389  -4.931  -3.037  0.00  0.00    +0.196 C 
BRANCH  15  16
ATOM     16  C   ASN A   1      -1.790  -5.249  -2.581  0.00  0.00    +0.376 C 
ATOM     17  O   ASN A   1      -2.672  -5.430  -3.403  0.00  0.00    -0.244 OA
ATOM     18  OXT ASN A   1      -2.042  -5.324  -1.391  0.00  0.00    -0.244 OA
ENDBRANCH  15  16
BRANCH  15  19
ATOM     19  CB  ASN A   1       0.397  -6.231  -3.214  0.00  0.00    +0.129 C 
BRANCH  19  20
ATOM     20  CG  ASN A   1       1.756  -5.922  -3.786  0.00  0.00    +0.213 C 
ATOM     21  OD1 ASN A   1       2.066  -4.774  -4.028  0.00  0.00    -0.276 OA
ATOM     22  ND2 ASN A   1       2.628  -6.921  -4.029  0.00  0.00    -0.329 N 
ATOM     23 HD21 ASN A   1       2.381  -7.838  -3.836  0.00  0.00    +0.145 HD
ATOM     24 HD22 ASN A   1       3.503  -6.722  -4.397  0.00  0.00    +0.145 HD
ENDBRANCH  19  20
ENDBRANCH  15  19
ENDBRANCH  13  15
TORSDOF 4
