REMARK  Name = ZINC19960080
REMARK  4 active torsions:
REMARK  status: ('A' for Active; 'I' for Inactive)
REMARK    1  A    between atoms: C_1  and  S_2
REMARK    2  A    between atoms: S_2  and  C_3
REMARK    3  A    between atoms: C_8  and  C_24
REMARK    4  A    between atoms: C_14  and  C_19
REMARK                            x       y       z     vdW  Elec       q    Type
REMARK                         _______ _______ _______ _____ _____    ______ ____
ROOT
ATOM      1  C   UNL     1      -1.702  -0.454   0.016  0.00  0.00    +0.210 A 
ATOM      2  N   UNL     1      -2.733   0.404   0.025  0.00  0.00    -0.187 NA
ATOM      3  C   UNL     1      -3.854  -0.264   0.030  0.00  0.00    +0.219 A 
ATOM      4  N   UNL     1      -3.558  -1.587   0.032  0.00  0.00    -0.219 N 
ATOM      5  N   UNL     1      -2.167  -1.684   0.014  0.00  0.00    -0.141 NA
ATOM      6  C   UNL     1      -4.570  -2.636   0.049  0.00  0.00    +0.182 C 
ATOM      7  C   UNL     1      -5.927  -2.052  -0.277  0.00  0.00    +0.041 C 
ATOM      8  C   UNL     1      -6.156  -0.722  -0.271  0.00  0.00    +0.020 C 
ATOM      9  N   UNL     1      -5.166   0.182   0.032  0.00  0.00    -0.287 N 
ATOM     10  C   UNL     1      -7.520  -0.167  -0.608  0.00  0.00    +0.063 C 
ATOM     11  C   UNL     1      -8.600  -1.163  -0.181  0.00  0.00    +0.068 C 
ATOM     12  C   UNL     1      -8.347  -2.489  -0.905  0.00  0.00    +0.091 C 
ATOM     13  C   UNL     1      -6.955  -2.960  -0.589  0.00  0.00    +0.164 C 
ATOM     14  O   UNL     1      -6.713  -4.151  -0.603  0.00  0.00    -0.292 OA
ATOM     15  H   UNL     1      -5.379   1.105   0.241  0.00  0.00    +0.155 HD
ENDROOT
BRANCH  11  16
ATOM     16  C   UNL     1      -9.959  -0.629  -0.555  0.00  0.00    +0.109 A 
ATOM     17  C   UNL     1     -10.963  -0.364   0.299  0.00  0.00    +0.045 A 
ATOM     18  C   UNL     1     -12.044   0.115  -0.475  0.00  0.00    +0.041 A 
ATOM     19  C   UNL     1     -11.637   0.113  -1.757  0.00  0.00    +0.195 A 
ATOM     20  O   UNL     1     -10.371  -0.334  -1.799  0.00  0.00    -0.468 OA
ENDBRANCH  11  16
BRANCH   6  21
ATOM     21  C   UNL     1      -4.614  -3.265   1.418  0.00  0.00    +0.019 A 
ATOM     22  C   UNL     1      -4.389  -4.554   1.773  0.00  0.00    +0.013 A 
ATOM     23  C   UNL     1      -4.486  -4.909   3.105  0.00  0.00    +0.008 A 
ATOM     24  C   UNL     1      -4.803  -3.958   4.018  0.00  0.00    +0.045 A 
ATOM     25  S   UNL     1      -4.970  -2.505   2.994  0.00  0.00    -0.099 S 
ENDBRANCH   6  21
BRANCH   1  27
ATOM     26  C   UNL     1      -0.022   1.810   0.012  0.00  0.00    +0.093 C 
ATOM     27  S   UNL     1       0.002  -0.004   0.002  0.00  0.00    -0.088 S 
ENDBRANCH   1  27
TORSDOF 3
