REMARK  Name = ZINC04384702
REMARK  5 active torsions:
REMARK  status: ('A' for Active; 'I' for Inactive)
REMARK    1  A    between atoms: C_1  and  C_2
REMARK    2  A    between atoms: C_2  and  C_30
REMARK    3  A    between atoms: C_6  and  C_19
REMARK    4  A    between atoms: C_22  and  S_25
REMARK    5  A    between atoms: S_25  and  C_26
REMARK                            x       y       z     vdW  Elec       q    Type
REMARK                         _______ _______ _______ _____ _____    ______ ____
ROOT
ATOM      1  C   UNL     1      -1.984   1.091  -2.159  0.00  0.00    +0.011 C 
ATOM      2  C   UNL     1      -2.396   1.296  -0.699  0.00  0.00    -0.023 C 
ATOM      3  C   UNL     1      -1.320   2.105   0.032  0.00  0.00    +0.058 C 
ATOM      4  C   UNL     1      -0.016   1.345   0.009  0.00  0.00    +0.017 C 
ATOM      5  C   UNL     1       0.002  -0.004   0.002  0.00  0.00    +0.024 C 
ATOM      6  C   UNL     1       1.306  -0.761  -0.015  0.00  0.00    +0.092 C 
ATOM      7  C   UNL     1       2.451   0.116   0.398  0.00  0.00    +0.067 A 
ATOM      8  C   UNL     1       2.332   1.473   0.387  0.00  0.00    +0.113 A 
ATOM      9  N   UNL     1       3.401   2.251   0.763  0.00  0.00    -0.295 N 
ATOM     10  H   UNL     1       3.318   3.248   0.754  0.00  0.00    +0.172 HD
ATOM     11  C   UNL     1       4.558   1.678   1.143  0.00  0.00    +0.328 A 
ATOM     12  O   UNL     1       5.494   2.380   1.471  0.00  0.00    -0.247 OA
ATOM     13  N   UNL     1       4.693   0.340   1.165  0.00  0.00    -0.275 N 
ATOM     14  H   UNL     1       5.560  -0.067   1.453  0.00  0.00    +0.173 HD
ATOM     15  C   UNL     1       3.669  -0.459   0.802  0.00  0.00    +0.260 A 
ATOM     16  O   UNL     1       3.798  -1.671   0.825  0.00  0.00    -0.267 OA
ATOM     17  N   UNL     1       1.152   2.059   0.002  0.00  0.00    -0.303 N 
ATOM     18  C   UNL     1      -1.193  -0.745   0.005  0.00  0.00    +0.162 C 
ATOM     19  O   UNL     1      -1.142  -1.959   0.018  0.00  0.00    -0.292 OA
ATOM     20  C   UNL     1      -2.534  -0.063  -0.006  0.00  0.00    +0.086 C 
ATOM     21  C   UNL     1      -3.732   2.041  -0.642  0.00  0.00    +0.011 C 
ATOM     22  H   UNL     1       1.146   2.988  -0.278  0.00  0.00    +0.153 HD
ENDROOT
BRANCH   6  23
ATOM     23  C   UNL     1       1.558  -1.278  -1.408  0.00  0.00    -0.035 A 
ATOM     24  C   UNL     1       1.660  -0.391  -2.465  0.00  0.00    +0.005 A 
ATOM     25  C   UNL     1       1.897  -0.860  -3.742  0.00  0.00    +0.015 A 
ATOM     26  C   UNL     1       2.021  -2.225  -3.966  0.00  0.00    +0.008 A 
ATOM     27  C   UNL     1       1.913  -3.114  -2.903  0.00  0.00    +0.015 A 
ATOM     28  C   UNL     1       1.682  -2.637  -1.628  0.00  0.00    +0.005 A 
BRANCH  26  29
ATOM     29  S   UNL     1       2.315  -2.829  -5.595  0.00  0.00    -0.129 S 
ATOM     30  C   UNL     1       2.377  -1.330  -6.614  0.00  0.00    +0.090 C 
ENDBRANCH  26  29
ENDBRANCH   6  23
TORSDOF 2
