REMARK  Name = ZINC03880682
REMARK  3 active torsions:
REMARK  status: ('A' for Active; 'I' for Inactive)
REMARK    1  A    between atoms: C_9  and  N_20
REMARK    2  A    between atoms: C_10  and  N_11
REMARK    3  A    between atoms: N_12  and  C_13
REMARK                            x       y       z     vdW  Elec       q    Type
REMARK                         _______ _______ _______ _____ _____    ______ ____
ROOT
ATOM      1  C   UNL     1      -0.019   1.078  -0.043  0.00  0.00    +0.001 A 
ATOM      2  C   UNL     1      -1.239   1.750  -0.034  0.00  0.00    +0.001 A 
ATOM      3  C   UNL     1      -1.287   3.112  -0.005  0.00  0.00    +0.011 A 
ATOM      4  C   UNL     1      -0.096   3.847   0.006  0.00  0.00    +0.011 A 
ATOM      5  C   UNL     1       1.146   3.168  -0.009  0.00  0.00    -0.016 A 
ATOM      6  C   UNL     1       1.158   1.763  -0.034  0.00  0.00    +0.008 A 
ATOM      7  C   UNL     1       2.343   3.907   0.000  0.00  0.00    +0.010 A 
ATOM      8  C   UNL     1       2.323   5.265   0.024  0.00  0.00    +0.025 A 
ATOM      9  C   UNL     1       1.125   5.983   0.039  0.00  0.00    +0.053 A 
ATOM     10  C   UNL     1      -0.102   5.309   0.031  0.00  0.00    +0.114 A 
ENDROOT
BRANCH   9  11
ATOM     11  N   UNL     1       1.151   7.371   0.063  0.00  0.00    -0.356 N 
ATOM     12  H   UNL     1       1.997   7.838   0.142  0.00  0.00    +0.142 HD
ATOM     13  H   UNL     1       0.324   7.873   0.001  0.00  0.00    +0.142 HD
ENDBRANCH   9  11
BRANCH  10  14
ATOM     14  N   UNL     1      -1.272   5.999   0.047  0.00  0.00    -0.147 NA
ATOM     15  N   UNL     1      -2.392   5.367   0.152  0.00  0.00    -0.148 NA
BRANCH  15  16
ATOM     16  C   UNL     1      -3.569   6.060   0.168  0.00  0.00    +0.104 A 
ATOM     17  C   UNL     1      -3.564   7.454   0.070  0.00  0.00    +0.031 A 
ATOM     18  C   UNL     1      -4.756   8.147   0.086  0.00  0.00    +0.002 A 
ATOM     19  C   UNL     1      -5.956   7.466   0.199  0.00  0.00    +0.002 A 
ATOM     20  C   UNL     1      -5.970   6.087   0.297  0.00  0.00    +0.022 A 
ATOM     21  C   UNL     1      -4.785   5.378   0.277  0.00  0.00    +0.068 A 
ATOM     22 CL   UNL     1      -4.805   3.646   0.393  0.00  0.00    -0.081 Cl
ENDBRANCH  15  16
ENDBRANCH  10  14
TORSDOF 3
