REMARK  Name = ZINC43913107
REMARK  7 active torsions:
REMARK  status: ('A' for Active; 'I' for Inactive)
REMARK    1  A    between atoms: C_1  and  C_2
REMARK    2  A    between atoms: C_2  and  C_3
REMARK    3  A    between atoms: C_3  and  N_4
REMARK    4  A    between atoms: C_5  and  C_7
REMARK    5  A    between atoms: C_7  and  N_8
REMARK    6  A    between atoms: N_11  and  C_12
REMARK    7  A    between atoms: C_16  and  C_18
REMARK                            x       y       z     vdW  Elec       q    Type
REMARK                         _______ _______ _______ _____ _____    ______ ____
ROOT
ATOM      1  N   UNL     1       2.022  -4.602  -3.502  0.00  0.00    -0.291 N 
ATOM      2  C   UNL     1       2.168  -5.924  -3.719  0.00  0.00    +0.304 C 
ATOM      3  O   UNL     1       1.732  -6.724  -2.914  0.00  0.00    -0.252 OA
ATOM      4  N   UNL     1       2.797  -6.359  -4.829  0.00  0.00    -0.269 N 
ATOM      5  H   UNL     1       2.370  -3.963  -4.144  0.00  0.00    +0.151 HD
ATOM      6  H   UNL     1       3.086  -5.724  -5.503  0.00  0.00    +0.156 HD
ENDROOT
BRANCH   4   7
ATOM      7  C   UNL     1       3.034  -7.727  -5.009  0.00  0.00    +0.036 A 
ATOM      8  C   UNL     1       4.199  -8.154  -5.636  0.00  0.00    +0.025 A 
ATOM      9  C   UNL     1       4.439  -9.502  -5.816  0.00  0.00    +0.023 A 
ATOM     10  C   UNL     1       3.523 -10.437  -5.374  0.00  0.00    +0.058 A 
ATOM     11  C   UNL     1       2.349 -10.018  -4.742  0.00  0.00    +0.072 A 
ATOM     12  C   UNL     1       2.110  -8.655  -4.557  0.00  0.00    +0.043 A 
ATOM     13 CL   UNL     1       3.829 -12.130  -5.604  0.00  0.00    -0.082 Cl
BRANCH  11  14
ATOM     14  C   UNL     1       1.396 -10.983  -4.283  0.00  0.00    +0.101 C 
ATOM     15  N   UNL     1       0.640 -11.749  -3.918  0.00  0.00    -0.191 NA
ENDBRANCH  11  14
ENDBRANCH   4   7
BRANCH   1  16
ATOM     16  C   UNL     1       1.339  -4.129  -2.295  0.00  0.00    +0.201 C 
BRANCH  16  18
ATOM     17  N   UNL     1       0.727  -1.962  -1.272  0.00  0.00    -0.314 N 
ATOM     18  C   UNL     1       1.310  -2.623  -2.292  0.00  0.00    +0.230 C 
ATOM     19  O   UNL     1       1.810  -2.004  -3.207  0.00  0.00    -0.274 OA
ATOM     20  H   UNL     1       0.326  -2.456  -0.540  0.00  0.00    +0.149 HD
BRANCH  17  21
ATOM     21  C   UNL     1       0.698  -0.497  -1.269  0.00  0.00    +0.104 C 
BRANCH  21  23
ATOM     22  C   UNL     1      -0.045   1.526  -0.006  0.00  0.00    +0.005 C 
ATOM     23  C   UNL     1      -0.016  -0.004  -0.009  0.00  0.00    +0.015 C 
ENDBRANCH  21  23
ENDBRANCH  17  21
ENDBRANCH  16  18
ENDBRANCH   1  16
TORSDOF 6
