REMARK  Name = ZINC55022452
REMARK  8 active torsions:
REMARK  status: ('A' for Active; 'I' for Inactive)
REMARK    1  A    between atoms: C_1  and  N_2
REMARK    2  A    between atoms: N_2  and  C_3
REMARK    3  A    between atoms: N_2  and  C_12
REMARK    4  A    between atoms: C_3  and  C_4
REMARK    5  A    between atoms: C_4  and  C_5
REMARK    6  A    between atoms: C_12  and  C_13
REMARK    7  A    between atoms: N_15  and  C_16
REMARK    8  A    between atoms: C_17  and  C_21
REMARK                            x       y       z     vdW  Elec       q    Type
REMARK                         _______ _______ _______ _____ _____    ______ ____
ROOT
ATOM      1  C   UNL     1       2.137  -0.060  -1.158  0.00  0.00    +0.201 C 
ATOM      2  O   UNL     1       2.554   0.571  -0.210  0.00  0.00    -0.278 OA
ATOM      3  N   UNL     1       2.967  -0.387  -2.168  0.00  0.00    -0.281 N 
ATOM      4  H   UNL     1       2.633  -0.891  -2.926  0.00  0.00    +0.155 HD
ENDROOT
BRANCH   3   5
ATOM      5  C   UNL     1       4.298  -0.002  -2.123  0.00  0.00    +0.084 A 
ATOM      6  C   UNL     1       5.288  -0.242  -3.065  0.00  0.00    +0.065 A 
ATOM      7  C   UNL     1       6.604   0.275  -2.767  0.00  0.00    +0.022 A 
ATOM      8  C   UNL     1       6.723   0.936  -1.601  0.00  0.00    +0.048 A 
ATOM      9  S   UNL     1       5.081   0.867  -0.920  0.00  0.00    -0.081 S 
BRANCH   6  10
ATOM     10  C   UNL     1       5.013  -0.983  -4.300  0.00  0.00    +0.244 C 
ATOM     11  O   UNL     1       3.892  -1.405  -4.520  0.00  0.00    -0.270 OA
ATOM     12  N   UNL     1       6.000  -1.196  -5.192  0.00  0.00    -0.325 N 
ATOM     13  H   UNL     1       6.893  -0.860  -5.017  0.00  0.00    +0.145 HD
ATOM     14  H   UNL     1       5.818  -1.687  -6.009  0.00  0.00    +0.145 HD
ENDBRANCH   6  10
ENDBRANCH   3   5
BRANCH   1  15
ATOM     15  C   UNL     1       0.690  -0.478  -1.207  0.00  0.00    +0.019 C 
BRANCH  15  17
ATOM     16  C   UNL     1      -0.018   1.465   0.010  0.00  0.00    -0.096 C 
ATOM     17  N   UNL     1       0.002  -0.004   0.002  0.00  0.00    +0.384 N 
ATOM     18  H   UNL     1       0.490  -0.338   0.820  0.00  0.00    -0.082 HD
BRANCH  17  19
ATOM     19  C   UNL     1      -1.376  -0.512   0.012  0.00  0.00    -0.074 C 
BRANCH  19  20
ATOM     20  C   UNL     1      -2.053  -0.124   1.328  0.00  0.00    +0.016 C 
BRANCH  20  21
ATOM     21  C   UNL     1      -3.467  -0.646   1.339  0.00  0.00    -0.049 A 
ATOM     22  C   UNL     1      -4.494   0.134   0.842  0.00  0.00    +0.006 A 
ATOM     23  C   UNL     1      -5.791  -0.344   0.851  0.00  0.00    +0.038 A 
ATOM     24  C   UNL     1      -6.061  -1.603   1.358  0.00  0.00    +0.123 A 
ATOM     25  C   UNL     1      -5.031  -2.383   1.856  0.00  0.00    +0.038 A 
ATOM     26  C   UNL     1      -3.734  -1.906   1.841  0.00  0.00    +0.006 A 
ATOM     27  F   UNL     1      -7.329  -2.071   1.367  0.00  0.00    -0.205 F 
ENDBRANCH  20  21
ENDBRANCH  19  20
ENDBRANCH  17  19
ENDBRANCH  15  17
ENDBRANCH   1  15
TORSDOF 7
