REMARK  Name = ZINC33937244
REMARK  12 active torsions:
REMARK  status: ('A' for Active; 'I' for Inactive)
REMARK    1  A    between atoms: C_1  and  C_2
REMARK    2  A    between atoms: C_2  and  C_3
REMARK    3  A    between atoms: C_2  and  C_4
REMARK    4  A    between atoms: C_4  and  C_6
REMARK    5  A    between atoms: C_4  and  N_18
REMARK    6  A    between atoms: N_10  and  C_11
REMARK    7  A    between atoms: C_11  and  C_12
REMARK    8  A    between atoms: N_18  and  C_19
REMARK    9  A    between atoms: N_18  and  C_22
REMARK   10  A    between atoms: C_19  and  C_20
REMARK   11  A    between atoms: C_20  and  O_21
REMARK   12  A    between atoms: C_22  and  C_23
REMARK                            x       y       z     vdW  Elec       q    Type
REMARK                         _______ _______ _______ _____ _____    ______ ____
ROOT
ATOM      1  N   UNL     1      -2.763  -0.378  -1.242  0.00  0.00    +0.391 N 
ATOM      2  H   UNL     1      -2.731  -0.815  -2.151  0.00  0.00    -0.080 HD
ENDROOT
BRANCH   1   3
ATOM      3  C   UNL     1      -1.628  -0.846  -0.435  0.00  0.00    +0.006 C 
BRANCH   3   4
ATOM      4  C   UNL     1      -1.753  -0.305   0.967  0.00  0.00    +0.138 A 
ATOM      5  N   UNL     1      -2.851  -0.214   1.675  0.00  0.00    -0.115 NA
ATOM      6  N   UNL     1      -2.546   0.297   2.818  0.00  0.00    -0.023 NA
ATOM      7  N   UNL     1      -1.282   0.534   2.856  0.00  0.00    -0.044 NA
ATOM      8  N   UNL     1      -0.756   0.171   1.735  0.00  0.00    -0.228 N 
BRANCH   8   9
ATOM      9  C   UNL     1       0.659   0.264   1.367  0.00  0.00    +0.178 C 
BRANCH   9  10
ATOM     10  C   UNL     1       0.979   1.694   0.926  0.00  0.00    +0.140 C 
ATOM     11  C   UNL     1       2.477   1.819   0.550  0.00  0.00    +0.035 C 
ATOM     12  C   UNL     1       2.436   3.027  -0.424  0.00  0.00    +0.031 C 
ATOM     13  C   UNL     1       1.073   2.840  -1.123  0.00  0.00    +0.160 C 
ATOM     14  O   UNL     1       0.260   2.017  -0.275  0.00  0.00    -0.375 OA
ENDBRANCH   9  10
ENDBRANCH   8   9
ENDBRANCH   3   4
BRANCH   3  16
ATOM     15  C   UNL     1      -1.425  -2.924  -1.807  0.00  0.00    +0.006 C 
ATOM     16  C   UNL     1      -1.628  -2.375  -0.393  0.00  0.00    -0.024 C 
ATOM     17  C   UNL     1      -0.492  -2.861   0.509  0.00  0.00    +0.006 C 
ENDBRANCH   3  16
ENDBRANCH   1   3
BRANCH   1  18
ATOM     18  C   UNL     1      -2.685   1.081  -1.397  0.00  0.00    -0.049 C 
BRANCH  18  19
ATOM     19  C   UNL     1      -1.462   1.440  -2.243  0.00  0.00    +0.137 C 
BRANCH  19  20
ATOM     20  O   UNL     1      -1.636   0.937  -3.570  0.00  0.00    -0.397 OA
ATOM     21  H   UNL     1      -0.897   1.128  -4.163  0.00  0.00    +0.209 HD
ENDBRANCH  19  20
ENDBRANCH  18  19
ENDBRANCH   1  18
BRANCH   1  22
ATOM     22  C   UNL     1      -4.020  -0.733  -0.572  0.00  0.00    -0.036 C 
BRANCH  22  23
ATOM     23  C   UNL     1      -5.180  -0.419  -1.482  0.00  0.00    +0.001 A 
ATOM     24  C   UNL     1      -5.706  -1.393  -2.267  0.00  0.00    +0.017 A 
ATOM     25  C   UNL     1      -6.832  -1.058  -3.138  0.00  0.00    +0.002 A 
ATOM     26  C   UNL     1      -7.414  -2.021  -3.971  0.00  0.00    +0.059 A 
ATOM     27  C   UNL     1      -8.475  -1.675  -4.781  0.00  0.00    +0.163 A 
ATOM     28  C   UNL     1      -8.971  -0.368  -4.772  0.00  0.00    +0.164 A 
ATOM     29  C   UNL     1      -8.400   0.591  -3.953  0.00  0.00    +0.075 A 
ATOM     30  C   UNL     1      -7.330   0.260  -3.132  0.00  0.00    +0.053 A 
ATOM     31  N   UNL     1      -6.750   1.204  -2.309  0.00  0.00    -0.322 N 
ATOM     32  H   UNL     1      -7.094   2.111  -2.306  0.00  0.00    +0.169 HD
ATOM     33  C   UNL     1      -5.719   0.883  -1.509  0.00  0.00    +0.251 A 
ATOM     34  O   UNL     1      -5.234   1.741  -0.791  0.00  0.00    -0.268 OA
ATOM     35  O   UNL     1     -10.023  -0.021  -5.562  0.00  0.00    -0.485 OA
ATOM     36  C   UNL     1     -10.334  -0.904  -6.645  0.00  0.00    +0.270 C 
ATOM     37  C   UNL     1     -10.331  -2.343  -6.110  0.00  0.00    +0.270 C 
ATOM     38  O   UNL     1      -9.028  -2.623  -5.588  0.00  0.00    -0.485 OA
ENDBRANCH  22  23
ENDBRANCH   1  22
TORSDOF 10
