REMARK  Name = ZINC13747297
REMARK  8 active torsions:
REMARK  status: ('A' for Active; 'I' for Inactive)
REMARK    1  A    between atoms: C_1  and  C_2
REMARK    2  A    between atoms: C_2  and  O_3
REMARK    3  A    between atoms: O_3  and  C_4
REMARK    4  A    between atoms: C_6  and  C_14
REMARK    5  A    between atoms: C_9  and  O_10
REMARK    6  A    between atoms: O_10  and  C_11
REMARK    7  A    between atoms: C_11  and  C_12
REMARK    8  A    between atoms: N_15  and  N_16
REMARK                            x       y       z     vdW  Elec       q    Type
REMARK                         _______ _______ _______ _____ _____    ______ ____
ROOT
ATOM      1  C   UNL     1       0.807   1.990   2.990  0.00  0.00    +0.164 A 
ATOM      2  C   UNL     1       1.350   1.622   4.207  0.00  0.00    +0.059 A 
ATOM      3  C   UNL     1       0.938   0.437   4.823  0.00  0.00    -0.000 A 
ATOM      4  C   UNL     1      -0.021  -0.370   4.205  0.00  0.00    +0.033 A 
ATOM      5  C   UNL     1      -0.562   0.007   2.994  0.00  0.00    +0.087 A 
ATOM      6  C   UNL     1      -0.148   1.182   2.380  0.00  0.00    +0.180 A 
ATOM      7 CL   UNL     1      -1.760  -0.993   2.231  0.00  0.00    -0.080 Cl
ENDROOT
BRANCH   3   8
ATOM      8  C   UNL     1       1.514   0.040   6.121  0.00  0.00    +0.138 C 
ATOM      9  N   UNL     1       1.130  -1.061   6.691  0.00  0.00    -0.186 NA
BRANCH   9  10
ATOM     10  N   UNL     1       1.677  -1.438   7.924  0.00  0.00    -0.191 N 
ATOM     11  C   UNL     1       1.278  -2.581   8.516  0.00  0.00    +0.317 C 
ATOM     12  O   UNL     1       1.753  -2.909   9.587  0.00  0.00    -0.251 OA
ATOM     13  N   UNL     1       0.353  -3.361   7.922  0.00  0.00    -0.312 N 
ATOM     14  H   UNL     1       2.343  -0.877   8.352  0.00  0.00    +0.179 HD
ATOM     15  H   UNL     1      -0.025  -3.100   7.068  0.00  0.00    +0.147 HD
ATOM     16  H   UNL     1       0.067  -4.184   8.349  0.00  0.00    +0.147 HD
ENDBRANCH   9  10
ENDBRANCH   3   8
BRANCH   1  17
ATOM     17  O   UNL     1       1.206   3.143   2.389  0.00  0.00    -0.489 OA
BRANCH  17  19
ATOM     18  C   UNL     1       2.510   5.173   2.248  0.00  0.00    +0.048 C 
ATOM     19  C   UNL     1       2.190   3.924   3.071  0.00  0.00    +0.226 C 
ENDBRANCH  17  19
ENDBRANCH   1  17
BRANCH   6  20
ATOM     20  O   UNL     1      -0.682   1.547   1.184  0.00  0.00    -0.487 OA
BRANCH  20  21
ATOM     21  C   UNL     1      -0.013   1.086   0.008  0.00  0.00    +0.226 C 
ATOM     22  C   UNL     1      -0.753   1.593  -1.232  0.00  0.00    +0.048 C 
ENDBRANCH  20  21
ENDBRANCH   6  20
TORSDOF 6
