REMARK  Name = ZINC20114019
REMARK  6 active torsions:
REMARK  status: ('A' for Active; 'I' for Inactive)
REMARK    1  A    between atoms: C_1  and  O_2
REMARK    2  A    between atoms: O_2  and  C_3
REMARK    3  A    between atoms: C_8  and  O_9
REMARK    4  A    between atoms: O_9  and  C_10
REMARK    5  A    between atoms: C_11  and  C_16
REMARK    6  A    between atoms: N_21  and  C_24
REMARK                            x       y       z     vdW  Elec       q    Type
REMARK                         _______ _______ _______ _____ _____    ______ ____
ROOT
ATOM      1  C   UNL     1       4.004   3.506   0.992  0.00  0.00    +0.072 A 
ATOM      2  C   UNL     1       3.516   4.665   0.465  0.00  0.00    +0.258 A 
ATOM      3  N   UNL     1       2.905   5.576   1.288  0.00  0.00    -0.302 N 
ATOM      4  C   UNL     1       2.794   5.336   2.608  0.00  0.00    +0.168 A 
ATOM      5  S   UNL     1       2.032   6.492   3.614  0.00  0.00    -0.012 S 
ATOM      6  N   UNL     1       3.274   4.200   3.148  0.00  0.00    -0.256 N 
ATOM      7  C   UNL     1       3.877   3.277   2.373  0.00  0.00    +0.265 A 
ATOM      8  O   UNL     1       4.310   2.250   2.868  0.00  0.00    -0.267 OA
ATOM      9  O   UNL     1       3.630   4.912  -0.857  0.00  0.00    -0.267 OA
ATOM     10  H   UNL     1       2.501   6.510   0.871  0.00  0.00    +0.171 HD
ENDROOT
BRANCH   1  17
ATOM     11  C   UNL     1       2.273  -1.057   0.043  0.00  0.00    +0.162 A 
ATOM     12  C   UNL     1       3.650  -1.163   0.136  0.00  0.00    +0.053 A 
ATOM     13  C   UNL     1       4.440  -0.024   0.164  0.00  0.00    -0.044 A 
ATOM     14  C   UNL     1       3.855   1.223   0.093  0.00  0.00    -0.050 A 
ATOM     15  C   UNL     1       2.476   1.334   0.001  0.00  0.00    +0.052 A 
ATOM     16  C   UNL     1       1.682   0.201  -0.025  0.00  0.00    +0.162 A 
ATOM     17  C   UNL     1       4.675   2.487   0.107  0.00  0.00    +0.001 C 
ATOM     18  N   UNL     1       6.023   2.219   0.619  0.00  0.00    +0.387 N 
ATOM     19  C   UNL     1       6.637   1.106  -0.123  0.00  0.00    -0.077 C 
ATOM     20  C   UNL     1       5.934  -0.191   0.278  0.00  0.00    +0.016 C 
ATOM     21  H   UNL     1       6.646   3.118   0.500  0.00  0.00    -0.085 HD
ATOM     22  H   UNL     1       5.964   1.952   1.684  0.00  0.00    -0.085 HD
BRANCH  11  24
ATOM     23  C   UNL     1       2.179  -3.433   0.089  0.00  0.00    +0.277 C 
ATOM     24  O   UNL     1       1.502  -2.176   0.016  0.00  0.00    -0.491 OA
ENDBRANCH  11  24
BRANCH  16  25
ATOM     25  O   UNL     1       0.330   0.317  -0.120  0.00  0.00    -0.491 OA
ATOM     26  C   UNL     1      -0.205   1.640  -0.185  0.00  0.00    +0.277 C 
ENDBRANCH  16  25
ENDBRANCH   1  17
BRANCH   6  27
ATOM     27  C   UNL     1       3.146   3.977   4.525  0.00  0.00    +0.052 A 
ATOM     28  C   UNL     1       2.022   3.333   5.023  0.00  0.00    +0.029 A 
ATOM     29  C   UNL     1       1.899   3.109   6.381  0.00  0.00    +0.040 A 
ATOM     30  C   UNL     1       2.893   3.536   7.246  0.00  0.00    +0.124 A 
ATOM     31  C   UNL     1       4.012   4.184   6.752  0.00  0.00    +0.040 A 
ATOM     32  C   UNL     1       4.140   4.405   5.394  0.00  0.00    +0.029 A 
ATOM     33  F   UNL     1       2.769   3.321   8.574  0.00  0.00    -0.205 F 
ENDBRANCH   6  27
TORSDOF 4
