REMARK  Name = ZINC14665822
REMARK  13 active torsions:
REMARK  status: ('A' for Active; 'I' for Inactive)
REMARK    1  A    between atoms: C_1  and  C_2
REMARK    2  A    between atoms: C_2  and  C_4
REMARK    3  A    between atoms: C_2  and  O_23
REMARK    4  A    between atoms: N_6  and  N_7
REMARK    5  A    between atoms: C_8  and  C_10
REMARK    6  A    between atoms: C_10  and  C_11
REMARK    7  A    between atoms: C_11  and  C_12
REMARK    8  A    between atoms: N_14  and  C_15
REMARK    9  A    between atoms: O_23  and  C_24
REMARK   10  A    between atoms: C_27  and  C_30
REMARK   11  A    between atoms: C_30  and  C_31
REMARK   12  A    between atoms: C_30  and  C_32
REMARK   13  A    between atoms: C_30  and  C_33
REMARK                            x       y       z     vdW  Elec       q    Type
REMARK                         _______ _______ _______ _____ _____    ______ ____
ROOT
ATOM      1  N   UNL     1       0.934   0.958  -0.063  0.00  0.00    -0.234 N 
ATOM      2  C   UNL     1       2.180   0.448  -0.122  0.00  0.00    +0.230 C 
ATOM      3  O   UNL     1       2.343  -0.754  -0.137  0.00  0.00    -0.274 OA
ATOM      4  H   UNL     1       0.804   1.919  -0.052  0.00  0.00    +0.173 HD
ENDROOT
BRANCH   1   7
ATOM      5  C   UNL     1      -1.419   0.611   0.035  0.00  0.00    +0.270 C 
ATOM      6  O   UNL     1      -1.582   1.813   0.049  0.00  0.00    -0.270 OA
ATOM      7  N   UNL     1      -0.173   0.101  -0.018  0.00  0.00    -0.231 N 
ATOM      8  H   UNL     1      -0.043  -0.860  -0.030  0.00  0.00    +0.173 HD
BRANCH   5  10
ATOM      9  C   UNL     1      -2.622  -1.186  -1.178  0.00  0.00    +0.062 C 
ATOM     10  C   UNL     1      -2.610  -0.311   0.077  0.00  0.00    +0.257 C 
BRANCH  10  11
ATOM     11  O   UNL     1      -3.810   0.463   0.130  0.00  0.00    -0.480 OA
BRANCH  11  12
ATOM     12  C   UNL     1      -4.845  -0.053   0.844  0.00  0.00    +0.122 A 
ATOM     13  C   UNL     1      -5.992   0.701   1.049  0.00  0.00    +0.046 A 
ATOM     14  C   UNL     1      -7.045   0.173   1.770  0.00  0.00    +0.008 A 
ATOM     15  C   UNL     1      -6.953  -1.102   2.298  0.00  0.00    -0.042 A 
ATOM     16  C   UNL     1      -5.809  -1.853   2.100  0.00  0.00    +0.008 A 
ATOM     17  C   UNL     1      -4.755  -1.331   1.375  0.00  0.00    +0.046 A 
BRANCH  15  18
ATOM     18  C   UNL     1      -8.101  -1.673   3.089  0.00  0.00    -0.013 C 
ATOM     19  C   UNL     1      -7.627  -2.007   4.505  0.00  0.00    +0.015 C 
ATOM     20  C   UNL     1      -9.233  -0.647   3.158  0.00  0.00    +0.015 C 
ATOM     21  C   UNL     1      -8.607  -2.946   2.408  0.00  0.00    +0.015 C 
ENDBRANCH  15  18
ENDBRANCH  11  12
ENDBRANCH  10  11
ENDBRANCH   5  10
ENDBRANCH   1   7
BRANCH   2  22
ATOM     22  C   UNL     1       3.371   1.370  -0.171  0.00  0.00    +0.106 C 
BRANCH  22  23
ATOM     23  C   UNL     1       4.655   0.542  -0.233  0.00  0.00    +0.105 C 
BRANCH  23  24
ATOM     24  C   UNL     1       5.846   1.464  -0.282  0.00  0.00    +0.218 C 
ATOM     25  O   UNL     1       5.683   2.666  -0.267  0.00  0.00    -0.275 OA
ATOM     26  N   UNL     1       7.092   0.954  -0.341  0.00  0.00    -0.284 N 
ATOM     27  H   UNL     1       7.226  -0.005  -0.288  0.00  0.00    +0.155 HD
BRANCH  26  28
ATOM     28  C   UNL     1       8.193   1.808  -0.478  0.00  0.00    +0.052 A 
ATOM     29  C   UNL     1       8.184   3.058   0.127  0.00  0.00    +0.026 A 
ATOM     30  C   UNL     1       9.271   3.898  -0.009  0.00  0.00    +0.022 A 
ATOM     31  C   UNL     1      10.370   3.497  -0.748  0.00  0.00    +0.042 A 
ATOM     32  C   UNL     1      10.383   2.252  -1.353  0.00  0.00    +0.041 A 
ATOM     33  C   UNL     1       9.299   1.405  -1.216  0.00  0.00    +0.064 A 
ATOM     34 CL   UNL     1       9.319  -0.159  -1.969  0.00  0.00    -0.082 Cl
ATOM     35 CL   UNL     1      11.734   4.556  -0.918  0.00  0.00    -0.083 Cl
ENDBRANCH  26  28
ENDBRANCH  23  24
ENDBRANCH  22  23
ENDBRANCH   2  22
TORSDOF 9
