REMARK  Name = ZINC08886806
REMARK  4 active torsions:
REMARK  status: ('A' for Active; 'I' for Inactive)
REMARK    1  A    between atoms: C_1  and  C_2
REMARK    2  A    between atoms: C_2  and  C_16
REMARK    3  A    between atoms: N_5  and  C_9
REMARK    4  A    between atoms: C_9  and  C_10
REMARK                            x       y       z     vdW  Elec       q    Type
REMARK                         _______ _______ _______ _____ _____    ______ ____
ROOT
ATOM      1  C   UNL     1       2.935   0.806  -1.455  0.00  0.00    +0.047 C 
ATOM      2  C   UNL     1       2.466   1.033  -0.017  0.00  0.00    +0.135 C 
ATOM      3  C   UNL     1       3.515   1.784   0.779  0.00  0.00    +0.251 C 
ATOM      4  O   UNL     1       3.943   2.897   0.558  0.00  0.00    -0.272 OA
ATOM      5  N   UNL     1       3.873   0.958   1.781  0.00  0.00    -0.215 N 
ATOM      6  C   UNL     1       3.204  -0.200   1.730  0.00  0.00    +0.310 C 
ATOM      7  O   UNL     1       3.355  -1.104   2.528  0.00  0.00    -0.252 OA
ATOM      8  N   UNL     1       2.343  -0.250   0.697  0.00  0.00    -0.281 N 
ATOM      9  H   UNL     1       1.757  -0.988   0.467  0.00  0.00    +0.152 HD
ENDROOT
BRANCH   2  10
ATOM     10  C   UNL     1       1.155   1.776   0.001  0.00  0.00    -0.015 A 
ATOM     11  C   UNL     1       1.155   3.170   0.008  0.00  0.00    +0.007 A 
ATOM     12  C   UNL     1      -0.011   3.871   0.023  0.00  0.00    +0.009 A 
ATOM     13  C   UNL     1      -1.236   3.183   0.031  0.00  0.00    -0.018 A 
ATOM     14  C   UNL     1      -2.460   3.873   0.047  0.00  0.00    +0.008 A 
ATOM     15  C   UNL     1      -3.627   3.172   0.055  0.00  0.00    +0.001 A 
ATOM     16  C   UNL     1      -3.628   1.779   0.048  0.00  0.00    +0.001 A 
ATOM     17  C   UNL     1      -2.462   1.077   0.032  0.00  0.00    +0.008 A 
ATOM     18  C   UNL     1      -1.237   1.766   0.018  0.00  0.00    -0.018 A 
ATOM     19  C   UNL     1      -0.013   1.076   0.008  0.00  0.00    +0.014 A 
ENDBRANCH   2  10
BRANCH   5  20
ATOM     20  C   UNL     1       4.873   1.286   2.801  0.00  0.00    +0.214 C 
BRANCH  20  21
ATOM     21  C   UNL     1       6.235   0.845   2.330  0.00  0.00    +0.238 C 
ATOM     22  O   UNL     1       6.358   0.310   1.249  0.00  0.00    -0.274 OA
ATOM     23  N   UNL     1       7.315   1.046   3.110  0.00  0.00    -0.239 N 
ATOM     24  C   UNL     1       8.533   0.652   2.688  0.00  0.00    +0.303 C 
ATOM     25  O   UNL     1       8.657   0.115   1.605  0.00  0.00    -0.253 OA
ATOM     26  N   UNL     1       9.614   0.853   3.469  0.00  0.00    -0.313 N 
ATOM     27  H   UNL     1       7.216   1.474   3.974  0.00  0.00    +0.159 HD
ATOM     28  H   UNL     1       9.515   1.281   4.333  0.00  0.00    +0.146 HD
ATOM     29  H   UNL     1      10.490   0.569   3.165  0.00  0.00    +0.146 HD
ENDBRANCH  20  21
ENDBRANCH   5  20
TORSDOF 3
