REMARK  Name = ZINC07747447
REMARK  4 active torsions:
REMARK  status: ('A' for Active; 'I' for Inactive)
REMARK    1  A    between atoms: C_3  and  N_21
REMARK    2  A    between atoms: C_4  and  N_8
REMARK    3  A    between atoms: C_9  and  C_11
REMARK    4  A    between atoms: C_11  and  N_12
REMARK                            x       y       z     vdW  Elec       q    Type
REMARK                         _______ _______ _______ _____ _____    ______ ____
ROOT
ATOM      1  N   UNL     1      -4.042   5.447   1.734  0.00  0.00    -0.282 N 
ATOM      2  C   UNL     1      -3.321   4.353   1.421  0.00  0.00    +0.239 C 
ATOM      3  O   UNL     1      -3.021   3.557   2.286  0.00  0.00    -0.273 OA
ATOM      4  H   UNL     1      -4.226   6.117   1.057  0.00  0.00    +0.155 HD
ENDROOT
BRANCH   1   8
ATOM      5  C   UNL     1      -5.482   5.956   5.616  0.00  0.00    +0.022 A 
ATOM      6  C   UNL     1      -6.238   6.388   4.542  0.00  0.00    +0.031 A 
ATOM      7  C   UNL     1      -5.764   6.221   3.249  0.00  0.00    +0.088 A 
ATOM      8  C   UNL     1      -4.525   5.618   3.037  0.00  0.00    +0.061 A 
ATOM      9  C   UNL     1      -3.775   5.183   4.120  0.00  0.00    +0.045 A 
ATOM     10  C   UNL     1      -4.252   5.358   5.406  0.00  0.00    +0.043 A 
ATOM     11 CL   UNL     1      -3.309   4.819   6.760  0.00  0.00    -0.083 Cl
BRANCH   7  12
ATOM     12  N   UNL     1      -6.530   6.658   2.158  0.00  0.00    -0.218 N 
ATOM     13  C   UNL     1      -7.693   7.337   2.208  0.00  0.00    +0.225 A 
ATOM     14  N   UNL     1      -8.085   7.559   0.979  0.00  0.00    -0.222 NA
ATOM     15  C   UNL     1      -7.210   7.033   0.123  0.00  0.00    +0.245 A 
ATOM     16  N   UNL     1      -6.240   6.471   0.797  0.00  0.00    -0.153 NA
ENDBRANCH   7  12
ENDBRANCH   1   8
BRANCH   2  17
ATOM     17  C   UNL     1      -2.888   4.117  -0.003  0.00  0.00    +0.243 C 
BRANCH  17  18
ATOM     18  N   UNL     1      -2.123   2.870  -0.081  0.00  0.00    -0.219 N 
ATOM     19  C   UNL     1      -2.774   1.717  -0.326  0.00  0.00    +0.288 A 
ATOM     20  O   UNL     1      -3.985   1.712  -0.480  0.00  0.00    -0.265 OA
ATOM     21  C   UNL     1      -2.042   0.512  -0.397  0.00  0.00    +0.126 A 
ATOM     22  C   UNL     1      -0.686   0.579  -0.222  0.00  0.00    +0.084 A 
ATOM     23  C   UNL     1      -0.107   1.836   0.023  0.00  0.00    +0.154 A 
ATOM     24  N   UNL     1      -0.850   2.906   0.080  0.00  0.00    -0.175 NA
ATOM     25 CL   UNL     1       0.294  -0.853  -0.300  0.00  0.00    -0.080 Cl
ATOM     26 CL   UNL     1      -2.833  -1.002  -0.704  0.00  0.00    -0.076 Cl
ENDBRANCH  17  18
ENDBRANCH   2  17
TORSDOF 4
