REMARK  Name = ZINC08296680
REMARK  7 active torsions:
REMARK  status: ('A' for Active; 'I' for Inactive)
REMARK    1  A    between atoms: C_1  and  C_2
REMARK    2  A    between atoms: C_2  and  C_3
REMARK    3  A    between atoms: C_3  and  N_4
REMARK    4  A    between atoms: C_5  and  N_27
REMARK    5  A    between atoms: C_6  and  C_13
REMARK    6  A    between atoms: N_9  and  C_12
REMARK    7  A    between atoms: N_18  and  C_19
REMARK                            x       y       z     vdW  Elec       q    Type
REMARK                         _______ _______ _______ _____ _____    ______ ____
ROOT
ATOM      1  N   UNL     1       0.536  -0.896   2.253  0.00  0.00    -0.281 N 
ATOM      2  C   UNL     1       1.526  -1.620   1.635  0.00  0.00    +0.115 A 
ATOM      3  C   UNL     1       1.448  -3.006   1.633  0.00  0.00    +0.103 A 
ATOM      4  C   UNL     1       0.349  -3.626   2.271  0.00  0.00    +0.267 A 
ATOM      5  O   UNL     1       0.252  -4.840   2.286  0.00  0.00    -0.267 OA
ATOM      6  N   UNL     1      -0.592  -2.861   2.860  0.00  0.00    -0.263 N 
ATOM      7  C   UNL     1      -0.493  -1.520   2.854  0.00  0.00    +0.333 A 
ATOM      8  O   UNL     1      -1.354  -0.858   3.398  0.00  0.00    -0.246 OA
ATOM      9  C   UNL     1      -1.732  -3.499   3.522  0.00  0.00    +0.157 C 
ENDROOT
BRANCH   3  10
ATOM     10  C   UNL     1       2.499  -3.822   0.976  0.00  0.00    +0.089 A 
ATOM     11  C   UNL     1       2.378  -5.179   0.878  0.00  0.00    +0.077 A 
ATOM     12  S   UNL     1       3.891  -5.588   0.021  0.00  0.00    -0.060 S 
ATOM     13  C   UNL     1       4.519  -3.976  -0.121  0.00  0.00    +0.163 A 
ATOM     14  N   UNL     1       3.581  -3.254   0.460  0.00  0.00    -0.224 NA
ATOM     15  N   UNL     1       5.703  -3.553  -0.704  0.00  0.00    -0.294 N 
ATOM     16  H   UNL     1       5.883  -2.605  -0.805  0.00  0.00    +0.154 HD
BRANCH  15  17
ATOM     17  C   UNL     1       6.640  -4.494  -1.146  0.00  0.00    +0.034 A 
ATOM     18  C   UNL     1       7.376  -4.253  -2.299  0.00  0.00    +0.026 A 
ATOM     19  C   UNL     1       8.300  -5.183  -2.734  0.00  0.00    +0.041 A 
ATOM     20  C   UNL     1       8.493  -6.354  -2.022  0.00  0.00    +0.142 A 
ATOM     21  C   UNL     1       7.761  -6.597  -0.871  0.00  0.00    +0.078 A 
ATOM     22  C   UNL     1       6.838  -5.667  -0.429  0.00  0.00    +0.046 A 
ATOM     23 CL   UNL     1       8.005  -8.067   0.019  0.00  0.00    -0.081 Cl
ATOM     24  F   UNL     1       9.398  -7.262  -2.449  0.00  0.00    -0.204 F 
ENDBRANCH  15  17
ENDBRANCH   3  10
BRANCH   2  25
ATOM     25  N   UNL     1       2.576  -0.983   1.028  0.00  0.00    -0.344 N 
ATOM     26  H   UNL     1       3.421  -1.445   0.908  0.00  0.00    +0.144 HD
ATOM     27  H   UNL     1       2.476  -0.069   0.719  0.00  0.00    +0.144 HD
ENDBRANCH   2  25
BRANCH   1  28
ATOM     28  C   UNL     1       0.604   0.567   2.263  0.00  0.00    +0.128 C 
BRANCH  28  30
ATOM     29  C   UNL     1      -0.042   2.648   1.039  0.00  0.00    +0.005 C 
ATOM     30  C   UNL     1      -0.113   1.119   1.029  0.00  0.00    +0.018 C 
ENDBRANCH  28  30
ENDBRANCH   1  28
TORSDOF 5
