REMARK  Name = ZINC03448169
REMARK  4 active torsions:
REMARK  status: ('A' for Active; 'I' for Inactive)
REMARK    1  A    between atoms: C_1  and  C_2
REMARK    2  A    between atoms: C_9  and  N_14
REMARK    3  A    between atoms: C_10  and  C_11
REMARK    4  A    between atoms: C_15  and  C_17
REMARK                            x       y       z     vdW  Elec       q    Type
REMARK                         _______ _______ _______ _____ _____    ______ ____
ROOT
ATOM      1  C   UNL     1      -4.236  -2.369  -4.656  0.00  0.00    +0.008 C 
ATOM      2  C   UNL     1      -3.566  -1.652  -3.482  0.00  0.00    -0.009 C 
ATOM      3  C   UNL     1      -2.044  -1.719  -3.637  0.00  0.00    +0.008 C 
ATOM      4  C   UNL     1      -1.376  -0.800  -2.613  0.00  0.00    +0.037 C 
ATOM      5  C   UNL     1      -1.919  -1.129  -1.228  0.00  0.00    -0.023 A 
ATOM      6  C   UNL     1      -3.069  -1.821  -1.079  0.00  0.00    -0.004 A 
ATOM      7  S   UNL     1      -3.285  -1.969   0.672  0.00  0.00    -0.077 S 
ATOM      8  C   UNL     1      -1.865  -1.129   1.201  0.00  0.00    +0.085 A 
ATOM      9  C   UNL     1      -1.258  -0.754   0.010  0.00  0.00    +0.068 A 
ATOM     10  C   UNL     1      -3.959  -2.339  -2.166  0.00  0.00    +0.046 C 
ENDROOT
BRANCH   9  11
ATOM     11  C   UNL     1       0.002  -0.004   0.002  0.00  0.00    +0.244 C 
ATOM     12  O   UNL     1       1.064  -0.598  -0.011  0.00  0.00    -0.270 OA
ATOM     13  N   UNL     1      -0.016   1.344   0.009  0.00  0.00    -0.325 N 
ATOM     14  H   UNL     1       0.817   1.840   0.004  0.00  0.00    +0.145 HD
ATOM     15  H   UNL     1      -0.863   1.817   0.016  0.00  0.00    +0.145 HD
ENDBRANCH   9  11
BRANCH   8  16
ATOM     16  N   UNL     1      -1.439  -0.889   2.497  0.00  0.00    -0.274 N 
ATOM     17  C   UNL     1      -2.168  -1.335   3.539  0.00  0.00    +0.269 C 
ATOM     18  O   UNL     1      -3.200  -1.946   3.342  0.00  0.00    -0.268 OA
ATOM     19  H   UNL     1      -0.615  -0.401   2.654  0.00  0.00    +0.156 HD
BRANCH  17  20
ATOM     20  C   UNL     1      -1.713  -1.079   4.922  0.00  0.00    +0.146 A 
ATOM     21  C   UNL     1      -2.481  -1.548   6.016  0.00  0.00    +0.040 A 
ATOM     22  C   UNL     1      -2.030  -1.294   7.277  0.00  0.00    +0.074 A 
ATOM     23  C   UNL     1      -0.821  -0.576   7.415  0.00  0.00    +0.265 A 
ATOM     24  O   UNL     1      -0.379  -0.325   8.524  0.00  0.00    -0.266 OA
ATOM     25  N   UNL     1      -0.160  -0.171   6.315  0.00  0.00    -0.243 N 
ATOM     26  H   UNL     1       0.693   0.340   6.421  0.00  0.00    +0.192 HD
ATOM     27  N   UNL     1      -0.594  -0.422   5.133  0.00  0.00    -0.166 NA
ENDBRANCH  17  20
ENDBRANCH   8  16
TORSDOF 3
