REMARK  Name = ZINC33796304
REMARK  5 active torsions:
REMARK  status: ('A' for Active; 'I' for Inactive)
REMARK    1  A    between atoms: C_1  and  O_2
REMARK    2  A    between atoms: O_2  and  C_3
REMARK    3  A    between atoms: C_6  and  C_9
REMARK    4  A    between atoms: C_22  and  N_26
REMARK    5  A    between atoms: C_23  and  C_24
REMARK                            x       y       z     vdW  Elec       q    Type
REMARK                         _______ _______ _______ _____ _____    ______ ____
ROOT
ATOM      1  C   UNL     1       2.490   1.045  -0.016  0.00  0.00    +0.094 C 
ATOM      2  C   UNL     1       3.274   1.396   1.222  0.00  0.00    -0.014 C 
ATOM      3  C   UNL     1       4.300   2.241   1.161  0.00  0.00    +0.138 C 
ATOM      4  C   UNL     1       5.072   2.537   2.392  0.00  0.00    +0.020 A 
ATOM      5  C   UNL     1       5.904   3.652   2.454  0.00  0.00    +0.012 A 
ATOM      6  C   UNL     1       6.605   3.918   3.613  0.00  0.00    +0.001 A 
ATOM      7  C   UNL     1       6.482   3.081   4.708  0.00  0.00    +0.000 A 
ATOM      8  C   UNL     1       5.660   1.969   4.649  0.00  0.00    +0.004 A 
ATOM      9  C   UNL     1       4.959   1.692   3.495  0.00  0.00    -0.036 A 
ATOM     10  C   UNL     1       4.069   0.480   3.408  0.00  0.00    +0.040 C 
ATOM     11  C   UNL     1       2.853   0.797   2.541  0.00  0.00    +0.040 C 
ATOM     12  O   UNL     1       4.652   2.844   0.001  0.00  0.00    -0.441 OA
ATOM     13  C   UNL     1       4.292   2.303  -1.175  0.00  0.00    +0.199 C 
ATOM     14  C   UNL     1       3.258   1.427  -1.250  0.00  0.00    +0.098 C 
ENDROOT
BRANCH   1  18
ATOM     15  C   UNL     1      -1.237   3.137   0.031  0.00  0.00    +0.120 A 
ATOM     16  C   UNL     1      -1.218   1.750   0.017  0.00  0.00    +0.046 A 
ATOM     17  C   UNL     1      -0.013   1.076   0.008  0.00  0.00    +0.008 A 
ATOM     18  C   UNL     1       1.176   1.783   0.000  0.00  0.00    -0.035 A 
ATOM     19  C   UNL     1       1.160   3.165   0.008  0.00  0.00    +0.008 A 
ATOM     20  C   UNL     1      -0.043   3.844   0.024  0.00  0.00    +0.046 A 
BRANCH  15  22
ATOM     21  C   UNL     1      -3.611   3.009   0.052  0.00  0.00    +0.277 C 
ATOM     22  O   UNL     1      -2.422   3.802   0.045  0.00  0.00    -0.495 OA
ENDBRANCH  15  22
ENDBRANCH   1  18
BRANCH  13  23
ATOM     23  N   UNL     1       4.978   2.641  -2.316  0.00  0.00    -0.328 N 
ATOM     24  H   UNL     1       4.688   2.202  -3.282  0.00  0.00    +0.145 HD
ATOM     25  H   UNL     1       5.817   3.350  -2.263  0.00  0.00    +0.145 HD
ENDBRANCH  13  23
BRANCH  14  26
ATOM     26  C   UNL     1       2.897   0.862  -2.515  0.00  0.00    +0.101 C 
ATOM     27  N   UNL     1       2.610   0.413  -3.518  0.00  0.00    -0.191 NA
ENDBRANCH  14  26
TORSDOF 4
