REMARK  Name = ZINC39590815
REMARK  5 active torsions:
REMARK  status: ('A' for Active; 'I' for Inactive)
REMARK    1  A    between atoms: C_1  and  O_2
REMARK    2  A    between atoms: O_2  and  C_3
REMARK    3  A    between atoms: C_7  and  C_9
REMARK    4  A    between atoms: C_12  and  C_19
REMARK    5  A    between atoms: C_22  and  C_25
REMARK                            x       y       z     vdW  Elec       q    Type
REMARK                         _______ _______ _______ _____ _____    ______ ____
ROOT
ATOM      1  C   UNL     1       1.331  -4.079  -2.303  0.00  0.00    +0.125 C 
ATOM      2  N   UNL     1       0.852  -4.949  -1.462  0.00  0.00    -0.173 NA
ATOM      3  N   UNL     1       1.036  -6.308  -1.605  0.00  0.00    -0.206 N 
ATOM      4  C   UNL     1       1.051  -7.603  -0.885  0.00  0.00    +0.206 C 
ATOM      5  N   UNL     1       2.162  -8.377  -1.487  0.00  0.00    -0.231 NA
ATOM      6  N   UNL     1       2.685  -7.565  -2.600  0.00  0.00    -0.224 NA
ATOM      7  C   UNL     1       1.533  -6.714  -2.958  0.00  0.00    +0.240 C 
ATOM      8  S   UNL     1       2.065  -5.080  -3.588  0.00  0.00    -0.063 S 
ATOM      9  H   UNL     1       1.841  -9.275  -1.815  0.00  0.00    +0.143 HD
ATOM     10  H   UNL     1       2.958  -8.149  -3.376  0.00  0.00    +0.144 HD
ENDROOT
BRANCH   1  15
ATOM     11  C   UNL     1       0.606  -0.607  -1.056  0.00  0.00    +0.121 A 
ATOM     12  C   UNL     1       1.173   0.163  -2.063  0.00  0.00    +0.045 A 
ATOM     13  C   UNL     1       1.788  -0.445  -3.141  0.00  0.00    +0.004 A 
ATOM     14  C   UNL     1       1.843  -1.822  -3.224  0.00  0.00    +0.011 A 
ATOM     15  C   UNL     1       1.275  -2.604  -2.217  0.00  0.00    +0.012 A 
ATOM     16  C   UNL     1       0.660  -1.989  -1.126  0.00  0.00    +0.056 A 
BRANCH  11  18
ATOM     17  C   UNL     1      -0.017   1.425   0.010  0.00  0.00    +0.277 C 
ATOM     18  O   UNL     1       0.002  -0.004   0.002  0.00  0.00    -0.495 OA
ENDBRANCH  11  18
ENDBRANCH   1  15
BRANCH   4  19
ATOM     19  C   UNL     1       1.308  -7.377   0.606  0.00  0.00    +0.190 C 
ATOM     20  C   UNL     1       1.391  -8.702   1.343  0.00  0.00    +0.034 C 
ATOM     21  C   UNL     1       0.373  -8.645   2.224  0.00  0.00    +0.091 C 
ATOM     22  N   UNL     1      -0.293  -7.467   2.103  0.00  0.00    -0.154 NA
ATOM     23  N   UNL     1       0.157  -6.709   1.237  0.00  0.00    -0.176 NA
BRANCH  21  24
ATOM     24  C   UNL     1       0.029  -9.718   3.189  0.00  0.00    +0.002 A 
ATOM     25  C   UNL     1       0.784 -10.888   3.233  0.00  0.00    +0.010 A 
ATOM     26  C   UNL     1       0.460 -11.882   4.134  0.00  0.00    +0.001 A 
ATOM     27  C   UNL     1      -0.613 -11.719   4.992  0.00  0.00    +0.000 A 
ATOM     28  C   UNL     1      -1.366 -10.559   4.952  0.00  0.00    +0.001 A 
ATOM     29  C   UNL     1      -1.047  -9.556   4.060  0.00  0.00    +0.010 A 
ENDBRANCH  21  24
ENDBRANCH   4  19
TORSDOF 4
