REMARK  Name = ZINC04303411
REMARK  9 active torsions:
REMARK  status: ('A' for Active; 'I' for Inactive)
REMARK    1  A    between atoms: C_1  and  C_2
REMARK    2  A    between atoms: C_6  and  N_9
REMARK    3  A    between atoms: C_7  and  C_8
REMARK    4  A    between atoms: C_10  and  C_12
REMARK    5  A    between atoms: C_12  and  N_13
REMARK    6  A    between atoms: C_14  and  C_16
REMARK    7  A    between atoms: C_16  and  N_17
REMARK    8  A    between atoms: C_20  and  C_24
REMARK    9  A    between atoms: C_20  and  C_25
REMARK                            x       y       z     vdW  Elec       q    Type
REMARK                         _______ _______ _______ _____ _____    ______ ____
ROOT
ATOM      1  N   UNL     1      -0.689   1.976   1.223  0.00  0.00    -0.305 N 
ATOM      2  C   UNL     1      -0.820   3.298   1.450  0.00  0.00    +0.231 C 
ATOM      3  O   UNL     1      -0.370   4.096   0.655  0.00  0.00    -0.274 OA
ATOM      4  H   UNL     1      -1.049   1.337   1.859  0.00  0.00    +0.149 HD
ENDROOT
BRANCH   1   5
ATOM      5  C   UNL     1      -0.005   1.503   0.017  0.00  0.00    +0.200 C 
BRANCH   5   7
ATOM      6  N   UNL     1       0.585  -0.664  -1.018  0.00  0.00    -0.284 N 
ATOM      7  C   UNL     1       0.005  -0.004   0.004  0.00  0.00    +0.234 C 
ATOM      8  O   UNL     1      -0.509  -0.622   0.912  0.00  0.00    -0.274 OA
ATOM      9  H   UNL     1       0.925  -0.174  -1.782  0.00  0.00    +0.155 HD
BRANCH   6  15
ATOM     10  C   UNL     1       1.014  -4.950  -3.390  0.00  0.00    +0.044 C 
ATOM     11  C   UNL     1       0.907  -4.161  -2.110  0.00  0.00    -0.046 A 
ATOM     12  C   UNL     1       0.919  -4.815  -0.892  0.00  0.00    +0.004 A 
ATOM     13  C   UNL     1       0.821  -4.095   0.284  0.00  0.00    +0.002 A 
ATOM     14  C   UNL     1       0.710  -2.719   0.246  0.00  0.00    +0.023 A 
ATOM     15  C   UNL     1       0.697  -2.059  -0.976  0.00  0.00    +0.037 A 
ATOM     16  C   UNL     1       0.790  -2.785  -2.156  0.00  0.00    -0.026 A 
ATOM     17  C   UNL     1       0.770  -2.073  -3.484  0.00  0.00    +0.046 C 
ENDBRANCH   6  15
ENDBRANCH   5   7
ENDBRANCH   1   5
BRANCH   2  18
ATOM     18  C   UNL     1      -1.524   3.784   2.690  0.00  0.00    +0.213 C 
BRANCH  18  19
ATOM     19  N   UNL     1      -1.533   5.249   2.704  0.00  0.00    -0.215 N 
ATOM     20  C   UNL     1      -2.508   6.005   2.161  0.00  0.00    +0.251 C 
ATOM     21  O   UNL     1      -3.505   5.616   1.591  0.00  0.00    -0.272 OA
ATOM     22  C   UNL     1      -2.100   7.443   2.412  0.00  0.00    +0.135 C 
ATOM     23  N   UNL     1      -0.823   7.319   3.135  0.00  0.00    -0.281 N 
ATOM     24  C   UNL     1      -0.578   6.002   3.261  0.00  0.00    +0.310 C 
ATOM     25  O   UNL     1       0.402   5.547   3.817  0.00  0.00    -0.252 OA
ATOM     26  C   UNL     1      -3.142   8.155   3.277  0.00  0.00    +0.047 C 
ATOM     27  H   UNL     1      -0.268   8.045   3.460  0.00  0.00    +0.152 HD
BRANCH  22  28
ATOM     28  C   UNL     1      -1.903   8.174   1.109  0.00  0.00    -0.016 A 
ATOM     29  C   UNL     1      -2.631   7.806  -0.007  0.00  0.00    +0.006 A 
ATOM     30  C   UNL     1      -2.454   8.479  -1.201  0.00  0.00    +0.000 A 
ATOM     31  C   UNL     1      -1.540   9.513  -1.282  0.00  0.00    +0.000 A 
ATOM     32  C   UNL     1      -0.807   9.877  -0.168  0.00  0.00    +0.000 A 
ATOM     33  C   UNL     1      -0.989   9.208   1.027  0.00  0.00    +0.006 A 
ENDBRANCH  22  28
ENDBRANCH  18  19
ENDBRANCH   2  18
TORSDOF 6
