REMARK  Name = ZINC65343673
REMARK  6 active torsions:
REMARK  status: ('A' for Active; 'I' for Inactive)
REMARK    1  A    between atoms: C_1  and  N_2
REMARK    2  A    between atoms: N_2  and  C_3
REMARK    3  A    between atoms: N_2  and  S_4
REMARK    4  A    between atoms: S_4  and  C_7
REMARK    5  A    between atoms: C_12  and  C_13
REMARK    6  A    between atoms: C_15  and  O_20
REMARK                            x       y       z     vdW  Elec       q    Type
REMARK                         _______ _______ _______ _____ _____    ______ ____
ROOT
ATOM      1  C   UNL     1       1.830  -0.986  -1.585  0.00  0.00    +0.113 A 
ATOM      2  C   UNL     1       2.384  -2.250  -1.558  0.00  0.00    +0.029 A 
ATOM      3  C   UNL     1       3.556  -2.509  -2.243  0.00  0.00    +0.002 A 
ATOM      4  C   UNL     1       4.181  -1.505  -2.960  0.00  0.00    +0.001 A 
ATOM      5  C   UNL     1       3.636  -0.237  -2.995  0.00  0.00    +0.010 A 
ATOM      6  C   UNL     1       2.452   0.028  -2.311  0.00  0.00    +0.009 A 
ENDROOT
BRANCH   6   7
ATOM      7  C   UNL     1       1.858   1.388  -2.349  0.00  0.00    -0.011 A 
ATOM      8  C   UNL     1       2.564   2.473  -1.835  0.00  0.00    +0.054 A 
ATOM      9  C   UNL     1       2.005   3.740  -1.874  0.00  0.00    +0.119 A 
ATOM     10  C   UNL     1       0.744   3.926  -2.424  0.00  0.00    +0.065 A 
ATOM     11  C   UNL     1       0.042   2.849  -2.934  0.00  0.00    +0.045 A 
ATOM     12  C   UNL     1       0.596   1.583  -2.906  0.00  0.00    +0.028 A 
ATOM     13 CL   UNL     1      -1.534   3.090  -3.620  0.00  0.00    -0.083 Cl
BRANCH   9  14
ATOM     14  O   UNL     1       2.691   4.800  -1.373  0.00  0.00    -0.507 OA
ATOM     15  H   UNL     1       3.256   5.245  -2.020  0.00  0.00    +0.292 HD
ENDBRANCH   9  14
ENDBRANCH   6   7
BRANCH   1  16
ATOM     16  S   UNL     1       0.336  -0.657  -0.711  0.00  0.00    +0.061 S 
ATOM     17  O   UNL     1      -0.065  -1.883  -0.116  0.00  0.00    -0.153 OA
ATOM     18  O   UNL     1      -0.503   0.069  -1.599  0.00  0.00    -0.153 OA
BRANCH  16  20
ATOM     19  C   UNL     1       0.655   1.821   0.325  0.00  0.00    +0.131 C 
ATOM     20  N   UNL     1       0.712   0.371   0.531  0.00  0.00    -0.183 NA
ATOM     21  C   UNL     1       1.101  -0.168   1.836  0.00  0.00    +0.131 C 
ENDBRANCH  16  20
ENDBRANCH   1  16
TORSDOF 4
