REMARK  Name = ZINC14985781
REMARK  2 active torsions:
REMARK  status: ('A' for Active; 'I' for Inactive)
REMARK    1  A    between atoms: C_1  and  C_2
REMARK    2  A    between atoms: C_7  and  N_8
REMARK                            x       y       z     vdW  Elec       q    Type
REMARK                         _______ _______ _______ _____ _____    ______ ____
ROOT
ATOM      1  C   UNL     1       2.576   1.599   0.045  0.00  0.00    +0.046 C 
ATOM      2  C   UNL     1       1.223   2.263   0.031  0.00  0.00    -0.018 A 
ATOM      3  C   UNL     1       1.127   3.604   0.273  0.00  0.00    +0.033 A 
ATOM      4  C   UNL     1      -0.120   4.223   0.261  0.00  0.00    +0.067 A 
ATOM      5  C   UNL     1      -1.271   3.454  -0.002  0.00  0.00    +0.036 A 
ATOM      6  C   UNL     1      -1.146   2.084  -0.252  0.00  0.00    +0.045 A 
ATOM      7  C   UNL     1       0.089   1.503  -0.229  0.00  0.00    +0.130 A 
ATOM      8  C   UNL     1      -2.402   4.376   0.055  0.00  0.00    +0.135 A 
ATOM      9  N   UNL     1      -1.935   5.562   0.326  0.00  0.00    -0.166 NA
ATOM     10  N   UNL     1      -0.543   5.511   0.460  0.00  0.00    -0.276 N 
ATOM     11  H   UNL     1       0.049   6.290   0.668  0.00  0.00    +0.189 HD
ATOM     12 BR   UNL     1      -4.219   3.929  -0.215  0.00  0.00    -0.026 Br
ENDROOT
BRANCH   7  13
ATOM     13  N   UNL     1       0.223   0.052  -0.489  0.00  0.00    +0.057 N 
ATOM     14  O   UNL     1       1.179  -0.369  -1.114  0.00  0.00    -0.126 OA
ATOM     15  O   UNL     1      -0.624  -0.720  -0.077  0.00  0.00    -0.126 OA
ENDBRANCH   7  13
TORSDOF 1
