REMARK  Name = ZINC50701859
REMARK  5 active torsions:
REMARK  status: ('A' for Active; 'I' for Inactive)
REMARK    1  A    between atoms: C_1  and  C_2
REMARK    2  A    between atoms: C_7  and  N_10
REMARK    3  A    between atoms: C_11  and  C_13
REMARK    4  A    between atoms: C_15  and  N_21
REMARK    5  A    between atoms: C_16  and  N_20
REMARK                            x       y       z     vdW  Elec       q    Type
REMARK                         _______ _______ _______ _____ _____    ______ ____
ROOT
ATOM      1  C   UNL     1      -2.278  -4.312   1.475  0.00  0.00    +0.040 A 
ATOM      2  C   UNL     1      -2.474  -5.624   1.918  0.00  0.00    +0.047 A 
ATOM      3  C   UNL     1      -3.746  -6.072   2.195  0.00  0.00    +0.149 A 
ATOM      4  C   UNL     1      -4.836  -5.221   2.035  0.00  0.00    +0.074 A 
ATOM      5  C   UNL     1      -4.644  -3.914   1.593  0.00  0.00    +0.065 A 
ATOM      6  C   UNL     1      -3.374  -3.458   1.320  0.00  0.00    +0.035 A 
ATOM      7 CL   UNL     1      -6.007  -2.857   1.394  0.00  0.00    -0.082 Cl
ENDROOT
BRANCH   1   9
ATOM      8  N   UNL     1      -0.728  -2.563   0.755  0.00  0.00    -0.308 N 
ATOM      9  C   UNL     1      -0.916  -3.829   1.177  0.00  0.00    +0.244 C 
ATOM     10  O   UNL     1       0.036  -4.573   1.312  0.00  0.00    -0.270 OA
ATOM     11  H   UNL     1      -1.487  -1.970   0.647  0.00  0.00    +0.149 HD
BRANCH   8  17
ATOM     12  C   UNL     1      -0.275   1.602  -0.202  0.00  0.00    +0.007 C 
ATOM     13  C   UNL     1      -0.322   0.080  -0.357  0.00  0.00    -0.012 C 
ATOM     14  C   UNL     1       0.051  -0.298  -1.792  0.00  0.00    +0.003 C 
ATOM     15  C   UNL     1       0.004  -1.819  -1.947  0.00  0.00    +0.002 C 
ATOM     16  C   UNL     1       0.997  -2.462  -0.976  0.00  0.00    +0.022 C 
ATOM     17  C   UNL     1       0.624  -2.083   0.459  0.00  0.00    +0.073 C 
ATOM     18  C   UNL     1       0.671  -0.562   0.614  0.00  0.00    +0.025 C 
ENDBRANCH   8  17
ENDBRANCH   1   9
BRANCH   4  19
ATOM     19  N   UNL     1      -6.120  -5.678   2.316  0.00  0.00    -0.355 N 
ATOM     20  H   UNL     1      -6.245  -6.540   2.742  0.00  0.00    +0.142 HD
ATOM     21  H   UNL     1      -6.889  -5.134   2.086  0.00  0.00    +0.142 HD
ENDBRANCH   4  19
BRANCH   3  22
ATOM     22  N   UNL     1      -3.954  -7.460   2.664  0.00  0.00    +0.058 N 
ATOM     23  O   UNL     1      -3.160  -7.968   3.421  0.00  0.00    -0.126 OA
ATOM     24  O   UNL     1      -4.918  -8.087   2.289  0.00  0.00    -0.126 OA
ENDBRANCH   3  22
TORSDOF 4
