REMARK  Name = ZINC50137414
REMARK  8 active torsions:
REMARK  status: ('A' for Active; 'I' for Inactive)
REMARK    1  A    between atoms: C_1  and  C_2
REMARK    2  A    between atoms: C_2  and  C_4
REMARK    3  A    between atoms: C_2  and  N_16
REMARK    4  A    between atoms: C_6  and  C_9
REMARK    5  A    between atoms: N_19  and  C_20
REMARK    6  A    between atoms: N_19  and  C_23
REMARK    7  A    between atoms: C_20  and  C_21
REMARK    8  A    between atoms: C_23  and  C_24
REMARK                            x       y       z     vdW  Elec       q    Type
REMARK                         _______ _______ _______ _____ _____    ______ ____
ROOT
ATOM      1  N   UNL     1       0.688  -0.476  -1.203  0.00  0.00    -0.288 N 
ATOM      2  C   UNL     1       2.031  -0.587  -1.215  0.00  0.00    +0.303 C 
ATOM      3  O   UNL     1       2.674  -0.294  -0.225  0.00  0.00    -0.253 OA
ATOM      4  N   UNL     1       2.662  -1.022  -2.324  0.00  0.00    -0.277 N 
ATOM      5  H   UNL     1       0.175  -0.710  -1.993  0.00  0.00    +0.151 HD
ENDROOT
BRANCH   1   7
ATOM      6  C   UNL     1      -0.019   1.526   0.010  0.00  0.00    +0.038 C 
ATOM      7  C   UNL     1       0.002  -0.004   0.002  0.00  0.00    +0.160 C 
BRANCH   7   8
ATOM      8  C   UNL     1      -1.412  -0.526   0.013  0.00  0.00    +0.248 A 
ATOM      9  N   UNL     1      -2.023  -1.046   1.038  0.00  0.00    -0.190 NA
ATOM     10  C   UNL     1      -3.273  -1.406   0.695  0.00  0.00    +0.202 A 
ATOM     11  N   UNL     1      -3.462  -1.110  -0.567  0.00  0.00    -0.056 NA
ATOM     12  O   UNL     1      -2.253  -0.527  -1.029  0.00  0.00    -0.336 OA
BRANCH  10  13
ATOM     13  C   UNL     1      -4.271  -2.033   1.597  0.00  0.00    +0.023 A 
ATOM     14  C   UNL     1      -3.946  -2.292   2.927  0.00  0.00    +0.014 A 
ATOM     15  C   UNL     1      -4.878  -2.874   3.761  0.00  0.00    +0.039 A 
ATOM     16  C   UNL     1      -6.135  -3.202   3.279  0.00  0.00    +0.123 A 
ATOM     17  C   UNL     1      -6.462  -2.946   1.957  0.00  0.00    +0.039 A 
ATOM     18  C   UNL     1      -5.539  -2.359   1.117  0.00  0.00    +0.014 A 
ATOM     19  F   UNL     1      -7.044  -3.772   4.100  0.00  0.00    -0.205 F 
ENDBRANCH  10  13
ENDBRANCH   7   8
ENDBRANCH   1   7
BRANCH   4  20
ATOM     20  C   UNL     1       1.887  -1.374  -3.517  0.00  0.00    +0.136 C 
BRANCH  20  21
ATOM     21  C   UNL     1       1.728  -0.156  -4.390  0.00  0.00    -0.016 C 
ATOM     22  C   UNL     1       2.104  -0.196  -5.644  0.00  0.00    +0.005 C 
ENDBRANCH  20  21
ENDBRANCH   4  20
BRANCH   4  23
ATOM     23  C   UNL     1       4.122  -1.142  -2.336  0.00  0.00    +0.147 C 
BRANCH  23  24
ATOM     24  C   UNL     1       4.516  -2.521  -1.876  0.00  0.00    +0.005 A 
ATOM     25  C   UNL     1       4.934  -2.723  -0.574  0.00  0.00    +0.008 A 
ATOM     26  C   UNL     1       5.295  -3.989  -0.152  0.00  0.00    +0.000 A 
ATOM     27  C   UNL     1       5.241  -5.054  -1.032  0.00  0.00    +0.003 A 
ATOM     28  C   UNL     1       4.824  -4.855  -2.334  0.00  0.00    +0.038 A 
ATOM     29  C   UNL     1       4.456  -3.588  -2.756  0.00  0.00    +0.128 A 
ATOM     30  F   UNL     1       4.043  -3.393  -4.028  0.00  0.00    -0.205 F 
ENDBRANCH  23  24
ENDBRANCH   4  23
TORSDOF 7
