REMARK  Name = ZINC66206029
REMARK  4 active torsions:
REMARK  status: ('A' for Active; 'I' for Inactive)
REMARK    1  A    between atoms: C_1  and  C_2
REMARK    2  A    between atoms: C_4  and  C_7
REMARK    3  A    between atoms: C_7  and  N_8
REMARK    4  A    between atoms: C_19  and  C_21
REMARK                            x       y       z     vdW  Elec       q    Type
REMARK                         _______ _______ _______ _____ _____    ______ ____
ROOT
ATOM      1  N   UNL     1       1.476  -3.686  -1.850  0.00  0.00    -0.290 N 
ATOM      2  C   UNL     1       1.714  -4.671  -2.738  0.00  0.00    +0.303 C 
ATOM      3  O   UNL     1       0.793  -5.343  -3.161  0.00  0.00    -0.253 OA
ATOM      4  N   UNL     1       2.971  -4.912  -3.158  0.00  0.00    -0.278 N 
ATOM      5  C   UNL     1       4.106  -4.185  -2.568  0.00  0.00    +0.115 C 
ATOM      6  C   UNL     1       4.995  -5.196  -1.829  0.00  0.00    +0.062 C 
ATOM      7  C   UNL     1       5.143  -6.416  -2.679  0.00  0.00    -0.004 A 
ATOM      8  C   UNL     1       4.385  -6.788  -3.746  0.00  0.00    -0.017 A 
ATOM      9  C   UNL     1       4.728  -7.987  -4.369  0.00  0.00    +0.013 A 
ATOM     10  C   UNL     1       5.772  -8.713  -3.910  0.00  0.00    +0.046 A 
ATOM     11  S   UNL     1       6.339  -7.718  -2.539  0.00  0.00    -0.101 S 
ATOM     12  C   UNL     1       3.229  -5.908  -4.206  0.00  0.00    +0.105 C 
ATOM     13  C   UNL     1       1.982  -6.766  -4.423  0.00  0.00    +0.033 C 
ATOM     14  H   UNL     1       2.217  -3.199  -1.456  0.00  0.00    +0.151 HD
ENDROOT
BRANCH   1  15
ATOM     15  C   UNL     1       0.099  -3.351  -1.478  0.00  0.00    +0.204 C 
BRANCH  15  19
ATOM     16  C   UNL     1       0.065   1.274   0.447  0.00  0.00    +0.091 C 
ATOM     17  C   UNL     1       0.095  -0.231   0.368  0.00  0.00    +0.169 A 
ATOM     18  N   UNL     1       0.072  -0.952  -0.758  0.00  0.00    -0.195 NA
ATOM     19  C   UNL     1       0.109  -2.224  -0.477  0.00  0.00    +0.245 A 
ATOM     20  O   UNL     1       0.158  -2.358   0.855  0.00  0.00    -0.336 OA
ATOM     21  N   UNL     1       0.154  -1.041   1.386  0.00  0.00    -0.062 NA
ENDBRANCH  15  19
ENDBRANCH   1  15
TORSDOF 2
