REMARK  Name = ZINC01574208
REMARK  6 active torsions:
REMARK  status: ('A' for Active; 'I' for Inactive)
REMARK    1  A    between atoms: C_9  and  S_11
REMARK    2  A    between atoms: S_11  and  C_12
REMARK    3  A    between atoms: C_12  and  C_13
REMARK    4  A    between atoms: N_15  and  N_16
REMARK    5  A    between atoms: C_17  and  C_18
REMARK    6  A    between atoms: C_23  and  O_24
REMARK                            x       y       z     vdW  Elec       q    Type
REMARK                         _______ _______ _______ _____ _____    ______ ____
ROOT
ATOM      1  C   UNL     1       6.006   1.756  -0.503  0.00  0.00    +0.242 C 
ATOM      2  O   UNL     1       5.989   2.968  -0.548  0.00  0.00    -0.273 OA
ATOM      3  N   UNL     1       4.865   1.058  -0.675  0.00  0.00    -0.206 N 
ATOM      4  H   UNL     1       4.879   0.089  -0.639  0.00  0.00    +0.177 HD
ENDROOT
BRANCH   3   5
ATOM      5  N   UNL     1       3.660   1.734  -0.906  0.00  0.00    -0.188 NA
ATOM      6  C   UNL     1       2.561   1.062  -1.071  0.00  0.00    +0.142 C 
BRANCH   6   7
ATOM      7  C   UNL     1       1.293   1.772  -1.314  0.00  0.00    +0.036 A 
ATOM      8  C   UNL     1       0.109   1.054  -1.493  0.00  0.00    +0.013 A 
ATOM      9  C   UNL     1      -1.074   1.724  -1.725  0.00  0.00    +0.001 A 
ATOM     10  C   UNL     1      -1.094   3.108  -1.771  0.00  0.00    +0.004 A 
ATOM     11  C   UNL     1       0.071   3.830  -1.595  0.00  0.00    +0.046 A 
ATOM     12  C   UNL     1       1.268   3.173  -1.367  0.00  0.00    +0.125 A 
BRANCH  12  13
ATOM     13  O   UNL     1       2.414   3.882  -1.194  0.00  0.00    -0.506 OA
ATOM     14  H   UNL     1       2.895   4.057  -2.014  0.00  0.00    +0.292 HD
ENDBRANCH  12  13
ENDBRANCH   6   7
ENDBRANCH   3   5
BRANCH   1  15
ATOM     15  C   UNL     1       7.303   1.029  -0.255  0.00  0.00    +0.167 C 
BRANCH  15  16
ATOM     16  S   UNL     1       8.645   2.235  -0.066  0.00  0.00    -0.143 S 
BRANCH  16  25
ATOM     17  C   UNL     1      13.784   3.393   0.456  0.00  0.00    +0.000 A 
ATOM     18  C   UNL     1      12.907   3.832  -0.518  0.00  0.00    +0.000 A 
ATOM     19  C   UNL     1      11.704   3.180  -0.707  0.00  0.00    +0.005 A 
ATOM     20  C   UNL     1      11.373   2.087   0.076  0.00  0.00    -0.031 A 
ATOM     21  C   UNL     1      12.250   1.648   1.050  0.00  0.00    -0.043 A 
ATOM     22  C   UNL     1      13.456   2.303   1.238  0.00  0.00    +0.004 A 
ATOM     23  C   UNL     1      11.664   0.449   1.764  0.00  0.00    +0.037 C 
ATOM     24  C   UNL     1      10.158   0.472   1.423  0.00  0.00    +0.023 C 
ATOM     25  C   UNL     1      10.137   1.213   0.069  0.00  0.00    +0.077 C 
ENDBRANCH  16  25
ENDBRANCH  15  16
ENDBRANCH   1  15
TORSDOF 6
