REMARK  Name = ZINC01586980
REMARK  10 active torsions:
REMARK  status: ('A' for Active; 'I' for Inactive)
REMARK    1  A    between atoms: C_1  and  O_2
REMARK    2  A    between atoms: O_2  and  C_3
REMARK    3  A    between atoms: C_5  and  C_12
REMARK    4  A    between atoms: C_7  and  O_10
REMARK    5  A    between atoms: C_8  and  O_9
REMARK    6  A    between atoms: O_10  and  C_11
REMARK    7  A    between atoms: C_12  and  C_14
REMARK    8  A    between atoms: C_12  and  N_24
REMARK    9  A    between atoms: C_19  and  O_20
REMARK   10  A    between atoms: N_24  and  C_25
REMARK                            x       y       z     vdW  Elec       q    Type
REMARK                         _______ _______ _______ _____ _____    ______ ____
ROOT
ATOM      1  C   UNL     1       4.782  -0.086  -0.044  0.00  0.00    +0.136 C 
ENDROOT
BRANCH   1   2
ATOM      2  C   UNL     1       5.181   0.251   1.369  0.00  0.00    +0.022 A 
ATOM      3  C   UNL     1       4.686  -0.495   2.423  0.00  0.00    +0.059 A 
ATOM      4  C   UNL     1       5.051  -0.188   3.723  0.00  0.00    +0.167 A 
ATOM      5  C   UNL     1       5.919   0.874   3.969  0.00  0.00    +0.170 A 
ATOM      6  C   UNL     1       6.414   1.619   2.911  0.00  0.00    +0.095 A 
ATOM      7  C   UNL     1       6.049   1.305   1.611  0.00  0.00    +0.126 A 
ATOM      8  O   UNL     1       6.120   0.970   5.315  0.00  0.00    -0.452 OA
ATOM      9  C   UNL     1       5.050   0.219   5.919  0.00  0.00    +0.466 C 
ATOM     10  O   UNL     1       4.710  -0.757   4.917  0.00  0.00    -0.453 OA
BRANCH   7  11
ATOM     11  O   UNL     1       6.538   2.034   0.573  0.00  0.00    -0.506 OA
ATOM     12  H   UNL     1       5.992   2.796   0.335  0.00  0.00    +0.292 HD
ENDBRANCH   7  11
ENDBRANCH   1   2
BRANCH   1  15
ATOM     13  C   UNL     1       7.737  -1.275  -2.078  0.00  0.00    +0.165 A 
ATOM     14  C   UNL     1       6.776  -0.453  -1.510  0.00  0.00    +0.055 A 
ATOM     15  C   UNL     1       5.824  -0.984  -0.660  0.00  0.00    -0.016 A 
ATOM     16  C   UNL     1       5.829  -2.335  -0.369  0.00  0.00    +0.055 A 
ATOM     17  C   UNL     1       6.783  -3.166  -0.939  0.00  0.00    +0.165 A 
ATOM     18  C   UNL     1       7.742  -2.635  -1.793  0.00  0.00    +0.201 A 
BRANCH  13  20
ATOM     19  C   UNL     1       8.609   0.655  -3.161  0.00  0.00    +0.277 C 
ATOM     20  O   UNL     1       8.674  -0.751  -2.913  0.00  0.00    -0.491 OA
ENDBRANCH  13  20
BRANCH  18  21
ATOM     21  O   UNL     1       8.684  -3.446  -2.348  0.00  0.00    -0.501 OA
ATOM     22  H   UNL     1       9.489  -3.533  -1.819  0.00  0.00    +0.292 HD
ENDBRANCH  18  21
BRANCH  17  23
ATOM     23  O   UNL     1       6.783  -4.496  -0.656  0.00  0.00    -0.491 OA
ATOM     24  C   UNL     1       5.768  -4.971   0.230  0.00  0.00    +0.277 C 
ENDBRANCH  17  23
ENDBRANCH   1  15
BRANCH   1  25
ATOM     25  N   UNL     1       3.489  -0.774  -0.036  0.00  0.00    -0.320 N 
ATOM     26  H   UNL     1       3.455  -1.744  -0.041  0.00  0.00    +0.148 HD
BRANCH  25  27
ATOM     27  C   UNL     1       2.310  -0.038  -0.020  0.00  0.00    +0.097 A 
ATOM     28  C   UNL     1       2.365   1.353  -0.013  0.00  0.00    +0.041 A 
ATOM     29  C   UNL     1       1.185   2.073   0.002  0.00  0.00    +0.005 A 
ATOM     30  C   UNL     1      -0.017   1.376   0.010  0.00  0.00    +0.018 A 
ATOM     31  C   UNL     1       0.002  -0.004   0.002  0.00  0.00    +0.084 A 
ATOM     32  N   UNL     1       1.143  -0.744  -0.013  0.00  0.00    -0.350 N 
ATOM     33  H   UNL     1       1.127  -1.771  -0.018  0.00  0.00    +0.166 HD
ENDBRANCH  25  27
ENDBRANCH   1  25
TORSDOF 8
