REMARK  Name = ZINC41881776
REMARK  6 active torsions:
REMARK  status: ('A' for Active; 'I' for Inactive)
REMARK    1  A    between atoms: C_1  and  C_2
REMARK    2  A    between atoms: C_2  and  C_3
REMARK    3  A    between atoms: N_9  and  C_10
REMARK    4  A    between atoms: C_10  and  C_11
REMARK    5  A    between atoms: C_10  and  C_12
REMARK    6  A    between atoms: C_10  and  C_19
REMARK                            x       y       z     vdW  Elec       q    Type
REMARK                         _______ _______ _______ _____ _____    ______ ____
ROOT
ATOM      1  C   UNL     1      -1.912   1.388  -1.589  0.00  0.00    +0.147 C 
ATOM      2  C   UNL     1      -2.256   0.457  -2.753  0.00  0.00    +0.045 C 
ENDROOT
BRANCH   1   3
ATOM      3  C   UNL     1      -3.155   2.113  -1.140  0.00  0.00    -0.017 A 
ATOM      4  C   UNL     1      -3.856   1.663  -0.037  0.00  0.00    +0.007 A 
ATOM      5  C   UNL     1      -4.996   2.328   0.376  0.00  0.00    +0.015 A 
ATOM      6  C   UNL     1      -5.435   3.442  -0.316  0.00  0.00    +0.018 A 
ATOM      7  C   UNL     1      -4.733   3.892  -1.420  0.00  0.00    +0.015 A 
ATOM      8  C   UNL     1      -3.590   3.230  -1.828  0.00  0.00    +0.007 A 
ATOM      9 BR   UNL     1      -6.994   4.351   0.247  0.00  0.00    -0.050 Br
ENDBRANCH   1   3
BRANCH   1  15
ATOM     10  C   UNL     1      -1.378   1.379   0.774  0.00  0.00    +0.083 C 
ATOM     11  C   UNL     1      -0.758   0.542   1.896  0.00  0.00    +0.178 C 
ATOM     12  O   UNL     1      -1.481  -0.685   2.023  0.00  0.00    -0.377 OA
ATOM     13  C   UNL     1      -1.498  -1.471   0.829  0.00  0.00    +0.175 C 
ATOM     14  C   UNL     1      -2.125  -0.654  -0.304  0.00  0.00    +0.114 C 
ATOM     15  N   UNL     1      -1.375   0.599  -0.472  0.00  0.00    -0.277 NA
BRANCH  10  17
ATOM     16  C   UNL     1       0.870   2.290   0.173  0.00  0.00    +0.005 C 
ATOM     17  C   UNL     1      -0.559   2.657   0.578  0.00  0.00    +0.018 C 
ENDBRANCH  10  17
ENDBRANCH   1  15
BRANCH   1  18
ATOM     18  C   UNL     1      -0.880   2.391  -2.037  0.00  0.00    +0.380 C 
ATOM     19  O   UNL     1       0.270   2.036  -2.234  0.00  0.00    -0.244 OA
ATOM     20  O   UNL     1      -1.194   3.558  -2.201  0.00  0.00    -0.244 OA
ENDBRANCH   1  18
TORSDOF 4
