REMARK  Name = ZINC09089152
REMARK  4 active torsions:
REMARK  status: ('A' for Active; 'I' for Inactive)
REMARK    1  A    between atoms: C_4  and  C_7
REMARK    2  A    between atoms: C_14  and  N_26
REMARK    3  A    between atoms: C_15  and  C_24
REMARK    4  A    between atoms: C_16  and  C_18
REMARK                            x       y       z     vdW  Elec       q    Type
REMARK                         _______ _______ _______ _____ _____    ______ ____
ROOT
ATOM      1  C   UNL     1       3.699  -0.689  -0.037  0.00  0.00    +0.100 A 
ATOM      2  C   UNL     1       3.972  -1.905   0.597  0.00  0.00    +0.054 A 
ATOM      3  C   UNL     1       5.272  -2.232   0.341  0.00  0.00    +0.223 A 
ATOM      4  N   UNL     1       5.798  -1.256  -0.427  0.00  0.00    -0.246 N 
ATOM      5  H   UNL     1       6.707  -1.222  -0.764  0.00  0.00    +0.192 HD
ATOM      6  N   UNL     1       4.796  -0.300  -0.659  0.00  0.00    -0.171 NA
ATOM      7  O   UNL     1       5.849  -3.365   0.815  0.00  0.00    -0.423 OA
ATOM      8  C   UNL     1       5.037  -4.312   1.327  0.00  0.00    +0.200 C 
ATOM      9  C   UNL     1       3.737  -4.104   1.633  0.00  0.00    +0.098 C 
ATOM     10  C   UNL     1       3.064  -2.769   1.433  0.00  0.00    +0.102 C 
ENDROOT
BRANCH   1  14
ATOM     11  C   UNL     1      -0.017   1.379   0.010  0.00  0.00    +0.000 A 
ATOM     12  C   UNL     1       1.169   2.092   0.002  0.00  0.00    +0.001 A 
ATOM     13  C   UNL     1       2.377   1.426  -0.013  0.00  0.00    +0.010 A 
ATOM     14  C   UNL     1       2.402   0.033  -0.021  0.00  0.00    +0.003 A 
ATOM     15  C   UNL     1       1.205  -0.680  -0.013  0.00  0.00    +0.010 A 
ATOM     16  C   UNL     1       0.002  -0.004   0.002  0.00  0.00    +0.001 A 
ENDBRANCH   1  14
BRANCH  10  17
ATOM     17  C   UNL     1       2.827  -2.113   2.770  0.00  0.00    -0.032 A 
ATOM     18  C   UNL     1       3.885  -1.833   3.620  0.00  0.00    +0.024 A 
ATOM     19  C   UNL     1       3.630  -1.231   4.838  0.00  0.00    +0.111 A 
ATOM     20  N   UNL     1       2.397  -0.925   5.193  0.00  0.00    -0.263 NA
ATOM     21  C   UNL     1       1.367  -1.176   4.410  0.00  0.00    +0.111 A 
ATOM     22  C   UNL     1       1.546  -1.770   3.175  0.00  0.00    +0.024 A 
ENDBRANCH  10  17
BRANCH   8  23
ATOM     23  N   UNL     1       5.561  -5.561   1.549  0.00  0.00    -0.328 N 
ATOM     24  H   UNL     1       6.491  -5.742   1.339  0.00  0.00    +0.145 HD
ATOM     25  H   UNL     1       5.002  -6.264   1.916  0.00  0.00    +0.145 HD
ENDBRANCH   8  23
BRANCH   9  26
ATOM     26  C   UNL     1       2.972  -5.189   2.167  0.00  0.00    +0.101 C 
ATOM     27  N   UNL     1       2.364  -6.051   2.591  0.00  0.00    -0.191 NA
ENDBRANCH   9  26
TORSDOF 4
