REMARK  Name = ZINC64713714
REMARK  9 active torsions:
REMARK  status: ('A' for Active; 'I' for Inactive)
REMARK    1  A    between atoms: C_1  and  C_2
REMARK    2  A    between atoms: C_4  and  S_24
REMARK    3  A    between atoms: C_5  and  C_23
REMARK    4  A    between atoms: N_7  and  C_8
REMARK    5  A    between atoms: C_8  and  C_9
REMARK    6  A    between atoms: N_11  and  C_12
REMARK    7  A    between atoms: C_12  and  C_13
REMARK    8  A    between atoms: C_13  and  C_14
REMARK    9  A    between atoms: S_24  and  N_27
REMARK                            x       y       z     vdW  Elec       q    Type
REMARK                         _______ _______ _______ _____ _____    ______ ____
ROOT
ATOM      1  C   UNL     1      -0.019   1.526   0.010  0.00  0.00    +0.032 C 
ATOM      2  C   UNL     1       0.002  -0.004   0.002  0.00  0.00    +0.125 C 
ATOM      3  C   UNL     1      -1.407  -0.553   0.057  0.00  0.00    +0.122 C 
ATOM      4  C   UNL     1      -1.497  -1.261   1.165  0.00  0.00    +0.040 C 
ATOM      5  N   UNL     1      -0.311  -1.258   1.871  0.00  0.00    -0.279 N 
ATOM      6  N   UNL     1       0.644  -0.519   1.228  0.00  0.00    -0.212 NA
ATOM      7  C   UNL     1      -2.743  -1.985   1.607  0.00  0.00    +0.063 C 
ATOM      8  H   UNL     1      -0.172  -1.720   2.713  0.00  0.00    +0.166 HD
ENDROOT
BRANCH   3   9
ATOM      9  S   UNL     1      -2.683  -0.294  -1.130  0.00  0.00    +0.074 S 
ATOM     10  O   UNL     1      -3.877  -0.818  -0.565  0.00  0.00    -0.150 OA
ATOM     11  O   UNL     1      -2.571   1.056  -1.558  0.00  0.00    -0.150 OA
BRANCH   9  12
ATOM     12  N   UNL     1      -2.327  -1.238  -2.444  0.00  0.00    -0.203 N 
ATOM     13  C   UNL     1      -1.513  -0.814  -3.586  0.00  0.00    +0.136 C 
ATOM     14  C   UNL     1      -1.477  -2.029  -4.528  0.00  0.00    +0.058 C 
ATOM     15  C   UNL     1      -2.302  -3.082  -3.822  0.00  0.00    -0.023 A 
ATOM     16  C   UNL     1      -2.755  -2.554  -2.622  0.00  0.00    +0.054 A 
ATOM     17  C   UNL     1      -3.540  -3.351  -1.786  0.00  0.00    +0.025 A 
ATOM     18  C   UNL     1      -3.854  -4.643  -2.150  0.00  0.00    +0.002 A 
ATOM     19  C   UNL     1      -3.393  -5.160  -3.347  0.00  0.00    +0.000 A 
ATOM     20  C   UNL     1      -2.623  -4.375  -4.184  0.00  0.00    +0.005 A 
ENDBRANCH   9  12
ENDBRANCH   3   9
BRANCH   6  21
ATOM     21  C   UNL     1       1.119   0.583   2.076  0.00  0.00    +0.201 C 
BRANCH  21  22
ATOM     22  C   UNL     1       1.874   0.022   3.253  0.00  0.00    +0.229 C 
ATOM     23  O   UNL     1       2.004  -1.178   3.374  0.00  0.00    -0.274 OA
ATOM     24  N   UNL     1       2.405   0.853   4.172  0.00  0.00    -0.314 N 
ATOM     25  H   UNL     1       2.300   1.812   4.075  0.00  0.00    +0.149 HD
BRANCH  24  26
ATOM     26  C   UNL     1       3.139   0.307   5.316  0.00  0.00    +0.108 C 
BRANCH  26  27
ATOM     27  C   UNL     1       3.633   1.455   6.199  0.00  0.00    +0.052 C 
BRANCH  27  28
ATOM     28  C   UNL     1       4.388   0.893   7.376  0.00  0.00    -0.040 C 
ATOM     29  C   UNL     1       5.726   0.725   7.479  0.00  0.00    -0.001 A 
ATOM     30  C   UNL     1       6.836   1.003   6.559  0.00  0.00    +0.010 A 
ATOM     31  C   UNL     1       8.099   0.720   6.952  0.00  0.00    +0.001 A 
ATOM     32  C   UNL     1       8.374   0.170   8.211  0.00  0.00    +0.002 A 
ATOM     33  C   UNL     1       7.407  -0.113   9.110  0.00  0.00    +0.026 A 
ATOM     34  C   UNL     1       6.043   0.144   8.803  0.00  0.00    +0.043 A 
ATOM     35  N   UNL     1       4.943  -0.040   9.492  0.00  0.00    -0.380 N 
ATOM     36  C   UNL     1       3.804   0.410   8.685  0.00  0.00    +0.144 C 
ATOM     37  H   UNL     1       4.892  -0.408  10.388  0.00  0.00    +0.160 HD
ENDBRANCH  27  28
ENDBRANCH  26  27
ENDBRANCH  24  26
ENDBRANCH  21  22
ENDBRANCH   6  21
TORSDOF 7
