REMARK  Name = ZINC50829426
REMARK  4 active torsions:
REMARK  status: ('A' for Active; 'I' for Inactive)
REMARK    1  A    between atoms: C_3  and  N_21
REMARK    2  A    between atoms: C_4  and  C_10
REMARK    3  A    between atoms: C_6  and  N_7
REMARK    4  A    between atoms: C_10  and  N_11
REMARK                            x       y       z     vdW  Elec       q    Type
REMARK                         _______ _______ _______ _____ _____    ______ ____
ROOT
ATOM      1  C   UNL     1      -0.384   0.812   0.341  0.00  0.00    +0.034 A 
ATOM      2  C   UNL     1       0.671   1.680   0.138  0.00  0.00    +0.025 A 
ATOM      3  C   UNL     1       1.977   1.210   0.201  0.00  0.00    +0.030 A 
ATOM      4  C   UNL     1       2.217  -0.132   0.468  0.00  0.00    -0.005 A 
ATOM      5  C   UNL     1       1.157  -0.994   0.670  0.00  0.00    +0.040 A 
ATOM      6  C   UNL     1      -0.142  -0.523   0.607  0.00  0.00    +0.127 A 
ENDROOT
BRANCH   6   7
ATOM      7  N   UNL     1      -1.275  -1.450   0.824  0.00  0.00    +0.056 N 
ATOM      8  O   UNL     1      -2.411  -1.039   0.769  0.00  0.00    -0.126 OA
ATOM      9  O   UNL     1      -1.065  -2.617   1.057  0.00  0.00    -0.126 OA
ENDBRANCH   6   7
BRANCH   3  10
ATOM     10  N   UNL     1       3.046   2.085  -0.005  0.00  0.00    -0.358 N 
ATOM     11  H   UNL     1       2.887   3.040  -0.065  0.00  0.00    +0.142 HD
ATOM     12  H   UNL     1       3.948   1.738  -0.088  0.00  0.00    +0.142 HD
ENDBRANCH   3  10
BRANCH   4  13
ATOM     13  C   UNL     1       3.631  -0.646   0.537  0.00  0.00    +0.163 C 
BRANCH  13  14
ATOM     14  N   UNL     1       4.187  -0.370   1.864  0.00  0.00    -0.294 N 
ATOM     15  C   UNL     1       4.936   0.744   2.076  0.00  0.00    +0.203 A 
ATOM     16  N   UNL     1       5.454   1.043   3.224  0.00  0.00    -0.236 NA
ATOM     17  C   UNL     1       5.282   0.245   4.329  0.00  0.00    +0.085 A 
ATOM     18  C   UNL     1       5.775   0.433   5.627  0.00  0.00    +0.036 A 
ATOM     19  C   UNL     1       5.500  -0.467   6.595  0.00  0.00    +0.048 A 
ATOM     20  S   UNL     1       4.504  -1.676   5.737  0.00  0.00    -0.090 S 
ATOM     21  C   UNL     1       4.511  -0.914   4.136  0.00  0.00    +0.102 A 
ATOM     22  C   UNL     1       3.955  -1.220   2.893  0.00  0.00    +0.269 A 
ATOM     23  O   UNL     1       3.283  -2.225   2.737  0.00  0.00    -0.266 OA
ENDBRANCH  13  14
ENDBRANCH   4  13
TORSDOF 4
