REMARK  Name = ZINC04320917
REMARK  4 active torsions:
REMARK  status: ('A' for Active; 'I' for Inactive)
REMARK    1  A    between atoms: C_1  and  O_2
REMARK    2  A    between atoms: O_2  and  C_3
REMARK    3  A    between atoms: C_6  and  C_12
REMARK    4  A    between atoms: C_8  and  N_9
REMARK                            x       y       z     vdW  Elec       q    Type
REMARK                         _______ _______ _______ _____ _____    ______ ____
ROOT
ATOM      1  C   UNL     1       3.571  -1.960  -0.629  0.00  0.00    +0.105 C 
ATOM      2  C   UNL     1       2.560  -2.813   0.141  0.00  0.00    +0.029 C 
ATOM      3  C   UNL     1       2.362  -4.141  -0.644  0.00  0.00    +0.033 C 
ATOM      4  C   UNL     1       1.355  -3.774  -1.716  0.00  0.00    -0.030 C 
ATOM      5  C   UNL     1       0.686  -2.702  -1.370  0.00  0.00    -0.023 C 
ATOM      6  C   UNL     1       1.155  -2.196  -0.025  0.00  0.00    +0.049 C 
ATOM      7  C   UNL     1       1.206  -0.697  -0.013  0.00  0.00    -0.017 A 
ATOM      8  C   UNL     1       0.002  -0.004   0.002  0.00  0.00    +0.006 A 
ATOM      9  C   UNL     1      -0.017   1.375   0.010  0.00  0.00    +0.003 A 
ATOM     10  C   UNL     1       1.171   2.084   0.002  0.00  0.00    +0.040 A 
ATOM     11  C   UNL     1       2.373   1.405  -0.012  0.00  0.00    +0.144 A 
ATOM     12  C   UNL     1       2.395   0.009  -0.018  0.00  0.00    +0.067 A 
ATOM     13  N   UNL     1       3.638  -0.626  -0.030  0.00  0.00    -0.334 N 
ATOM     14  F   UNL     1       3.535   2.096  -0.020  0.00  0.00    -0.204 F 
ATOM     15  H   UNL     1       4.032  -0.666   0.898  0.00  0.00    +0.147 HD
ENDROOT
BRANCH   1  19
ATOM     16  C   UNL     1       7.423  -3.801  -0.445  0.00  0.00    +0.150 A 
ATOM     17  C   UNL     1       6.959  -3.052   0.627  0.00  0.00    +0.048 A 
ATOM     18  C   UNL     1       5.713  -2.458   0.565  0.00  0.00    +0.009 A 
ATOM     19  C   UNL     1       4.929  -2.609  -0.564  0.00  0.00    -0.025 A 
ATOM     20  C   UNL     1       5.387  -3.359  -1.631  0.00  0.00    +0.042 A 
ATOM     21  C   UNL     1       6.635  -3.951  -1.577  0.00  0.00    +0.168 A 
BRANCH  21  22
ATOM     22  N   UNL     1       7.127  -4.748  -2.722  0.00  0.00    +0.060 N 
ATOM     23  O   UNL     1       6.434  -4.880  -3.715  0.00  0.00    -0.126 OA
ATOM     24  O   UNL     1       8.225  -5.274  -2.671  0.00  0.00    -0.126 OA
ENDBRANCH  21  22
BRANCH  16  26
ATOM     25  C   UNL     1       9.404  -4.190   0.810  0.00  0.00    +0.277 C 
ATOM     26  O   UNL     1       8.648  -4.386  -0.386  0.00  0.00    -0.493 OA
ENDBRANCH  16  26
ENDBRANCH   1  19
TORSDOF 3
