REMARK  Name = ZINC63628340
REMARK  8 active torsions:
REMARK  status: ('A' for Active; 'I' for Inactive)
REMARK    1  A    between atoms: C_1  and  C_2
REMARK    2  A    between atoms: C_2  and  C_3
REMARK    3  A    between atoms: C_6  and  C_9
REMARK    4  A    between atoms: C_11  and  C_15
REMARK    5  A    between atoms: N_20  and  C_23
REMARK    6  A    between atoms: N_29  and  C_31
REMARK    7  A    between atoms: C_34  and  C_38
REMARK    8  A    between atoms: C_35  and  C_37
REMARK                            x       y       z     vdW  Elec       q    Type
REMARK                         _______ _______ _______ _____ _____    ______ ____
ROOT
ATOM      1  C   UNL     1       1.295  -3.013   5.798  0.00  0.00    +0.246 C 
ATOM      2  O   UNL     1       1.667  -3.770   4.927  0.00  0.00    -0.273 OA
ATOM      3  N   UNL     1       0.921  -3.500   6.998  0.00  0.00    -0.297 N 
ATOM      4  C   UNL     1       0.460  -2.600   8.067  0.00  0.00    +0.123 C 
ATOM      5  C   UNL     1      -0.880  -3.121   8.597  0.00  0.00    +0.105 C 
ATOM      6  N   UNL     1      -0.734  -4.529   8.990  0.00  0.00    -0.280 NA
ATOM      7  C   UNL     1      -0.396  -5.372   7.836  0.00  0.00    +0.105 C 
ATOM      8  C   UNL     1       0.958  -4.944   7.272  0.00  0.00    +0.123 C 
ENDROOT
BRANCH   6   9
ATOM      9  C   UNL     1      -1.945  -5.016   9.662  0.00  0.00    +0.166 C 
ATOM     10  C   UNL     1      -2.133  -4.270  10.960  0.00  0.00    +0.014 C 
ATOM     11  C   UNL     1      -2.814  -4.860  11.946  0.00  0.00    +0.068 C 
ATOM     12  C   UNL     1      -3.342  -6.216  11.701  0.00  0.00    +0.257 C 
ATOM     13  O   UNL     1      -4.225  -6.673  12.403  0.00  0.00    -0.269 OA
ATOM     14  N   UNL     1      -2.829  -6.941  10.686  0.00  0.00    -0.200 N 
ATOM     15  N   UNL     1      -1.811  -6.451   9.927  0.00  0.00    -0.212 NA
ATOM     16  H   UNL     1      -0.915  -6.660  10.342  0.00  0.00    +0.147 HD
BRANCH  14  17
ATOM     17  C   UNL     1      -3.348  -8.210  10.413  0.00  0.00    +0.053 A 
ATOM     18  C   UNL     1      -4.721  -8.393  10.309  0.00  0.00    +0.025 A 
ATOM     19  C   UNL     1      -5.231  -9.647  10.038  0.00  0.00    +0.005 A 
ATOM     20  C   UNL     1      -4.376 -10.721   9.871  0.00  0.00    -0.047 A 
ATOM     21  C   UNL     1      -3.009 -10.543   9.975  0.00  0.00    -0.046 A 
ATOM     22  C   UNL     1      -2.492  -9.289  10.238  0.00  0.00    +0.028 A 
ATOM     23  C   UNL     1      -2.081 -11.716   9.793  0.00  0.00    +0.044 C 
ATOM     24  C   UNL     1      -4.935 -12.089   9.577  0.00  0.00    +0.044 C 
ENDBRANCH  14  17
ENDBRANCH   6   9
BRANCH   1  27
ATOM     25  C   UNL     1      -0.073  -0.590   3.968  0.00  0.00    +0.092 C 
ATOM     26  C   UNL     1      -0.167  -1.085   5.217  0.00  0.00    +0.040 C 
ATOM     27  C   UNL     1       1.249  -1.530   5.539  0.00  0.00    +0.238 C 
ATOM     28  N   UNL     1       1.994  -1.189   4.315  0.00  0.00    -0.170 NA
ATOM     29  N   UNL     1       1.203  -0.690   3.512  0.00  0.00    -0.153 NA
BRANCH  25  33
ATOM     30  C   UNL     1      -3.319   1.039   1.756  0.00  0.00    -0.048 A 
ATOM     31  C   UNL     1      -2.057   0.987   1.191  0.00  0.00    +0.004 A 
ATOM     32  C   UNL     1      -1.000   0.460   1.905  0.00  0.00    +0.010 A 
ATOM     33  C   UNL     1      -1.206  -0.021   3.196  0.00  0.00    +0.002 A 
ATOM     34  C   UNL     1      -2.479   0.033   3.760  0.00  0.00    +0.010 A 
ATOM     35  C   UNL     1      -3.528   0.567   3.039  0.00  0.00    +0.004 A 
BRANCH  30  37
ATOM     36  C   UNL     1      -4.562   3.120   1.235  0.00  0.00    +0.009 C 
ATOM     37  C   UNL     1      -4.469   1.616   0.971  0.00  0.00    +0.032 C 
ENDBRANCH  30  37
ENDBRANCH  25  33
ENDBRANCH   1  27
TORSDOF 5
