REMARK  Name = ZINC36277062
REMARK  6 active torsions:
REMARK  status: ('A' for Active; 'I' for Inactive)
REMARK    1  A    between atoms: C_1  and  C_2
REMARK    2  A    between atoms: C_3  and  C_18
REMARK    3  A    between atoms: C_7  and  N_12
REMARK    4  A    between atoms: N_12  and  C_13
REMARK    5  A    between atoms: C_13  and  C_14
REMARK    6  A    between atoms: C_14  and  N_15
REMARK                            x       y       z     vdW  Elec       q    Type
REMARK                         _______ _______ _______ _____ _____    ______ ____
ROOT
ATOM      1  C   UNL     1      -0.556   1.485   0.114  0.00  0.00    +0.045 C 
ATOM      2  C   UNL     1      -0.484  -0.020   0.096  0.00  0.00    -0.028 A 
ATOM      3  C   UNL     1      -0.771  -0.699  -1.024  0.00  0.00    -0.008 A 
ATOM      4  S   UNL     1      -0.546  -2.402  -0.548  0.00  0.00    -0.073 S 
ATOM      5  C   UNL     1      -0.072  -2.156   1.143  0.00  0.00    +0.115 A 
ATOM      6  C   UNL     1      -0.097  -0.751   1.289  0.00  0.00    +0.051 A 
ATOM      7  C   UNL     1       0.255  -0.266   2.579  0.00  0.00    +0.132 A 
ATOM      8  N   UNL     1       0.577  -1.130   3.528  0.00  0.00    -0.202 NA
ATOM      9  C   UNL     1       0.583  -2.436   3.319  0.00  0.00    +0.225 A 
ATOM     10  N   UNL     1       0.257  -2.946   2.146  0.00  0.00    -0.210 NA
ATOM     11 CL   UNL     1       1.018  -3.502   4.618  0.00  0.00    -0.041 Cl
ATOM     12  C   UNL     1      -1.186  -0.153  -2.366  0.00  0.00    +0.052 C 
ENDROOT
BRANCH   7  13
ATOM     13  N   UNL     1       0.261   1.092   2.838  0.00  0.00    -0.327 N 
ATOM     14  H   UNL     1       0.109   1.724   2.118  0.00  0.00    +0.148 HD
BRANCH  13  15
ATOM     15  C   UNL     1       0.496   1.577   4.200  0.00  0.00    +0.121 C 
BRANCH  15  16
ATOM     16  C   UNL     1       0.452   3.106   4.212  0.00  0.00    +0.122 C 
BRANCH  16  17
ATOM     17  N   UNL     1       0.687   3.591   5.574  0.00  0.00    -0.316 N 
ATOM     18  C   UNL     1       0.693   4.915   5.827  0.00  0.00    +0.325 C 
ATOM     19  O   UNL     1       0.503   5.705   4.927  0.00  0.00    -0.280 OA
ATOM     20  H   UNL     1       0.839   2.959   6.295  0.00  0.00    +0.148 HD
ENDBRANCH  16  17
ENDBRANCH  15  16
ENDBRANCH  13  15
ENDBRANCH   7  13
TORSDOF 4
