REMARK  Name = ZINC02769361
REMARK  7 active torsions:
REMARK  status: ('A' for Active; 'I' for Inactive)
REMARK    1  A    between atoms: C_1  and  C_2
REMARK    2  A    between atoms: C_3  and  C_22
REMARK    3  A    between atoms: C_4  and  C_19
REMARK    4  A    between atoms: C_5  and  N_7
REMARK    5  A    between atoms: C_8  and  C_10
REMARK    6  A    between atoms: C_10  and  O_11
REMARK    7  A    between atoms: O_11  and  C_12
REMARK                            x       y       z     vdW  Elec       q    Type
REMARK                         _______ _______ _______ _____ _____    ______ ____
ROOT
ATOM      1  C   UNL     1       3.810   2.270  -2.594  0.00  0.00    +0.052 C 
ATOM      2  C   UNL     1       4.263   2.532  -1.180  0.00  0.00    -0.003 A 
ATOM      3  C   UNL     1       3.659   2.166  -0.021  0.00  0.00    +0.007 A 
ATOM      4  C   UNL     1       4.324   2.548   1.210  0.00  0.00    +0.073 A 
ATOM      5  C   UNL     1       5.512   3.254   1.085  0.00  0.00    +0.085 A 
ATOM      6  S   UNL     1       5.719   3.396  -0.628  0.00  0.00    -0.077 S 
ENDROOT
BRANCH   3   7
ATOM      7  C   UNL     1       2.384   1.410  -0.013  0.00  0.00    +0.002 A 
ATOM      8  C   UNL     1       1.167   2.089   0.002  0.00  0.00    +0.011 A 
ATOM      9  C   UNL     1      -0.017   1.381   0.010  0.00  0.00    +0.021 A 
ATOM     10  C   UNL     1       0.002  -0.004   0.002  0.00  0.00    +0.042 A 
ATOM     11  C   UNL     1       1.207  -0.685  -0.014  0.00  0.00    +0.040 A 
ATOM     12  C   UNL     1       2.398   0.015  -0.021  0.00  0.00    +0.050 A 
ATOM     13 CL   UNL     1       3.909  -0.840  -0.040  0.00  0.00    -0.083 Cl
ATOM     14 CL   UNL     1      -1.491  -0.889   0.012  0.00  0.00    -0.083 Cl
ENDBRANCH   3   7
BRANCH   4  15
ATOM     15  C   UNL     1       3.770   2.203   2.521  0.00  0.00    +0.244 C 
ATOM     16  O   UNL     1       4.079   1.154   3.056  0.00  0.00    -0.270 OA
ATOM     17  N   UNL     1       2.919   3.048   3.136  0.00  0.00    -0.325 N 
ATOM     18  H   UNL     1       2.503   2.790   4.121  0.00  0.00    +0.145 HD
ATOM     19  H   UNL     1       2.641   3.997   2.653  0.00  0.00    +0.145 HD
ENDBRANCH   4  15
BRANCH   5  20
ATOM     20  N   UNL     1       6.337   3.732   2.091  0.00  0.00    -0.277 N 
ATOM     21  C   UNL     1       7.463   4.404   1.778  0.00  0.00    +0.255 C 
ATOM     22  O   UNL     1       7.754   4.590   0.616  0.00  0.00    -0.272 OA
ATOM     23  H   UNL     1       6.073   3.563   3.145  0.00  0.00    +0.155 HD
BRANCH  21  24
ATOM     24  C   UNL     1       8.359   4.923   2.872  0.00  0.00    +0.325 C 
BRANCH  24  25
ATOM     25  O   UNL     1       9.479   5.595   2.292  0.00  0.00    -0.481 OA
BRANCH  25  26
ATOM     26  C   UNL     1      10.392   6.126   3.148  0.00  0.00    +0.139 A 
ATOM     27  C   UNL     1      10.210   6.009   4.518  0.00  0.00    +0.047 A 
ATOM     28  C   UNL     1      11.141   6.545   5.386  0.00  0.00    +0.004 A 
ATOM     29  C   UNL     1      12.249   7.208   4.890  0.00  0.00    +0.002 A 
ATOM     30  C   UNL     1      12.431   7.332   3.526  0.00  0.00    +0.023 A 
ATOM     31  C   UNL     1      11.504   6.792   2.652  0.00  0.00    +0.083 A 
ATOM     32 CL   UNL     1      11.732   6.948   0.938  0.00  0.00    -0.080 Cl
ENDBRANCH  25  26
ENDBRANCH  24  25
ENDBRANCH  21  24
ENDBRANCH   5  20
TORSDOF 6
