REMARK  Name = ZINC44966683
REMARK  6 active torsions:
REMARK  status: ('A' for Active; 'I' for Inactive)
REMARK    1  A    between atoms: C_6  and  C_7
REMARK    2  A    between atoms: C_7  and  C_9
REMARK    3  A    between atoms: C_7  and  O_25
REMARK    4  A    between atoms: C_9  and  N_10
REMARK    5  A    between atoms: N_13  and  C_14
REMARK    6  A    between atoms: C_14  and  C_15
REMARK                            x       y       z     vdW  Elec       q    Type
REMARK                         _______ _______ _______ _____ _____    ______ ____
ROOT
ATOM      1  N   UNL     1      -2.932  -1.888  -1.423  0.00  0.00    -0.297 N 
ATOM      2  C   UNL     1      -3.429  -2.382  -2.575  0.00  0.00    +0.300 C 
ATOM      3  O   UNL     1      -2.785  -2.292  -3.602  0.00  0.00    -0.253 OA
ATOM      4  N   UNL     1      -4.639  -2.975  -2.587  0.00  0.00    -0.292 N 
ATOM      5  H   UNL     1      -3.446  -1.959  -0.604  0.00  0.00    +0.150 HD
ATOM      6  H   UNL     1      -5.152  -3.047  -1.767  0.00  0.00    +0.151 HD
ENDROOT
BRANCH   1   7
ATOM      7  C   UNL     1      -1.617  -1.243  -1.410  0.00  0.00    +0.141 C 
BRANCH   7   8
ATOM      8  C   UNL     1      -1.293  -0.775   0.010  0.00  0.00    +0.162 C 
BRANCH   8  14
ATOM      9  C   UNL     1      -0.017   1.378   0.010  0.00  0.00    +0.009 A 
ATOM     10  C   UNL     1       1.170   2.086   0.002  0.00  0.00    +0.039 A 
ATOM     11  C   UNL     1       2.379   1.410  -0.013  0.00  0.00    +0.123 A 
ATOM     12  C   UNL     1       2.396   0.026  -0.021  0.00  0.00    +0.039 A 
ATOM     13  C   UNL     1       1.208  -0.680  -0.013  0.00  0.00    +0.009 A 
ATOM     14  C   UNL     1       0.002  -0.004   0.002  0.00  0.00    -0.017 A 
ATOM     15  F   UNL     1       3.540   2.101  -0.021  0.00  0.00    -0.205 F 
ENDBRANCH   8  14
BRANCH   8  16
ATOM     16  O   UNL     1      -1.166  -1.910   0.869  0.00  0.00    -0.386 OA
ATOM     17  H   UNL     1      -0.469  -2.526   0.606  0.00  0.00    +0.210 HD
ENDBRANCH   8  16
ENDBRANCH   7   8
ENDBRANCH   1   7
BRANCH   4  18
ATOM     18  C   UNL     1      -5.178  -3.512  -3.839  0.00  0.00    +0.182 C 
BRANCH  18  19
ATOM     19  C   UNL     1      -6.534  -4.118  -3.582  0.00  0.00    +0.151 A 
ATOM     20  N   UNL     1      -6.780  -5.355  -3.242  0.00  0.00    -0.133 NA
ATOM     21  N   UNL     1      -8.048  -5.522  -3.098  0.00  0.00    -0.134 NA
ATOM     22  C   UNL     1      -8.665  -4.400  -3.335  0.00  0.00    +0.133 A 
ATOM     23  N   UNL     1      -7.724  -3.482  -3.655  0.00  0.00    -0.314 N 
ATOM     24  C   UNL     1      -7.960  -2.085  -4.023  0.00  0.00    +0.125 C 
ATOM     25  C   UNL     1      -9.247  -1.594  -3.355  0.00  0.00    +0.022 C 
ATOM     26  C   UNL     1     -10.441  -1.876  -4.266  0.00  0.00    +0.002 C 
ATOM     27  C   UNL     1     -10.587  -3.375  -4.508  0.00  0.00    +0.008 C 
ATOM     28  C   UNL     1     -10.148  -4.143  -3.263  0.00  0.00    +0.076 C 
ENDBRANCH  18  19
ENDBRANCH   4  18
TORSDOF 6
