REMARK  Name = ZINC64517341
REMARK  8 active torsions:
REMARK  status: ('A' for Active; 'I' for Inactive)
REMARK    1  A    between atoms: C_1  and  C_2
REMARK    2  A    between atoms: C_2  and  C_3
REMARK    3  A    between atoms: C_3  and  C_4
REMARK    4  A    between atoms: C_6  and  C_10
REMARK    5  A    between atoms: N_15  and  C_16
REMARK    6  A    between atoms: C_16  and  C_17
REMARK    7  A    between atoms: C_22  and  C_23
REMARK    8  A    between atoms: C_26  and  C_29
REMARK                            x       y       z     vdW  Elec       q    Type
REMARK                         _______ _______ _______ _____ _____    ______ ____
ROOT
ATOM      1  C   UNL     1      -0.073  -4.841   0.944  0.00  0.00    +0.081 C 
ATOM      2  C   UNL     1       0.258  -4.818   2.451  0.00  0.00    +0.022 C 
ATOM      3  C   UNL     1       1.010  -6.159   2.664  0.00  0.00    +0.017 C 
ATOM      4  C   UNL     1       0.260  -7.097   1.685  0.00  0.00    +0.085 C 
ATOM      5  N   UNL     1      -0.046  -6.250   0.508  0.00  0.00    -0.297 NA
ENDROOT
BRANCH   1   8
ATOM      6  C   UNL     1      -1.457  -2.014   0.200  0.00  0.00    +0.123 C 
ATOM      7  C   UNL     1      -1.541  -2.829   1.230  0.00  0.00    +0.040 C 
ATOM      8  C   UNL     1      -1.465  -4.251   0.707  0.00  0.00    +0.136 C 
ATOM      9  N   UNL     1      -1.729  -4.078  -0.745  0.00  0.00    -0.147 NA
ATOM     10  O   UNL     1      -1.328  -2.680  -0.973  0.00  0.00    -0.411 OA
ATOM     11  H   UNL     1      -2.708  -4.208  -0.952  0.00  0.00    +0.168 HD
BRANCH   6  12
ATOM     12  C   UNL     1      -1.504  -0.512   0.312  0.00  0.00    +0.076 C 
BRANCH  12  14
ATOM     13  C   UNL     1      -0.127   1.566   0.476  0.00  0.00    +0.004 C 
ATOM     14  C   UNL     1      -0.079   0.041   0.363  0.00  0.00    +0.004 C 
ENDBRANCH  12  14
ENDBRANCH   6  12
ENDBRANCH   1   8
BRANCH   5  15
ATOM     15  C   UNL     1      -1.325  -6.637  -0.102  0.00  0.00    +0.100 C 
BRANCH  15  16
ATOM     16  C   UNL     1      -1.226  -8.071  -0.627  0.00  0.00    +0.097 C 
ATOM     17  C   UNL     1      -0.283  -8.143  -1.812  0.00  0.00    +0.118 C 
ATOM     18  N   UNL     1      -0.994  -8.552  -2.812  0.00  0.00    -0.161 NA
ATOM     19  N   UNL     1      -2.322  -8.776  -2.465  0.00  0.00    -0.153 NA
ATOM     20  C   UNL     1      -2.554  -8.522  -1.202  0.00  0.00    +0.080 C 
BRANCH  20  21
ATOM     21  C   UNL     1      -3.834  -8.648  -0.488  0.00  0.00    -0.001 A 
ATOM     22  C   UNL     1      -3.915  -8.329   0.871  0.00  0.00    +0.010 A 
ATOM     23  C   UNL     1      -5.118  -8.450   1.534  0.00  0.00    +0.004 A 
ATOM     24  C   UNL     1      -6.244  -8.885   0.857  0.00  0.00    -0.050 A 
ATOM     25  C   UNL     1      -6.172  -9.203  -0.488  0.00  0.00    +0.004 A 
ATOM     26  C   UNL     1      -4.978  -9.081  -1.166  0.00  0.00    +0.010 A 
ATOM     27  C   UNL     1      -7.555  -9.014   1.589  0.00  0.00    +0.044 C 
ENDBRANCH  20  21
ENDBRANCH  15  16
ENDBRANCH   5  15
TORSDOF 6
