REMARK  Name = ZINC18201262
REMARK  4 active torsions:
REMARK  status: ('A' for Active; 'I' for Inactive)
REMARK    1  A    between atoms: C_1  and  O_2
REMARK    2  A    between atoms: O_2  and  C_3
REMARK    3  A    between atoms: C_7  and  C_10
REMARK    4  A    between atoms: C_8  and  O_9
REMARK                            x       y       z     vdW  Elec       q    Type
REMARK                         _______ _______ _______ _____ _____    ______ ____
ROOT
ATOM      1  C   UNL     1       1.394  -4.134   2.219  0.00  0.00    +0.097 C 
ATOM      2  C   UNL     1       0.715  -4.617   3.475  0.00  0.00    +0.067 A 
ATOM      3  C   UNL     1       1.408  -5.095   4.544  0.00  0.00    +0.114 A 
ATOM      4  N   UNL     1       0.720  -5.513   5.662  0.00  0.00    -0.295 N 
ATOM      5  C   UNL     1      -0.622  -5.457   5.701  0.00  0.00    +0.328 A 
ATOM      6  O   UNL     1      -1.210  -5.832   6.698  0.00  0.00    -0.247 OA
ATOM      7  N   UNL     1      -1.325  -4.993   4.652  0.00  0.00    -0.275 N 
ATOM      8  C   UNL     1      -0.693  -4.572   3.540  0.00  0.00    +0.260 A 
ATOM      9  O   UNL     1      -1.336  -4.151   2.594  0.00  0.00    -0.267 OA
ATOM     10  N   UNL     1       2.783  -5.181   4.548  0.00  0.00    -0.300 N 
ATOM     11  C   UNL     1       3.454  -5.057   3.353  0.00  0.00    +0.048 C 
ATOM     12  C   UNL     1       2.836  -4.570   2.229  0.00  0.00    +0.034 C 
ATOM     13  C   UNL     1       3.751  -4.557   1.152  0.00  0.00    +0.193 C 
ATOM     14  O   UNL     1       3.520  -4.188   0.017  0.00  0.00    -0.287 OA
ATOM     15  C   UNL     1       5.041  -5.073   1.658  0.00  0.00    +0.031 A 
ATOM     16  C   UNL     1       4.847  -5.382   3.029  0.00  0.00    +0.007 A 
ATOM     17  C   UNL     1       5.882  -5.892   3.797  0.00  0.00    +0.010 A 
ATOM     18  C   UNL     1       7.110  -6.086   3.159  0.00  0.00    +0.001 A 
ATOM     19  C   UNL     1       7.294  -5.789   1.829  0.00  0.00    +0.001 A 
ATOM     20  C   UNL     1       6.261  -5.270   1.040  0.00  0.00    +0.012 A 
ATOM     21  H   UNL     1       3.268  -5.328   5.376  0.00  0.00    +0.154 HD
ATOM     22  H   UNL     1      -2.293  -4.962   4.696  0.00  0.00    +0.173 HD
ATOM     23  H   UNL     1       1.210  -5.851   6.428  0.00  0.00    +0.172 HD
ENDROOT
BRANCH   1  28
ATOM     24  C   UNL     1       0.626  -0.619   1.042  0.00  0.00    +0.162 A 
ATOM     25  C   UNL     1       1.202   0.137   2.051  0.00  0.00    +0.049 A 
ATOM     26  C   UNL     1       1.836  -0.490   3.108  0.00  0.00    +0.004 A 
ATOM     27  C   UNL     1       1.897  -1.870   3.161  0.00  0.00    +0.008 A 
ATOM     28  C   UNL     1       1.325  -2.630   2.158  0.00  0.00    +0.010 A 
ATOM     29  C   UNL     1       0.683  -2.008   1.099  0.00  0.00    +0.163 A 
BRANCH  24  31
ATOM     30  C   UNL     1      -0.017   1.425   0.010  0.00  0.00    +0.277 C 
ATOM     31  O   UNL     1       0.002  -0.004   0.002  0.00  0.00    -0.491 OA
ENDBRANCH  24  31
BRANCH  29  32
ATOM     32  O   UNL     1       0.115  -2.754   0.114  0.00  0.00    -0.503 OA
ATOM     33  H   UNL     1       0.711  -2.957  -0.620  0.00  0.00    +0.292 HD
ENDBRANCH  29  32
ENDBRANCH   1  28
TORSDOF 3
