REMARK  Name = ZINC02890503
REMARK  8 active torsions:
REMARK  status: ('A' for Active; 'I' for Inactive)
REMARK    1  A    between atoms: C_1  and  C_2
REMARK    2  A    between atoms: C_5  and  S_8
REMARK    3  A    between atoms: S_8  and  C_11
REMARK    4  A    between atoms: C_12  and  N_22
REMARK    5  A    between atoms: C_14  and  C_16
REMARK    6  A    between atoms: N_17  and  N_18
REMARK    7  A    between atoms: N_18  and  C_19
REMARK    8  A    between atoms: C_19  and  N_21
REMARK                            x       y       z     vdW  Elec       q    Type
REMARK                         _______ _______ _______ _____ _____    ______ ____
ROOT
ATOM      1  C   UNL     1       0.049   1.661   0.755  0.00  0.00    +0.243 A 
ATOM      2  C   UNL     1      -1.002   2.058  -0.007  0.00  0.00    +0.236 A 
ATOM      3  O   UNL     1      -0.572   3.078  -0.776  0.00  0.00    -0.419 OA
ATOM      4  C   UNL     1       0.727   3.291  -0.485  0.00  0.00    +0.244 A 
ATOM      5  N   UNL     1       1.098   2.430   0.437  0.00  0.00    -0.187 NA
ENDROOT
BRANCH   2   6
ATOM      6  N   UNL     1      -2.282   1.518   0.008  0.00  0.00    -0.299 N 
ATOM      7  C   UNL     1      -2.595   0.870  -1.272  0.00  0.00    +0.108 C 
ATOM      8  C   UNL     1      -3.948   0.164  -1.170  0.00  0.00    +0.019 C 
ATOM      9  C   UNL     1      -5.029   1.190  -0.819  0.00  0.00    +0.003 C 
ATOM     10  C   UNL     1      -4.655   1.885   0.493  0.00  0.00    +0.019 C 
ATOM     11  C   UNL     1      -3.280   2.542   0.343  0.00  0.00    +0.108 C 
ENDBRANCH   2   6
BRANCH   1  12
ATOM     12  S   UNL     1       0.036   0.362   1.946  0.00  0.00    +0.047 S 
ATOM     13  O   UNL     1      -0.959  -0.562   1.528  0.00  0.00    -0.163 OA
ATOM     14  O   UNL     1       1.391  -0.016   2.149  0.00  0.00    -0.163 OA
BRANCH  12  19
ATOM     15  C   UNL     1      -1.889   2.735   7.149  0.00  0.00    +0.044 C 
ATOM     16  C   UNL     1      -1.408   2.142   5.850  0.00  0.00    -0.050 A 
ATOM     17  C   UNL     1      -2.303   1.513   5.004  0.00  0.00    +0.005 A 
ATOM     18  C   UNL     1      -1.862   0.969   3.812  0.00  0.00    +0.028 A 
ATOM     19  C   UNL     1      -0.526   1.055   3.465  0.00  0.00    +0.095 A 
ATOM     20  C   UNL     1       0.369   1.679   4.314  0.00  0.00    +0.028 A 
ATOM     21  C   UNL     1      -0.072   2.227   5.504  0.00  0.00    +0.005 A 
ENDBRANCH  12  19
ENDBRANCH   1  12
BRANCH   4  22
ATOM     22  C   UNL     1       1.583   4.311  -1.096  0.00  0.00    +0.198 C 
ATOM     23  N   UNL     1       2.828   4.420  -0.730  0.00  0.00    -0.184 NA
BRANCH  23  24
ATOM     24  N   UNL     1       3.647   5.395  -1.314  0.00  0.00    -0.218 N 
ATOM     25  H   UNL     1       3.286   5.990  -1.990  0.00  0.00    +0.176 HD
BRANCH  24  26
ATOM     26  C   UNL     1       4.935   5.508  -0.936  0.00  0.00    +0.147 C 
ATOM     27  S   UNL     1       5.936   6.700  -1.649  0.00  0.00    -0.017 S 
BRANCH  26  28
ATOM     28  N   UNL     1       5.436   4.681   0.004  0.00  0.00    -0.339 N 
ATOM     29  H   UNL     1       4.870   4.006   0.408  0.00  0.00    +0.144 HD
ATOM     30  H   UNL     1       6.364   4.762   0.276  0.00  0.00    +0.144 HD
ENDBRANCH  26  28
ENDBRANCH  24  26
ENDBRANCH  23  24
ENDBRANCH   4  22
TORSDOF 7
