REMARK  Name = ZINC36128291
REMARK  8 active torsions:
REMARK  status: ('A' for Active; 'I' for Inactive)
REMARK    1  A    between atoms: C_1  and  C_2
REMARK    2  A    between atoms: C_3  and  N_21
REMARK    3  A    between atoms: C_5  and  S_9
REMARK    4  A    between atoms: S_9  and  N_12
REMARK    5  A    between atoms: N_12  and  C_13
REMARK    6  A    between atoms: N_12  and  C_14
REMARK    7  A    between atoms: C_14  and  C_15
REMARK    8  A    between atoms: N_17  and  C_18
REMARK                            x       y       z     vdW  Elec       q    Type
REMARK                         _______ _______ _______ _____ _____    ______ ____
ROOT
ATOM      1  S   UNL     1       0.063  -4.536  -0.016  0.00  0.00    +0.061 S 
ATOM      2  O   UNL     1      -0.476  -4.952   1.231  0.00  0.00    -0.153 OA
ATOM      3  O   UNL     1      -0.488  -4.947  -1.260  0.00  0.00    -0.153 OA
ENDROOT
BRANCH   1   8
ATOM      4  C   UNL     1      -0.018   1.503   0.010  0.00  0.00    +0.047 C 
ATOM      5  C   UNL     1       0.002  -0.004   0.002  0.00  0.00    -0.011 A 
ATOM      6  C   UNL     1       0.006  -0.693  -1.204  0.00  0.00    +0.031 A 
ATOM      7  C   UNL     1       0.025  -2.082  -1.208  0.00  0.00    +0.051 A 
ATOM      8  C   UNL     1       0.040  -2.774  -0.012  0.00  0.00    +0.109 A 
ATOM      9  C   UNL     1       0.035  -2.087   1.187  0.00  0.00    +0.049 A 
ATOM     10  C   UNL     1       0.023  -0.702   1.194  0.00  0.00    +0.047 A 
ATOM     11 CL   UNL     1       0.026   0.157   2.703  0.00  0.00    -0.083 Cl
BRANCH   6  12
ATOM     12  N   UNL     1      -0.010   0.010  -2.411  0.00  0.00    -0.358 N 
ATOM     13  H   UNL     1      -0.023   0.980  -2.408  0.00  0.00    +0.142 HD
ATOM     14  H   UNL     1      -0.007  -0.472  -3.253  0.00  0.00    +0.142 HD
ENDBRANCH   6  12
ENDBRANCH   1   8
BRANCH   1  15
ATOM     15  N   UNL     1       1.652  -5.004  -0.025  0.00  0.00    -0.171 NA
ATOM     16  C   UNL     1       2.360  -5.214   1.240  0.00  0.00    +0.132 C 
BRANCH  15  17
ATOM     17  C   UNL     1       2.349  -5.208  -1.297  0.00  0.00    +0.204 C 
BRANCH  17  18
ATOM     18  C   UNL     1       3.091  -3.951  -1.671  0.00  0.00    +0.229 C 
ATOM     19  O   UNL     1       3.042  -2.980  -0.946  0.00  0.00    -0.274 OA
ATOM     20  N   UNL     1       3.808  -3.906  -2.811  0.00  0.00    -0.311 N 
ATOM     21  H   UNL     1       3.846  -4.683  -3.391  0.00  0.00    +0.149 HD
BRANCH  20  22
ATOM     22  C   UNL     1       4.529  -2.684  -3.175  0.00  0.00    +0.073 C 
ATOM     23  C   UNL     1       4.448  -2.222  -4.631  0.00  0.00    +0.024 C 
ATOM     24  C   UNL     1       5.745  -2.828  -4.092  0.00  0.00    +0.024 C 
ENDBRANCH  20  22
ENDBRANCH  17  18
ENDBRANCH  15  17
ENDBRANCH   1  15
TORSDOF 6
