REMARK  Name = ZINC48310460
REMARK  3 active torsions:
REMARK  status: ('A' for Active; 'I' for Inactive)
REMARK    1  A    between atoms: C_1  and  N_2
REMARK    2  A    between atoms: N_2  and  C_3
REMARK    3  A    between atoms: C_7  and  C_9
REMARK                            x       y       z     vdW  Elec       q    Type
REMARK                         _______ _______ _______ _____ _____    ______ ____
ROOT
ATOM      1  C   UNL     1      -4.152  -3.558   0.027  0.00  0.00    +0.218 C 
ATOM      2  N   UNL     1      -3.691  -4.576   0.990  0.00  0.00    -0.294 N 
ATOM      3  C   UNL     1      -2.690  -5.448   0.583  0.00  0.00    +0.159 C 
ATOM      4  N   UNL     1      -2.899  -6.115  -0.624  0.00  0.00    -0.259 N 
ATOM      5  C   UNL     1      -3.583  -5.382  -1.593  0.00  0.00    +0.205 A 
ATOM      6  N   UNL     1      -4.184  -4.181  -1.301  0.00  0.00    -0.288 N 
ATOM      7  C   UNL     1      -4.776  -3.721  -2.458  0.00  0.00    +0.076 A 
ATOM      8  C   UNL     1      -5.519  -2.593  -2.781  0.00  0.00    +0.077 A 
ATOM      9  C   UNL     1      -5.976  -2.421  -4.073  0.00  0.00    +0.164 A 
ATOM     10  C   UNL     1      -5.700  -3.370  -5.053  0.00  0.00    +0.164 A 
ATOM     11  C   UNL     1      -4.968  -4.498  -4.746  0.00  0.00    +0.079 A 
ATOM     12  C   UNL     1      -4.498  -4.685  -3.443  0.00  0.00    +0.095 A 
ATOM     13  N   UNL     1      -3.766  -5.673  -2.847  0.00  0.00    -0.214 NA
ATOM     14  O   UNL     1      -6.157  -3.179  -6.326  0.00  0.00    -0.488 OA
ATOM     15  C   UNL     1      -7.573  -3.260  -6.500  0.00  0.00    +0.232 C 
ATOM     16  C   UNL     1      -8.233  -1.927  -6.183  0.00  0.00    +0.082 C 
ATOM     17  C   UNL     1      -8.078  -1.538  -4.721  0.00  0.00    +0.232 C 
ATOM     18  O   UNL     1      -6.704  -1.311  -4.399  0.00  0.00    -0.488 OA
ATOM     19  N   UNL     1      -1.612  -5.632   1.291  0.00  0.00    -0.375 N 
ATOM     20  H   UNL     1      -4.075  -4.635   1.879  0.00  0.00    +0.151 HD
ATOM     21  H   UNL     1      -1.493  -5.154   2.127  0.00  0.00    +0.158 HD
ATOM     22  H   UNL     1      -2.592  -7.022  -0.778  0.00  0.00    +0.158 HD
ATOM     23  H   UNL     1      -0.929  -6.247   0.982  0.00  0.00    +0.158 HD
ENDROOT
BRANCH   1  30
ATOM     24  C   UNL     1      -0.018   1.461   0.010  0.00  0.00    +0.131 C 
ATOM     25  N   UNL     1       0.002  -0.004   0.002  0.00  0.00    -0.316 N 
ATOM     26  C   UNL     1       1.281  -0.719  -0.014  0.00  0.00    +0.131 C 
ATOM     27  C   UNL     1      -1.189  -0.713   0.010  0.00  0.00    +0.162 A 
ATOM     28  N   UNL     1      -2.419  -0.246   0.018  0.00  0.00    -0.213 NA
ATOM     29  C   UNL     1      -3.459  -1.062   0.024  0.00  0.00    +0.145 A 
ATOM     30  C   UNL     1      -3.198  -2.392   0.021  0.00  0.00    +0.070 A 
ATOM     31  S   UNL     1      -1.412  -2.381   0.003  0.00  0.00    -0.052 S 
ATOM     32 CL   UNL     1      -5.086  -0.457   0.036  0.00  0.00    -0.061 Cl
ENDBRANCH   1  30
TORSDOF 1
