REMARK  Name = ZINC60786592
REMARK  8 active torsions:
REMARK  status: ('A' for Active; 'I' for Inactive)
REMARK    1  A    between atoms: C_1  and  C_2
REMARK    2  A    between atoms: C_2  and  N_3
REMARK    3  A    between atoms: C_4  and  C_27
REMARK    4  A    between atoms: C_6  and  C_9
REMARK    5  A    between atoms: C_7  and  C_8
REMARK    6  A    between atoms: N_11  and  C_12
REMARK    7  A    between atoms: C_16  and  C_18
REMARK    8  A    between atoms: C_24  and  C_26
REMARK                            x       y       z     vdW  Elec       q    Type
REMARK                         _______ _______ _______ _____ _____    ______ ____
ROOT
ATOM      1  C   UNL     1       4.979  -2.183  -4.926  0.00  0.00    +0.034 A 
ATOM      2  C   UNL     1       5.975  -2.742  -4.133  0.00  0.00    +0.023 A 
ATOM      3  C   UNL     1       7.225  -3.000  -4.664  0.00  0.00    +0.002 A 
ATOM      4  C   UNL     1       7.492  -2.705  -5.986  0.00  0.00    +0.011 A 
ATOM      5  C   UNL     1       6.499  -2.143  -6.790  0.00  0.00    +0.019 A 
ATOM      6  C   UNL     1       5.236  -1.888  -6.255  0.00  0.00    +0.034 A 
ENDROOT
BRANCH   5   7
ATOM      7  C   UNL     1       6.783  -1.825  -8.205  0.00  0.00    +0.141 A 
ATOM      8  N   UNL     1       8.018  -2.090  -8.716  0.00  0.00    -0.307 N 
ATOM      9  H   UNL     1       8.704  -2.484  -8.154  0.00  0.00    +0.170 HD
ATOM     10  C   UNL     1       8.284  -1.802 -10.008  0.00  0.00    +0.252 A 
ATOM     11  O   UNL     1       9.384  -2.032 -10.483  0.00  0.00    -0.268 OA
ATOM     12  C   UNL     1       7.267  -1.231 -10.797  0.00  0.00    +0.093 A 
ATOM     13  C   UNL     1       6.050  -0.989 -10.229  0.00  0.00    +0.046 A 
ATOM     14  N   UNL     1       5.836  -1.296  -8.952  0.00  0.00    -0.234 NA
ATOM     15  C   UNL     1       4.945  -0.378 -11.052  0.00  0.00    +0.066 C 
ENDBRANCH   5   7
BRANCH   1  18
ATOM     16  C   UNL     1       3.603  -1.521  -3.102  0.00  0.00    +0.250 C 
ATOM     17  O   UNL     1       4.590  -1.464  -2.393  0.00  0.00    -0.270 OA
ATOM     18  N   UNL     1       3.716  -1.924  -4.383  0.00  0.00    -0.281 N 
ATOM     19  H   UNL     1       2.922  -2.035  -4.928  0.00  0.00    +0.155 HD
BRANCH  16  23
ATOM     20  N   UNL     1       0.685  -0.491  -1.199  0.00  0.00    -0.348 N 
ATOM     21  C   UNL     1       0.075  -0.754  -2.391  0.00  0.00    +0.017 A 
ATOM     22  C   UNL     1       1.003  -1.164  -3.273  0.00  0.00    +0.035 A 
ATOM     23  C   UNL     1       2.285  -1.151  -2.560  0.00  0.00    +0.058 A 
ATOM     24  C   UNL     1       2.009  -0.720  -1.292  0.00  0.00    +0.028 A 
ATOM     25  C   UNL     1       3.014  -0.537  -0.184  0.00  0.00    +0.064 C 
ATOM     26  C   UNL     1      -1.398  -0.608  -2.673  0.00  0.00    +0.063 C 
BRANCH  20  28
ATOM     27  C   UNL     1      -0.032   1.509   0.012  0.00  0.00    +0.027 C 
ATOM     28  C   UNL     1      -0.001  -0.021   0.007  0.00  0.00    +0.118 C 
ENDBRANCH  20  28
ENDBRANCH  16  23
ENDBRANCH   1  18
TORSDOF 4
