REMARK  Name = ZINC49957154
REMARK  5 active torsions:
REMARK  status: ('A' for Active; 'I' for Inactive)
REMARK    1  A    between atoms: C_6  and  N_19
REMARK    2  A    between atoms: C_8  and  S_10
REMARK    3  A    between atoms: S_10  and  C_11
REMARK    4  A    between atoms: C_11  and  C_12
REMARK    5  A    between atoms: C_12  and  C_13
REMARK                            x       y       z     vdW  Elec       q    Type
REMARK                         _______ _______ _______ _____ _____    ______ ____
ROOT
ATOM      1  C   UNL     1      -0.018   1.449   0.010  0.00  0.00    +0.021 A 
ATOM      2  C   UNL     1       1.143   2.120   0.003  0.00  0.00    +0.048 A 
ATOM      3  S   UNL     1       2.371   0.827  -0.016  0.00  0.00    -0.077 S 
ATOM      4  C   UNL     1       1.291  -0.580  -0.013  0.00  0.00    +0.114 A 
ATOM      5  C   UNL     1       0.002  -0.004   0.002  0.00  0.00    +0.047 A 
ATOM      6  C   UNL     1      -1.081  -0.927   0.007  0.00  0.00    +0.129 A 
ATOM      7  N   UNL     1      -0.826  -2.224  -0.003  0.00  0.00    -0.207 NA
ATOM      8  C   UNL     1       0.414  -2.700  -0.017  0.00  0.00    +0.191 A 
ATOM      9  N   UNL     1       1.462  -1.887  -0.022  0.00  0.00    -0.215 NA
ENDROOT
BRANCH   6  10
ATOM     10  N   UNL     1      -2.386  -0.471   0.022  0.00  0.00    -0.343 N 
ATOM     11  H   UNL     1      -2.568   0.481   0.030  0.00  0.00    +0.144 HD
ATOM     12  H   UNL     1      -3.121  -1.105   0.026  0.00  0.00    +0.144 HD
ENDBRANCH   6  10
BRANCH   8  13
ATOM     13  S   UNL     1       0.671  -4.443  -0.029  0.00  0.00    -0.085 S 
BRANCH  13  14
ATOM     14  C   UNL     1       2.477  -4.620  -0.048  0.00  0.00    +0.086 C 
BRANCH  14  15
ATOM     15  C   UNL     1       2.844  -6.105  -0.059  0.00  0.00    +0.107 C 
BRANCH  15  16
ATOM     16  C   UNL     1       4.343  -6.252  -0.074  0.00  0.00    +0.221 C 
ATOM     17  O   UNL     1       5.049  -5.266  -0.075  0.00  0.00    -0.275 OA
ATOM     18  N   UNL     1       4.900  -7.479  -0.086  0.00  0.00    -0.240 N 
ATOM     19  C   UNL     1       6.241  -7.611  -0.100  0.00  0.00    +0.303 C 
ATOM     20  O   UNL     1       6.949  -6.622  -0.101  0.00  0.00    -0.253 OA
ATOM     21  N   UNL     1       6.798  -8.838  -0.112  0.00  0.00    -0.313 N 
ATOM     22  H   UNL     1       4.335  -8.268  -0.086  0.00  0.00    +0.159 HD
ATOM     23  H   UNL     1       6.234  -9.627  -0.111  0.00  0.00    +0.146 HD
ATOM     24  H   UNL     1       7.763  -8.932  -0.122  0.00  0.00    +0.146 HD
ENDBRANCH  15  16
ENDBRANCH  14  15
ENDBRANCH  13  14
ENDBRANCH   8  13
TORSDOF 5
