REMARK  Name = ZINC06002218
REMARK  5 active torsions:
REMARK  status: ('A' for Active; 'I' for Inactive)
REMARK    1  A    between atoms: C_1  and  C_2
REMARK    2  A    between atoms: C_2  and  C_3
REMARK    3  A    between atoms: N_9  and  S_10
REMARK    4  A    between atoms: S_10  and  C_13
REMARK    5  A    between atoms: C_15  and  C_20
REMARK                            x       y       z     vdW  Elec       q    Type
REMARK                         _______ _______ _______ _____ _____    ______ ____
ROOT
ATOM      1  C   UNL     1      -0.865  -1.590  -1.347  0.00  0.00    +0.074 C 
ATOM      2  C   UNL     1       0.366  -2.322  -0.790  0.00  0.00    +0.043 C 
ATOM      3  C   UNL     1       1.612  -1.504  -1.135  0.00  0.00    +0.117 C 
ATOM      4  C   UNL     1       0.271   0.443  -0.588  0.00  0.00    +0.174 C 
ATOM      5  N   UNL     1      -0.904  -0.259  -0.721  0.00  0.00    -0.315 N 
ATOM      6  N   UNL     1       0.213   1.776  -0.258  0.00  0.00    -0.189 N 
ATOM      7  H   UNL     1      -1.742   0.116  -0.408  0.00  0.00    +0.149 HD
ATOM      8  H   UNL     1      -0.647   2.217  -0.168  0.00  0.00    +0.176 HD
ATOM      9  N   UNL     1       1.504  -0.048  -0.755  0.00  0.00    -0.360 N 
ATOM     10  H   UNL     1       2.338   0.538  -0.631  0.00  0.00    +0.162 HD
ENDROOT
BRANCH   6  11
ATOM     11  S   UNL     1       1.611   2.632  -0.022  0.00  0.00    +0.075 S 
ATOM     12  O   UNL     1       2.432   2.389  -1.155  0.00  0.00    -0.150 OA
ATOM     13  O   UNL     1       1.223   3.942   0.371  0.00  0.00    -0.150 OA
BRANCH  11  14
ATOM     14  C   UNL     1       2.434   1.914   1.361  0.00  0.00    +0.123 A 
ATOM     15  C   UNL     1       3.664   1.310   1.195  0.00  0.00    +0.034 A 
ATOM     16  C   UNL     1       4.314   0.750   2.280  0.00  0.00    -0.030 A 
ATOM     17  C   UNL     1       3.728   0.784   3.534  0.00  0.00    +0.045 A 
ATOM     18  C   UNL     1       2.495   1.383   3.706  0.00  0.00    +0.037 A 
ATOM     19  C   UNL     1       1.842   1.950   2.618  0.00  0.00    +0.047 A 
ATOM     20 CL   UNL     1       4.544   0.074   4.891  0.00  0.00    -0.083 Cl
ATOM     21  C   UNL     1       5.659   0.097   2.096  0.00  0.00    +0.045 C 
ATOM     22  S   UNL     1       0.269   2.714   2.832  0.00  0.00    -0.050 SA
ENDBRANCH  11  14
ENDBRANCH   6  11
BRANCH   1  24
ATOM     23  C   UNL     1      -3.347  -1.669  -1.616  0.00  0.00    +0.006 C 
ATOM     24  C   UNL     1      -2.135  -2.367  -0.996  0.00  0.00    +0.019 C 
ENDBRANCH   1  24
TORSDOF 3
