REMARK  Name = ZINC44325654
REMARK  9 active torsions:
REMARK  status: ('A' for Active; 'I' for Inactive)
REMARK    1  A    between atoms: C_1  and  C_2
REMARK    2  A    between atoms: C_8  and  C_14
REMARK    3  A    between atoms: N_12  and  C_13
REMARK    4  A    between atoms: C_14  and  CA_15
REMARK    5  A    between atoms: CA_15  and  C_17
REMARK    6  A    between atoms: CA_15  and  N_20
REMARK    7  A    between atoms: C_21  and  O_23
REMARK    8  A    between atoms: O_23  and  C_24
REMARK    9  A    between atoms: C_24  and  C_25
REMARK                            x       y       z     vdW  Elec       q    Type
REMARK                         _______ _______ _______ _____ _____    ______ ____
ROOT
ATOM      1  N   UNL     1       0.465  -6.747   0.463  0.00  0.00    -0.267 N 
ATOM      2  C   UNL     1       1.290  -7.000  -0.572  0.00  0.00    +0.401 C 
ATOM      3  O   UNL     1       2.454  -7.282  -0.366  0.00  0.00    -0.226 OA
ATOM      4  H   UNL     1      -0.464  -6.522   0.299  0.00  0.00    +0.153 HD
ENDROOT
BRANCH   1   5
ATOM      5  CA  UNL     1       0.972  -6.812   1.836  0.00  0.00    +0.193 C 
BRANCH   5   6
ATOM      6  C   UNL     1       0.914  -8.236   2.326  0.00  0.00    +0.376 C 
ATOM      7  O   UNL     1       0.327  -9.082   1.674  0.00  0.00    -0.244 OA
ATOM      8  OXT UNL     1       1.456  -8.542   3.375  0.00  0.00    -0.244 OA
ENDBRANCH   5   6
BRANCH   5   9
ATOM      9  C   UNL     1       0.111  -5.927   2.740  0.00  0.00    +0.069 C 
BRANCH   9  16
ATOM     10  C   UNL     1      -0.019   1.526   0.010  0.00  0.00    +0.028 C 
ATOM     11  C   UNL     1       0.002  -0.004   0.002  0.00  0.00    +0.070 C 
ATOM     12  C   UNL     1      -1.434  -0.543   0.033  0.00  0.00    +0.027 C 
ATOM     13  C   UNL     1      -1.390  -2.069  -0.046  0.00  0.00    +0.039 C 
ATOM     14  C   UNL     1      -0.450  -2.624   0.992  0.00  0.00    -0.026 A 
ATOM     15  C   UNL     1      -0.584  -3.947   1.378  0.00  0.00    +0.009 A 
ATOM     16  C   UNL     1       0.264  -4.486   2.326  0.00  0.00    -0.045 A 
ATOM     17  C   UNL     1       1.254  -3.706   2.895  0.00  0.00    +0.005 A 
ATOM     18  C   UNL     1       1.394  -2.386   2.517  0.00  0.00    +0.023 A 
ATOM     19  C   UNL     1       0.540  -1.841   1.564  0.00  0.00    +0.033 A 
ATOM     20  N   UNL     1       0.695  -0.499   1.200  0.00  0.00    -0.330 N 
ATOM     21  C   UNL     1       1.532   0.398   1.999  0.00  0.00    +0.129 C 
ENDBRANCH   9  16
ENDBRANCH   5   9
ENDBRANCH   1   5
BRANCH   2  22
ATOM     22  O   UNL     1       0.824  -6.941  -1.834  0.00  0.00    -0.449 OA
BRANCH  22  23
ATOM     23  C   UNL     1       1.754  -7.221  -2.882  0.00  0.00    +0.246 C 
BRANCH  23  24
ATOM     24  C   UNL     1       1.048  -7.105  -4.235  0.00  0.00    +0.088 C 
ATOM     25  C   UNL     1       0.043  -8.220  -4.393  0.00  0.00    -0.029 A 
ATOM     26  C   UNL     1      -1.078  -8.566  -3.669  0.00  0.00    +0.005 A 
ATOM     27  C   UNL     1      -1.834  -9.662  -4.045  0.00  0.00    +0.000 A 
ATOM     28  C   UNL     1      -1.468 -10.413  -5.147  0.00  0.00    +0.001 A 
ATOM     29  C   UNL     1      -0.347 -10.074  -5.878  0.00  0.00    +0.009 A 
ATOM     30  C   UNL     1       0.421  -8.970  -5.504  0.00  0.00    -0.014 A 
ATOM     31  C   UNL     1       1.651  -8.389  -6.097  0.00  0.00    -0.014 A 
ATOM     32  C   UNL     1       2.042  -7.277  -5.356  0.00  0.00    -0.029 A 
ATOM     33  C   UNL     1       3.167  -6.564  -5.714  0.00  0.00    +0.005 A 
ATOM     34  C   UNL     1       3.912  -6.951  -6.814  0.00  0.00    +0.000 A 
ATOM     35  C   UNL     1       3.531  -8.055  -7.556  0.00  0.00    +0.001 A 
ATOM     36  C   UNL     1       2.408  -8.774  -7.205  0.00  0.00    +0.009 A 
ENDBRANCH  23  24
ENDBRANCH  22  23
ENDBRANCH   2  22
TORSDOF 7
