REMARK  Name = ZINC05415205
REMARK  10 active torsions:
REMARK  status: ('A' for Active; 'I' for Inactive)
REMARK    1  A    between atoms: C_1  and  C_2
REMARK    2  A    between atoms: C_2  and  C_21
REMARK    3  A    between atoms: C_4  and  N_11
REMARK    4  A    between atoms: C_7  and  C_9
REMARK    5  A    between atoms: C_7  and  C_10
REMARK    6  A    between atoms: N_14  and  C_15
REMARK    7  A    between atoms: C_15  and  C_16
REMARK    8  A    between atoms: C_21  and  N_22
REMARK    9  A    between atoms: N_25  and  C_26
REMARK   10  A    between atoms: C_26  and  C_27
REMARK                            x       y       z     vdW  Elec       q    Type
REMARK                         _______ _______ _______ _____ _____    ______ ____
ROOT
ATOM      1  C   UNL     1      -0.019   1.526   0.010  0.00  0.00    +0.013 C 
ATOM      2  C   UNL     1       0.002  -0.004   0.002  0.00  0.00    -0.014 C 
ATOM      3  C   UNL     1      -1.402  -0.567  -0.154  0.00  0.00    +0.030 C 
ATOM      4  C   UNL     1      -2.220  -0.514   1.124  0.00  0.00    +0.075 C 
ATOM      5  C   UNL     1      -1.489  -1.152   2.292  0.00  0.00    +0.028 C 
ATOM      6  C   UNL     1      -0.081  -0.618   2.497  0.00  0.00    -0.033 C 
ATOM      7  C   UNL     1       0.728  -0.551   1.216  0.00  0.00    +0.014 C 
ATOM      8  C   UNL     1       0.646  -1.597   3.452  0.00  0.00    +0.011 C 
ATOM      9  C   UNL     1      -0.113   0.742   3.201  0.00  0.00    +0.011 C 
ENDROOT
BRANCH   4  10
ATOM     10  N   UNL     1      -2.675   0.838   1.433  0.00  0.00    -0.297 N 
ATOM     11  C   UNL     1      -3.778   1.022   2.186  0.00  0.00    +0.300 C 
ATOM     12  O   UNL     1      -4.394   0.062   2.607  0.00  0.00    -0.253 OA
ATOM     13  N   UNL     1      -4.198   2.271   2.471  0.00  0.00    -0.292 N 
ATOM     14  H   UNL     1      -2.184   1.603   1.097  0.00  0.00    +0.151 HD
ATOM     15  H   UNL     1      -3.706   3.036   2.134  0.00  0.00    +0.151 HD
BRANCH  13  16
ATOM     16  C   UNL     1      -5.396   2.471   3.289  0.00  0.00    +0.180 C 
BRANCH  16  17
ATOM     17  C   UNL     1      -5.647   3.948   3.458  0.00  0.00    +0.122 A 
ATOM     18  C   UNL     1      -6.398   4.716   2.649  0.00  0.00    +0.046 A 
ATOM     19  C   UNL     1      -6.360   6.027   3.177  0.00  0.00    +0.041 A 
ATOM     20  C   UNL     1      -5.588   5.981   4.278  0.00  0.00    +0.195 A 
ATOM     21  O   UNL     1      -5.164   4.718   4.447  0.00  0.00    -0.466 OA
ENDBRANCH  16  17
ENDBRANCH  13  16
ENDBRANCH   4  10
BRANCH   2  22
ATOM     22  C   UNL     1       0.808  -0.432  -1.250  0.00  0.00    +0.112 C 
BRANCH  22  23
ATOM     23  N   UNL     1       0.152   0.086  -2.453  0.00  0.00    -0.299 N 
ATOM     24  C   UNL     1       0.679  -0.163  -3.668  0.00  0.00    +0.300 C 
ATOM     25  O   UNL     1       1.698  -0.819  -3.766  0.00  0.00    -0.253 OA
ATOM     26  N   UNL     1       0.076   0.314  -4.775  0.00  0.00    -0.292 N 
ATOM     27  H   UNL     1      -0.661   0.610  -2.376  0.00  0.00    +0.150 HD
ATOM     28  H   UNL     1      -0.737   0.837  -4.697  0.00  0.00    +0.151 HD
BRANCH  26  29
ATOM     29  C   UNL     1       0.649   0.043  -6.096  0.00  0.00    +0.180 C 
BRANCH  29  30
ATOM     30  C   UNL     1      -0.209   0.682  -7.157  0.00  0.00    +0.122 A 
ATOM     31  C   UNL     1      -0.060   1.927  -7.644  0.00  0.00    +0.046 A 
ATOM     32  C   UNL     1      -1.073   2.111  -8.614  0.00  0.00    +0.041 A 
ATOM     33  C   UNL     1      -1.780   0.968  -8.660  0.00  0.00    +0.195 A 
ATOM     34  O   UNL     1      -1.249   0.104  -7.780  0.00  0.00    -0.466 OA
ENDBRANCH  29  30
ENDBRANCH  26  29
ENDBRANCH  22  23
ENDBRANCH   2  22
TORSDOF 7
