REMARK  Name = ZINC48826738
REMARK  12 active torsions:
REMARK  status: ('A' for Active; 'I' for Inactive)
REMARK    1  A    between atoms: C_1  and  C_2
REMARK    2  A    between atoms: C_5  and  C_28
REMARK    3  A    between atoms: C_6  and  N_8
REMARK    4  A    between atoms: C_9  and  C_11
REMARK    5  A    between atoms: N_13  and  C_14
REMARK    6  A    between atoms: C_14  and  C_15
REMARK    7  A    between atoms: C_15  and  C_17
REMARK    8  A    between atoms: C_15  and  N_25
REMARK    9  A    between atoms: C_22  and  O_23
REMARK   10  A    between atoms: O_23  and  C_24
REMARK   11  A    between atoms: N_25  and  C_26
REMARK   12  A    between atoms: N_25  and  C_27
REMARK                            x       y       z     vdW  Elec       q    Type
REMARK                         _______ _______ _______ _____ _____    ______ ____
ROOT
ATOM      1  C   UNL     1       0.387  -2.894   4.845  0.00  0.00    +0.299 C 
ATOM      2  O   UNL     1       0.331  -4.106   4.834  0.00  0.00    -0.265 OA
ATOM      3  N   UNL     1       0.472  -2.234   6.017  0.00  0.00    -0.309 N 
ATOM      4  H   UNL     1       0.517  -1.265   6.026  0.00  0.00    +0.149 HD
ENDROOT
BRANCH   1   6
ATOM      5  N   UNL     1       0.276  -2.793   2.388  0.00  0.00    -0.278 N 
ATOM      6  C   UNL     1       0.362  -2.133   3.560  0.00  0.00    +0.303 C 
ATOM      7  O   UNL     1       0.418  -0.921   3.571  0.00  0.00    -0.265 OA
ATOM      8  H   UNL     1       0.153  -3.755   2.381  0.00  0.00    +0.155 HD
BRANCH   5  14
ATOM      9  C   UNL     1       1.812   1.154  -0.105  0.00  0.00    +0.044 C 
ATOM     10  C   UNL     1       1.104  -0.175  -0.055  0.00  0.00    -0.049 A 
ATOM     11  C   UNL     1       0.541  -0.702  -1.203  0.00  0.00    +0.004 A 
ATOM     12  C   UNL     1      -0.109  -1.921  -1.162  0.00  0.00    +0.005 A 
ATOM     13  C   UNL     1      -0.199  -2.618   0.028  0.00  0.00    -0.029 A 
ATOM     14  C   UNL     1       0.365  -2.092   1.183  0.00  0.00    +0.037 A 
ATOM     15  C   UNL     1       1.023  -0.869   1.136  0.00  0.00    +0.027 A 
ATOM     16  C   UNL     1      -0.909  -3.946   0.072  0.00  0.00    +0.045 C 
ENDBRANCH   5  14
ENDBRANCH   1   6
BRANCH   3  17
ATOM     17  C   UNL     1       0.497  -2.980   7.278  0.00  0.00    +0.094 C 
BRANCH  17  18
ATOM     18  C   UNL     1       0.471  -1.999   8.451  0.00  0.00    -0.017 C 
BRANCH  18  19
ATOM     19  C   UNL     1      -0.834  -1.245   8.447  0.00  0.00    -0.018 A 
ATOM     20  C   UNL     1      -0.916  -0.009   7.834  0.00  0.00    +0.005 A 
ATOM     21  C   UNL     1      -2.113   0.683   7.829  0.00  0.00    +0.000 A 
ATOM     22  C   UNL     1      -3.230   0.141   8.438  0.00  0.00    +0.004 A 
ATOM     23  C   UNL     1      -3.153  -1.094   9.052  0.00  0.00    +0.046 A 
ATOM     24  C   UNL     1      -1.955  -1.793   9.053  0.00  0.00    +0.122 A 
BRANCH  24  25
ATOM     25  O   UNL     1      -1.878  -3.011   9.651  0.00  0.00    -0.495 OA
ATOM     26  C   UNL     1      -3.071  -3.514  10.255  0.00  0.00    +0.277 C 
ENDBRANCH  24  25
ENDBRANCH  18  19
BRANCH  18  27
ATOM     27  N   UNL     1       1.585  -1.050   8.322  0.00  0.00    +0.382 N 
ATOM     28  C   UNL     1       1.630  -0.182   9.507  0.00  0.00    -0.096 C 
ATOM     29  C   UNL     1       2.848  -1.791   8.209  0.00  0.00    -0.096 C 
ATOM     30  H   UNL     1       1.452  -0.485   7.496  0.00  0.00    -0.082 HD
ENDBRANCH  18  27
ENDBRANCH  17  18
ENDBRANCH   3  17
TORSDOF 7
