REMARK  Name = ZINC61657909
REMARK  7 active torsions:
REMARK  status: ('A' for Active; 'I' for Inactive)
REMARK    1  A    between atoms: C_1  and  C_2
REMARK    2  A    between atoms: N_5  and  C_11
REMARK    3  A    between atoms: C_7  and  C_9
REMARK    4  A    between atoms: C_7  and  C_10
REMARK    5  A    between atoms: C_11  and  C_12
REMARK    6  A    between atoms: C_17  and  C_18
REMARK    7  A    between atoms: N_19  and  O_20
REMARK                            x       y       z     vdW  Elec       q    Type
REMARK                         _______ _______ _______ _____ _____    ______ ____
ROOT
ATOM      1  C   UNL     1       0.528  -2.355  -3.631  0.00  0.00    -0.005 A 
ATOM      2  C   UNL     1       0.813  -1.445  -4.635  0.00  0.00    +0.008 A 
ATOM      3  C   UNL     1      -0.087  -1.310  -5.682  0.00  0.00    +0.020 A 
ATOM      4  C   UNL     1      -1.236  -2.082  -5.692  0.00  0.00    +0.111 A 
ATOM      5  N   UNL     1      -1.484  -2.939  -4.725  0.00  0.00    -0.252 NA
ATOM      6  C   UNL     1      -0.645  -3.103  -3.709  0.00  0.00    +0.111 A 
ENDROOT
BRANCH   6   7
ATOM      7  C   UNL     1      -0.962  -4.085  -2.646  0.00  0.00    +0.181 C 
ATOM      8  N   UNL     1      -0.207  -4.168  -1.591  0.00  0.00    -0.070 NA
ATOM      9  N   UNL     1      -2.062  -4.916  -2.776  0.00  0.00    -0.339 N 
ATOM     10  H   UNL     1      -2.626  -4.855  -3.564  0.00  0.00    +0.144 HD
ATOM     11  H   UNL     1      -2.270  -5.559  -2.080  0.00  0.00    +0.144 HD
BRANCH   8  12
ATOM     12  O   UNL     1      -0.558  -5.044  -0.535  0.00  0.00    -0.408 OA
ATOM     13  H   UNL     1       0.063  -5.036   0.205  0.00  0.00    +0.328 HD
ENDBRANCH   8  12
ENDBRANCH   6   7
BRANCH   1  14
ATOM     14  C   UNL     1       1.475  -2.538  -2.474  0.00  0.00    +0.122 C 
BRANCH  14  18
ATOM     15  C   UNL     1       0.452   1.761  -0.306  0.00  0.00    +0.039 C 
ATOM     16  C   UNL     1       0.339   0.239  -0.196  0.00  0.00    +0.130 C 
ATOM     17  C   UNL     1       0.971  -0.411  -1.430  0.00  0.00    +0.116 C 
ATOM     18  N   UNL     1       0.928  -1.873  -1.283  0.00  0.00    -0.293 NA
ATOM     19  C   UNL     1       1.641  -2.296  -0.069  0.00  0.00    +0.119 C 
ATOM     20  C   UNL     1       1.002  -1.627   1.151  0.00  0.00    +0.077 C 
ATOM     21  O   UNL     1       1.023  -0.208   0.977  0.00  0.00    -0.368 OA
ATOM     22  C   UNL     1       1.788  -2.000   2.409  0.00  0.00    +0.042 C 
ATOM     23  C   UNL     1      -0.446  -2.102   1.293  0.00  0.00    +0.042 C 
ENDBRANCH  14  18
ENDBRANCH   1  14
TORSDOF 4
