REMARK  Name = ZINC07283092
REMARK  7 active torsions:
REMARK  status: ('A' for Active; 'I' for Inactive)
REMARK    1  A    between atoms: C_1  and  C_2
REMARK    2  A    between atoms: C_4  and  C_9
REMARK    3  A    between atoms: C_5  and  C_8
REMARK    4  A    between atoms: N_10  and  N_11
REMARK    5  A    between atoms: C_15  and  S_16
REMARK    6  A    between atoms: S_16  and  C_17
REMARK    7  A    between atoms: C_17  and  C_18
REMARK                            x       y       z     vdW  Elec       q    Type
REMARK                         _______ _______ _______ _____ _____    ______ ____
ROOT
ATOM      1  N   UNL     1       1.244  -5.499  -2.405  0.00  0.00    -0.194 N 
ATOM      2  C   UNL     1       1.271  -6.684  -1.720  0.00  0.00    +0.249 A 
ATOM      3  N   UNL     1       1.279  -6.397  -0.448  0.00  0.00    -0.135 NA
ATOM      4  N   UNL     1       1.264  -5.123  -0.282  0.00  0.00    -0.121 NA
ATOM      5  C   UNL     1       1.246  -4.520  -1.449  0.00  0.00    +0.212 A 
ENDROOT
BRANCH   1   7
ATOM      6  C   UNL     1       1.224  -6.359  -4.579  0.00  0.00    +0.143 C 
ATOM      7  N   UNL     1       1.222  -5.324  -3.795  0.00  0.00    -0.171 NA
BRANCH   6  11
ATOM      8  C   UNL     1       1.164  -7.290  -9.597  0.00  0.00    +0.063 C 
ATOM      9  C   UNL     1       1.175  -6.607  -8.253  0.00  0.00    +0.014 A 
ATOM     10  C   UNL     1       1.199  -7.229  -7.060  0.00  0.00    +0.032 A 
ATOM     11  C   UNL     1       1.201  -6.176  -6.041  0.00  0.00    +0.015 A 
ATOM     12  C   UNL     1       1.172  -4.989  -6.718  0.00  0.00    +0.022 A 
ATOM     13  N   UNL     1       1.163  -5.259  -8.048  0.00  0.00    -0.362 N 
ATOM     14  H   UNL     1       1.145  -4.591  -8.751  0.00  0.00    +0.165 HD
ATOM     15  C   UNL     1       1.157  -3.617  -6.095  0.00  0.00    +0.064 C 
ENDBRANCH   6  11
ENDBRANCH   1   7
BRANCH   5  16
ATOM     16  S   UNL     1       1.220  -2.781  -1.730  0.00  0.00    -0.080 S 
BRANCH  16  17
ATOM     17  C   UNL     1       1.228  -2.186  -0.020  0.00  0.00    +0.112 C 
BRANCH  17  18
ATOM     18  C   UNL     1       1.208  -0.679  -0.013  0.00  0.00    -0.037 A 
ATOM     19  C   UNL     1       0.002  -0.004   0.002  0.00  0.00    +0.006 A 
ATOM     20  C   UNL     1      -0.017   1.378   0.010  0.00  0.00    +0.020 A 
ATOM     21  C   UNL     1       1.172   2.086   0.002  0.00  0.00    +0.041 A 
ATOM     22  C   UNL     1       2.379   1.409  -0.013  0.00  0.00    +0.020 A 
ATOM     23  C   UNL     1       2.397   0.027  -0.021  0.00  0.00    +0.006 A 
ATOM     24 CL   UNL     1       1.149   3.821   0.011  0.00  0.00    -0.084 Cl
ENDBRANCH  17  18
ENDBRANCH  16  17
ENDBRANCH   5  16
TORSDOF 5
