REMARK  Name = ZINC58161925
REMARK  11 active torsions:
REMARK  status: ('A' for Active; 'I' for Inactive)
REMARK    1  A    between atoms: C_1  and  C_2
REMARK    2  A    between atoms: C_5  and  N_15
REMARK    3  A    between atoms: C_6  and  O_8
REMARK    4  A    between atoms: O_8  and  C_9
REMARK    5  A    between atoms: C_9  and  C_10
REMARK    6  A    between atoms: N_12  and  C_13
REMARK    7  A    between atoms: N_12  and  C_14
REMARK    8  A    between atoms: N_15  and  C_16
REMARK    9  A    between atoms: C_16  and  C_18
REMARK   10  A    between atoms: C_16  and  C_19
REMARK   11  A    between atoms: N_24  and  C_25
REMARK                            x       y       z     vdW  Elec       q    Type
REMARK                         _______ _______ _______ _____ _____    ______ ____
ROOT
ATOM      1  C   UNL     1      -0.018   1.503   0.010  0.00  0.00    +0.044 C 
ATOM      2  C   UNL     1       0.002  -0.004   0.002  0.00  0.00    -0.047 A 
ATOM      3  C   UNL     1       0.006  -0.687  -1.200  0.00  0.00    +0.005 A 
ATOM      4  C   UNL     1       0.024  -2.069  -1.214  0.00  0.00    +0.027 A 
ATOM      5  C   UNL     1       0.039  -2.774  -0.019  0.00  0.00    +0.070 A 
ATOM      6  C   UNL     1       0.036  -2.085   1.192  0.00  0.00    +0.142 A 
ATOM      7  C   UNL     1       0.023  -0.700   1.197  0.00  0.00    +0.051 A 
ENDROOT
BRANCH   5   8
ATOM      8  N   UNL     1       0.057  -4.173  -0.030  0.00  0.00    -0.330 N 
ATOM      9  H   UNL     1       0.068  -4.665   0.806  0.00  0.00    +0.147 HD
BRANCH   8  10
ATOM     10  C   UNL     1       0.060  -4.896  -1.305  0.00  0.00    +0.154 C 
ATOM     11  C   UNL     1       1.496  -5.019  -1.818  0.00  0.00    +0.038 C 
BRANCH  10  12
ATOM     12  C   UNL     1      -0.522  -6.271  -1.104  0.00  0.00    +0.240 C 
ATOM     13  O   UNL     1      -0.901  -6.614  -0.005  0.00  0.00    -0.273 OA
ATOM     14  N   UNL     1      -0.620  -7.120  -2.146  0.00  0.00    -0.239 N 
ATOM     15  C   UNL     1      -1.140  -8.350  -1.966  0.00  0.00    +0.306 C 
ATOM     16  O   UNL     1      -1.521  -8.694  -0.864  0.00  0.00    -0.252 OA
ATOM     17  N   UNL     1      -1.239  -9.199  -3.008  0.00  0.00    -0.302 N 
ATOM     18  C   UNL     1      -1.804 -10.537  -2.813  0.00  0.00    +0.129 C 
ATOM     19  H   UNL     1      -0.317  -6.846  -3.025  0.00  0.00    +0.159 HD
ATOM     20  H   UNL     1      -0.935  -8.925  -3.888  0.00  0.00    +0.150 HD
ENDBRANCH  10  12
ENDBRANCH   8  10
ENDBRANCH   5   8
BRANCH   6  21
ATOM     21  O   UNL     1       0.050  -2.771   2.366  0.00  0.00    -0.481 OA
BRANCH  21  22
ATOM     22  C   UNL     1       0.046  -1.998   3.569  0.00  0.00    +0.324 C 
BRANCH  22  23
ATOM     23  C   UNL     1       0.064  -2.922   4.759  0.00  0.00    +0.253 C 
ATOM     24  O   UNL     1       0.078  -4.124   4.594  0.00  0.00    -0.272 OA
ATOM     25  N   UNL     1       0.063  -2.413   6.007  0.00  0.00    -0.305 N 
ATOM     26  C   UNL     1       0.080  -3.312   7.164  0.00  0.00    +0.131 C 
ATOM     27  C   UNL     1       0.045  -0.962   6.206  0.00  0.00    +0.131 C 
ENDBRANCH  22  23
ENDBRANCH  21  22
ENDBRANCH   6  21
TORSDOF 6
