REMARK  Name = ZINC12716018
REMARK  8 active torsions:
REMARK  status: ('A' for Active; 'I' for Inactive)
REMARK    1  A    between atoms: C_1  and  C_2
REMARK    2  A    between atoms: C_2  and  C_3
REMARK    3  A    between atoms: C_2  and  C_4
REMARK    4  A    between atoms: C_2  and  C_5
REMARK    5  A    between atoms: C_5  and  N_6
REMARK    6  A    between atoms: C_12  and  C_14
REMARK    7  A    between atoms: C_14  and  C_15
REMARK    8  A    between atoms: N_17  and  C_18
REMARK                            x       y       z     vdW  Elec       q    Type
REMARK                         _______ _______ _______ _____ _____    ______ ____
ROOT
ATOM      1  N   UNL     1       1.705  -0.166  -1.024  0.00  0.00    +0.389 N 
ATOM      2  C   UNL     1       2.361  -0.762   0.150  0.00  0.00    -0.059 C 
ATOM      3  C   UNL     1       3.767  -0.173   0.282  0.00  0.00    +0.085 C 
ATOM      4  N   UNL     1       4.472  -0.282  -0.993  0.00  0.00    -0.318 N 
ATOM      5  C   UNL     1       3.838  -0.499  -2.151  0.00  0.00    +0.200 C 
ATOM      6  O   UNL     1       4.493  -0.554  -3.171  0.00  0.00    -0.278 OA
ATOM      7  C   UNL     1       2.349  -0.680  -2.240  0.00  0.00    +0.028 C 
ATOM      8  H   UNL     1       5.438  -0.192  -1.000  0.00  0.00    +0.149 HD
ATOM      9  H   UNL     1       1.797   0.838  -0.992  0.00  0.00    -0.081 HD
ENDROOT
BRANCH   1  10
ATOM     10  C   UNL     1       0.282  -0.530  -1.031  0.00  0.00    -0.072 C 
BRANCH  10  12
ATOM     11  C   UNL     1      -0.435   1.853  -0.807  0.00  0.00    +0.009 C 
ATOM     12  C   UNL     1      -0.502   0.463  -0.171  0.00  0.00    -0.052 C 
ATOM     13  C   UNL     1       0.106   0.514   1.232  0.00  0.00    +0.009 C 
ATOM     14  C   UNL     1      -1.962   0.015  -0.078  0.00  0.00    +0.009 C 
ENDBRANCH  10  12
ENDBRANCH   1  10
BRANCH   7  15
ATOM     15  C   UNL     1       1.818   0.081  -3.456  0.00  0.00    +0.089 C 
BRANCH  15  16
ATOM     16  C   UNL     1       2.184   1.538  -3.336  0.00  0.00    +0.212 C 
ATOM     17  O   UNL     1       2.908   1.910  -2.437  0.00  0.00    -0.276 OA
ATOM     18  N   UNL     1       1.708   2.428  -4.230  0.00  0.00    -0.312 N 
ATOM     19  H   UNL     1       1.130   2.131  -4.949  0.00  0.00    +0.149 HD
BRANCH  18  20
ATOM     20  C   UNL     1       2.064   3.844  -4.114  0.00  0.00    +0.082 C 
ATOM     21  C   UNL     1       1.016   4.607  -3.276  0.00  0.00    +0.058 C 
ATOM     22  C   UNL     1       0.924   5.978  -3.910  0.00  0.00    -0.042 A 
ATOM     23  C   UNL     1       0.403   7.162  -3.415  0.00  0.00    +0.004 A 
ATOM     24  C   UNL     1       0.428   8.308  -4.185  0.00  0.00    +0.000 A 
ATOM     25  C   UNL     1       0.976   8.275  -5.454  0.00  0.00    +0.000 A 
ATOM     26  C   UNL     1       1.496   7.095  -5.949  0.00  0.00    +0.004 A 
ATOM     27  C   UNL     1       1.472   5.945  -5.178  0.00  0.00    -0.042 A 
ATOM     28  C   UNL     1       1.969   4.548  -5.484  0.00  0.00    +0.058 C 
ENDBRANCH  18  20
ENDBRANCH  15  16
ENDBRANCH   7  15
TORSDOF 5
