REMARK  Name = ZINC65306233
REMARK  6 active torsions:
REMARK  status: ('A' for Active; 'I' for Inactive)
REMARK    1  A    between atoms: C_1  and  C_2
REMARK    2  A    between atoms: C_2  and  C_3
REMARK    3  A    between atoms: C_3  and  C_5
REMARK    4  A    between atoms: C_3  and  N_6
REMARK    5  A    between atoms: C_7  and  C_9
REMARK    6  A    between atoms: C_10  and  C_22
REMARK                            x       y       z     vdW  Elec       q    Type
REMARK                         _______ _______ _______ _____ _____    ______ ____
ROOT
ATOM      1  C   UNL     1      -0.122   0.346   4.826  0.00  0.00    +0.098 A 
ATOM      2  C   UNL     1       0.326   0.540   6.125  0.00  0.00    +0.060 A 
ATOM      3  N   UNL     1      -0.580   0.876   7.008  0.00  0.00    -0.229 NA
ATOM      4  C   UNL     1      -1.850   1.021   6.673  0.00  0.00    +0.164 A 
ATOM      5  S   UNL     1      -1.863   0.689   5.024  0.00  0.00    -0.047 S 
ATOM      6  N   UNL     1      -2.913   1.368   7.483  0.00  0.00    -0.279 N 
ATOM      7  C   UNL     1      -2.725   1.509   8.856  0.00  0.00    +0.124 A 
ATOM      8  C   UNL     1      -3.819   1.752   9.679  0.00  0.00    +0.045 A 
ATOM      9  C   UNL     1      -3.619   1.890  11.041  0.00  0.00    +0.025 A 
ATOM     10  C   UNL     1      -2.325   1.781  11.535  0.00  0.00    +0.059 A 
ATOM     11  C   UNL     1      -1.284   1.540  10.659  0.00  0.00    +0.132 A 
ATOM     12  N   UNL     1      -1.507   1.407   9.365  0.00  0.00    -0.239 NA
ATOM     13 CL   UNL     1      -2.018   1.948  13.236  0.00  0.00    -0.082 Cl
ATOM     14  C   UNL     1       1.776   0.373   6.499  0.00  0.00    +0.067 C 
ATOM     15  H   UNL     1      -3.790   1.513   7.096  0.00  0.00    +0.155 HD
ENDROOT
BRANCH   1  17
ATOM     16  N   UNL     1      -0.013  -0.159   2.447  0.00  0.00    -0.308 N 
ATOM     17  C   UNL     1       0.626  -0.029   3.626  0.00  0.00    +0.253 C 
ATOM     18  O   UNL     1       1.826  -0.223   3.693  0.00  0.00    -0.270 OA
ATOM     19  H   UNL     1      -0.969  -0.005   2.394  0.00  0.00    +0.149 HD
BRANCH  16  20
ATOM     20  C   UNL     1       0.736  -0.535   1.245  0.00  0.00    +0.070 C 
ATOM     21  C   UNL     1       0.863  -2.058   1.178  0.00  0.00    +0.028 C 
BRANCH  20  23
ATOM     22  C   UNL     1      -0.020   1.500   0.009  0.00  0.00    +0.005 C 
ATOM     23  C   UNL     1      -0.003  -0.029   0.005  0.00  0.00    +0.018 C 
ENDBRANCH  20  23
ENDBRANCH  16  20
ENDBRANCH   1  17
TORSDOF 3
