REMARK  Name = ZINC42755836
REMARK  2 active torsions:
REMARK  status: ('A' for Active; 'I' for Inactive)
REMARK    1  A    between atoms: N_9  and  N_10
REMARK    2  A    between atoms: C_11  and  C_13
REMARK                            x       y       z     vdW  Elec       q    Type
REMARK                         _______ _______ _______ _____ _____    ______ ____
ROOT
ATOM      1  C   UNL     1      -0.016   1.316   0.009  0.00  0.00    +0.120 A 
ATOM      2  C   UNL     1       1.183   1.949   0.001  0.00  0.00    +0.068 A 
ATOM      3  S   UNL     1       2.296   0.553  -0.017  0.00  0.00    -0.060 S 
ATOM      4  C   UNL     1       1.137  -0.668  -0.012  0.00  0.00    +0.166 A 
ATOM      5  N   UNL     1       0.002  -0.004   0.002  0.00  0.00    -0.233 NA
ATOM      6  N   UNL     1       1.333  -2.045  -0.022  0.00  0.00    -0.247 N 
ATOM      7  C   UNL     1       0.272  -2.876  -0.016  0.00  0.00    +0.322 C 
ATOM      8  O   UNL     1      -0.856  -2.422  -0.003  0.00  0.00    -0.251 OA
ATOM      9  N   UNL     1       0.462  -4.210  -0.025  0.00  0.00    -0.218 N 
ATOM     10  H   UNL     1       2.233  -2.406  -0.032  0.00  0.00    +0.158 HD
ATOM     11  H   UNL     1      -0.302  -4.809  -0.021  0.00  0.00    +0.174 HD
ENDROOT
BRANCH   9  12
ATOM     12  N   UNL     1       1.761  -4.733  -0.040  0.00  0.00    -0.228 N 
ATOM     13  C   UNL     1       1.951  -6.067  -0.049  0.00  0.00    +0.276 C 
ATOM     14  O   UNL     1       0.993  -6.818  -0.044  0.00  0.00    -0.267 OA
ATOM     15  H   UNL     1       2.525  -4.135  -0.044  0.00  0.00    +0.173 HD
BRANCH  13  16
ATOM     16  C   UNL     1       3.312  -6.615  -0.065  0.00  0.00    +0.104 A 
ATOM     17  C   UNL     1       3.652  -7.951  -0.082  0.00  0.00    +0.047 A 
ATOM     18  C   UNL     1       5.049  -8.019  -0.093  0.00  0.00    +0.036 A 
ATOM     19  C   UNL     1       5.527  -6.750  -0.083  0.00  0.00    +0.098 A 
ATOM     20  N   UNL     1       4.481  -5.888  -0.072  0.00  0.00    -0.356 N 
ATOM     21  H   UNL     1       4.545  -4.920  -0.068  0.00  0.00    +0.166 HD
ATOM     22 BR   UNL     1       6.087  -9.599  -0.116  0.00  0.00    -0.049 Br
ENDBRANCH  13  16
ENDBRANCH   9  12
TORSDOF 2
