REMARK  Name = ZINC14459731
REMARK  10 active torsions:
REMARK  status: ('A' for Active; 'I' for Inactive)
REMARK    1  A    between atoms: C_1  and  C_2
REMARK    2  A    between atoms: C_2  and  C_3
REMARK    3  A    between atoms: C_2  and  C_4
REMARK    4  A    between atoms: C_2  and  N_5
REMARK    5  A    between atoms: N_5  and  S_6
REMARK    6  A    between atoms: S_6  and  C_9
REMARK    7  A    between atoms: C_22  and  C_25
REMARK    8  A    between atoms: C_29  and  O_32
REMARK    9  A    between atoms: C_30  and  O_31
REMARK   10  A    between atoms: O_32  and  C_33
REMARK                            x       y       z     vdW  Elec       q    Type
REMARK                         _______ _______ _______ _____ _____    ______ ____
ROOT
ATOM      1  C   UNL     1      -4.387   9.425   0.963  0.00  0.00    +0.106 A 
ATOM      2  C   UNL     1      -4.470   9.544  -0.413  0.00  0.00    +0.030 A 
ATOM      3  C   UNL     1      -3.564   8.877  -1.213  0.00  0.00    +0.025 A 
ATOM      4  C   UNL     1      -2.575   8.091  -0.636  0.00  0.00    +0.031 A 
ATOM      5  C   UNL     1      -2.487   7.969   0.742  0.00  0.00    -0.018 A 
ATOM      6  C   UNL     1      -3.404   8.644   1.536  0.00  0.00    +0.034 A 
ATOM      7  C   UNL     1      -1.438   7.137   1.407  0.00  0.00    +0.049 C 
ATOM      8  C   UNL     1      -2.011   5.843   1.934  0.00  0.00    -0.023 C 
ATOM      9  C   UNL     1      -1.142   4.872   1.796  0.00  0.00    -0.030 C 
ATOM     10  C   UNL     1       0.135   5.388   1.161  0.00  0.00    +0.033 C 
ATOM     11  C   UNL     1      -0.322   6.691   0.442  0.00  0.00    +0.029 C 
ATOM     12  C   UNL     1      -0.929   6.280  -0.903  0.00  0.00    +0.109 C 
ATOM     13  N   UNL     1      -1.665   7.420  -1.461  0.00  0.00    -0.336 N 
ATOM     14  H   UNL     1      -1.525   7.701  -2.378  0.00  0.00    +0.147 HD
ENDROOT
BRANCH  12  15
ATOM     15  C   UNL     1       0.171   5.878  -1.851  0.00  0.00    +0.018 A 
ATOM     16  C   UNL     1       0.302   4.556  -2.237  0.00  0.00    +0.009 A 
ATOM     17  C   UNL     1       1.310   4.184  -3.107  0.00  0.00    +0.004 A 
ATOM     18  C   UNL     1       2.192   5.130  -3.594  0.00  0.00    +0.049 A 
ATOM     19  C   UNL     1       2.067   6.456  -3.211  0.00  0.00    +0.162 A 
ATOM     20  C   UNL     1       1.055   6.830  -2.331  0.00  0.00    +0.163 A 
BRANCH  20  21
ATOM     21  O   UNL     1       0.932   8.129  -1.948  0.00  0.00    -0.503 OA
ATOM     22  H   UNL     1       0.362   8.657  -2.524  0.00  0.00    +0.292 HD
ENDBRANCH  20  21
BRANCH  19  23
ATOM     23  O   UNL     1       2.933   7.388  -3.689  0.00  0.00    -0.491 OA
ATOM     24  C   UNL     1       3.950   6.931  -4.584  0.00  0.00    +0.277 C 
ENDBRANCH  19  23
ENDBRANCH  12  15
BRANCH   1  25
ATOM     25  S   UNL     1      -5.542  10.274   1.988  0.00  0.00    +0.059 S 
ATOM     26  O   UNL     1      -6.620  10.665   1.149  0.00  0.00    -0.153 OA
ATOM     27  O   UNL     1      -5.729   9.468   3.143  0.00  0.00    -0.153 OA
BRANCH  25  28
ATOM     28  N   UNL     1      -4.810  11.669   2.498  0.00  0.00    -0.185 NA
ATOM     29  H   UNL     1      -4.593  11.789   3.436  0.00  0.00    +0.149 HD
BRANCH  28  31
ATOM     30  C   UNL     1      -5.783  13.382   1.049  0.00  0.00    +0.029 C 
ATOM     31  C   UNL     1      -4.489  12.724   1.533  0.00  0.00    +0.032 C 
ATOM     32  C   UNL     1      -3.602  13.775   2.202  0.00  0.00    +0.029 C 
ATOM     33  C   UNL     1      -3.749  12.116   0.340  0.00  0.00    +0.029 C 
ENDBRANCH  28  31
ENDBRANCH  25  28
ENDBRANCH   1  25
TORSDOF 6
