REMARK  Name = ZINC56796321
REMARK  8 active torsions:
REMARK  status: ('A' for Active; 'I' for Inactive)
REMARK    1  A    between atoms: C_1  and  N_2
REMARK    2  A    between atoms: N_2  and  C_3
REMARK    3  A    between atoms: C_3  and  C_4
REMARK    4  A    between atoms: C_8  and  C_10
REMARK    5  A    between atoms: N_15  and  C_16
REMARK    6  A    between atoms: C_16  and  C_17
REMARK    7  A    between atoms: C_17  and  C_19
REMARK    8  A    between atoms: C_17  and  N_24
REMARK                            x       y       z     vdW  Elec       q    Type
REMARK                         _______ _______ _______ _____ _____    ______ ____
ROOT
ATOM      1  C   UNL     1       0.182   1.429   0.007  0.00  0.00    +0.134 C 
ATOM      2  N   UNL     1      -0.081  -0.012   0.004  0.00  0.00    -0.284 N 
ATOM      3  C   UNL     1      -0.204  -0.672  -1.165  0.00  0.00    +0.302 C 
ATOM      4  O   UNL     1      -0.423  -1.868  -1.168  0.00  0.00    -0.253 OA
ATOM      5  N   UNL     1      -0.084  -0.006  -2.331  0.00  0.00    -0.300 N 
ATOM      6  H   UNL     1       0.090   0.948  -2.328  0.00  0.00    +0.150 HD
ENDROOT
BRANCH   2   7
ATOM      7  C   UNL     1      -0.211  -0.736   1.271  0.00  0.00    +0.144 C 
BRANCH   7   8
ATOM      8  C   UNL     1      -1.654  -0.729   1.708  0.00  0.00    -0.029 A 
ATOM      9  C   UNL     1      -2.128   0.298   2.505  0.00  0.00    +0.005 A 
ATOM     10  C   UNL     1      -3.451   0.312   2.910  0.00  0.00    +0.001 A 
ATOM     11  C   UNL     1      -4.306  -0.698   2.521  0.00  0.00    +0.013 A 
ATOM     12  C   UNL     1      -3.834  -1.737   1.717  0.00  0.00    +0.037 A 
ATOM     13  C   UNL     1      -2.499  -1.742   1.307  0.00  0.00    +0.018 A 
BRANCH  12  14
ATOM     14  C   UNL     1      -4.744  -2.823   1.296  0.00  0.00    +0.242 C 
ATOM     15  O   UNL     1      -4.330  -3.726   0.596  0.00  0.00    -0.270 OA
ATOM     16  N   UNL     1      -6.033  -2.812   1.690  0.00  0.00    -0.325 N 
ATOM     17  H   UNL     1      -6.363  -2.092   2.249  0.00  0.00    +0.145 HD
ATOM     18  H   UNL     1      -6.630  -3.525   1.414  0.00  0.00    +0.145 HD
ENDBRANCH  12  14
ENDBRANCH   7   8
ENDBRANCH   2   7
BRANCH   5  19
ATOM     19  C   UNL     1      -0.218  -0.723  -3.601  0.00  0.00    +0.095 C 
BRANCH  19  20
ATOM     20  C   UNL     1      -0.173   0.277  -4.758  0.00  0.00    -0.013 C 
BRANCH  20  21
ATOM     21  N   UNL     1      -0.175  -0.451  -6.035  0.00  0.00    +0.386 N 
ATOM     22  C   UNL     1      -0.111   0.505  -7.169  0.00  0.00    -0.078 C 
ATOM     23  C   UNL     1       0.438  -0.360  -8.332  0.00  0.00    -0.020 C 
ATOM     24  C   UNL     1       1.462  -1.278  -7.626  0.00  0.00    -0.020 C 
ATOM     25  C   UNL     1       1.038  -1.290  -6.145  0.00  0.00    -0.078 C 
ATOM     26  H   UNL     1      -1.002  -1.024  -6.107  0.00  0.00    -0.081 HD
ENDBRANCH  20  21
BRANCH  20  27
ATOM     27  C   UNL     1      -1.379   1.177  -4.691  0.00  0.00    -0.022 A 
ATOM     28  C   UNL     1      -1.475   2.442  -4.213  0.00  0.00    +0.009 A 
ATOM     29  C   UNL     1      -2.699   3.083  -4.254  0.00  0.00    +0.008 A 
ATOM     30  C   UNL     1      -3.767   2.428  -4.771  0.00  0.00    +0.045 A 
ATOM     31  S   UNL     1      -3.051   0.858  -5.229  0.00  0.00    -0.103 S 
ENDBRANCH  20  27
ENDBRANCH  19  20
ENDBRANCH   5  19
TORSDOF 7
