REMARK  Name = ZINC01820105
REMARK  13 active torsions:
REMARK  status: ('A' for Active; 'I' for Inactive)
REMARK    1  A    between atoms: C_1  and  C_2
REMARK    2  A    between atoms: C_2  and  O_3
REMARK    3  A    between atoms: O_3  and  C_4
REMARK    4  A    between atoms: C_4  and  C_6
REMARK    5  A    between atoms: C_12  and  C_13
REMARK    6  A    between atoms: C_16  and  O_19
REMARK    7  A    between atoms: C_21  and  N_37
REMARK    8  A    between atoms: C_22  and  C_32
REMARK    9  A    between atoms: C_23  and  C_25
REMARK   10  A    between atoms: C_28  and  O_31
REMARK   11  A    between atoms: C_32  and  O_34
REMARK   12  A    between atoms: O_34  and  C_35
REMARK   13  A    between atoms: C_35  and  C_36
REMARK                            x       y       z     vdW  Elec       q    Type
REMARK                         _______ _______ _______ _____ _____    ______ ____
ROOT
ATOM      1  C   UNL     1       3.024   3.168   1.394  0.00  0.00    +0.079 C 
ATOM      2  C   UNL     1       2.148   2.140   1.163  0.00  0.00    +0.100 A 
ATOM      3  N   UNL     1       2.530   0.840   0.901  0.00  0.00    -0.257 N 
ATOM      4  C   UNL     1       1.555  -0.068   0.693  0.00  0.00    +0.271 A 
ATOM      5  O   UNL     1       1.827  -1.231   0.458  0.00  0.00    -0.266 OA
ATOM      6  C   UNL     1       0.159   0.378   0.758  0.00  0.00    +0.079 A 
ATOM      7  C   UNL     1      -0.983  -0.336   0.587  0.00  0.00    +0.028 C 
ATOM      8  S   UNL     1       0.367   2.113   1.122  0.00  0.00    -0.065 S 
ATOM      9  C   UNL     1       3.891   0.525   0.863  0.00  0.00    +0.115 C 
ATOM     10  C   UNL     1       4.880   1.426   1.069  0.00  0.00    +0.087 C 
ATOM     11  C   UNL     1       4.509   2.866   1.361  0.00  0.00    +0.099 C 
ENDROOT
BRANCH   7  12
ATOM     12  C   UNL     1      -2.285   0.286   0.856  0.00  0.00    -0.024 A 
ATOM     13  C   UNL     1      -2.362   1.444   1.639  0.00  0.00    +0.011 A 
ATOM     14  C   UNL     1      -3.585   2.027   1.883  0.00  0.00    +0.046 A 
ATOM     15  C   UNL     1      -4.744   1.461   1.363  0.00  0.00    +0.117 A 
ATOM     16  C   UNL     1      -4.674   0.308   0.589  0.00  0.00    +0.046 A 
ATOM     17  C   UNL     1      -3.455  -0.279   0.334  0.00  0.00    +0.011 A 
BRANCH  15  18
ATOM     18  O   UNL     1      -5.948   2.037   1.611  0.00  0.00    -0.507 OA
ATOM     19  H   UNL     1      -6.383   1.710   2.411  0.00  0.00    +0.292 HD
ENDBRANCH  15  18
ENDBRANCH   7  12
BRANCH  11  20
ATOM     20  C   UNL     1       5.144   3.738   0.309  0.00  0.00    -0.035 A 
ATOM     21  C   UNL     1       4.832   3.551  -1.025  0.00  0.00    +0.008 A 
ATOM     22  C   UNL     1       5.409   4.353  -1.990  0.00  0.00    +0.046 A 
ATOM     23  C   UNL     1       6.311   5.340  -1.621  0.00  0.00    +0.117 A 
ATOM     24  C   UNL     1       6.628   5.522  -0.283  0.00  0.00    +0.046 A 
ATOM     25  C   UNL     1       6.044   4.721   0.679  0.00  0.00    +0.008 A 
BRANCH  23  26
ATOM     26  O   UNL     1       6.884   6.127  -2.570  0.00  0.00    -0.507 OA
ATOM     27  H   UNL     1       7.714   5.777  -2.922  0.00  0.00    +0.292 HD
ENDBRANCH  23  26
ENDBRANCH  11  20
BRANCH   9  28
ATOM     28  N   UNL     1       4.245  -0.773   0.602  0.00  0.00    -0.344 N 
ATOM     29  H   UNL     1       3.773  -1.276  -0.080  0.00  0.00    +0.144 HD
ATOM     30  H   UNL     1       4.967  -1.188   1.098  0.00  0.00    +0.144 HD
ENDBRANCH   9  28
BRANCH   1  31
ATOM     31  C   UNL     1       2.559   4.465   1.653  0.00  0.00    +0.339 C 
ATOM     32  O   UNL     1       1.361   4.689   1.675  0.00  0.00    -0.245 OA
BRANCH  31  33
ATOM     33  O   UNL     1       3.438   5.465   1.877  0.00  0.00    -0.462 OA
BRANCH  33  35
ATOM     34  C   UNL     1       4.034   7.756   2.363  0.00  0.00    +0.048 C 
ATOM     35  C   UNL     1       2.894   6.761   2.135  0.00  0.00    +0.229 C 
ENDBRANCH  33  35
ENDBRANCH  31  33
ENDBRANCH   1  31
BRANCH  10  36
ATOM     36  C   UNL     1       6.225   1.033   1.015  0.00  0.00    +0.339 C 
ATOM     37  O   UNL     1       6.515  -0.108   0.700  0.00  0.00    -0.245 OA
BRANCH  36  38
ATOM     38  O   UNL     1       7.200   1.919   1.313  0.00  0.00    -0.462 OA
BRANCH  38  39
ATOM     39  C   UNL     1       8.548   1.450   1.237  0.00  0.00    +0.229 C 
ATOM     40  C   UNL     1       9.505   2.586   1.606  0.00  0.00    +0.048 C 
ENDBRANCH  38  39
ENDBRANCH  36  38
ENDBRANCH  10  36
TORSDOF 11
