REMARK  Name = ZINC60042856
REMARK  7 active torsions:
REMARK  status: ('A' for Active; 'I' for Inactive)
REMARK    1  A    between atoms: N_9  and  C_11
REMARK    2  A    between atoms: C_11  and  C_12
REMARK    3  A    between atoms: C_12  and  C_14
REMARK    4  A    between atoms: C_12  and  O_28
REMARK    5  A    between atoms: C_14  and  N_15
REMARK    6  A    between atoms: C_23  and  C_24
REMARK    7  A    between atoms: C_24  and  C_25
REMARK                            x       y       z     vdW  Elec       q    Type
REMARK                         _______ _______ _______ _____ _____    ______ ____
ROOT
ATOM      1  C   UNL     1       7.270  -2.822   0.894  0.00  0.00    +0.153 C 
ENDROOT
BRANCH   1   2
ATOM      2  N   UNL     1       8.290  -2.164   1.715  0.00  0.00    -0.325 N 
ATOM      3  C   UNL     1       9.041  -1.063   1.358  0.00  0.00    +0.069 A 
ATOM      4  C   UNL     1       9.106  -0.261   0.227  0.00  0.00    +0.028 A 
ATOM      5  C   UNL     1       9.992   0.794   0.187  0.00  0.00    +0.002 A 
ATOM      6  C   UNL     1      10.819   1.059   1.269  0.00  0.00    +0.002 A 
ATOM      7  C   UNL     1      10.769   0.281   2.391  0.00  0.00    +0.030 A 
ATOM      8  C   UNL     1       9.878  -0.793   2.454  0.00  0.00    +0.089 A 
ATOM      9  N   UNL     1       9.601  -1.725   3.402  0.00  0.00    -0.232 NA
ATOM     10  C   UNL     1       8.667  -2.523   2.972  0.00  0.00    +0.120 A 
BRANCH  10  11
ATOM     11  C   UNL     1       8.091  -3.677   3.750  0.00  0.00    +0.169 C 
BRANCH  11  12
ATOM     12  C   UNL     1       8.891  -4.923   3.466  0.00  0.00    +0.218 C 
ATOM     13  O   UNL     1       9.835  -4.877   2.707  0.00  0.00    -0.276 OA
ATOM     14  N   UNL     1       8.556  -6.087   4.057  0.00  0.00    -0.329 N 
ATOM     15  H   UNL     1       7.801  -6.124   4.664  0.00  0.00    +0.145 HD
ATOM     16  H   UNL     1       9.071  -6.889   3.874  0.00  0.00    +0.145 HD
ENDBRANCH  11  12
ENDBRANCH  10  11
ENDBRANCH   1   2
BRANCH   1  17
ATOM     17  C   UNL     1       5.908  -2.179   1.160  0.00  0.00    +0.118 C 
BRANCH  17  18
ATOM     18  O   UNL     1       5.521  -2.425   2.513  0.00  0.00    -0.392 OA
ATOM     19  H   UNL     1       5.441  -3.363   2.735  0.00  0.00    +0.210 HD
ENDBRANCH  17  18
BRANCH  17  20
ATOM     20  C   UNL     1       4.866  -2.780   0.214  0.00  0.00    -0.045 C 
BRANCH  20  29
ATOM     21  C   UNL     1      -0.017   1.376   0.010  0.00  0.00    +0.000 A 
ATOM     22  C   UNL     1       1.173   2.080   0.002  0.00  0.00    +0.000 A 
ATOM     23  C   UNL     1       2.375   1.401  -0.015  0.00  0.00    +0.002 A 
ATOM     24  C   UNL     1       2.395   0.014  -0.023  0.00  0.00    -0.061 A 
ATOM     25  C   UNL     1       1.208  -0.687  -0.013  0.00  0.00    -0.048 A 
ATOM     26  C   UNL     1       0.002  -0.004   0.002  0.00  0.00    +0.004 A 
ATOM     27  C   UNL     1       1.186  -2.194  -0.014  0.00  0.00    +0.017 C 
ATOM     28  C   UNL     1       2.554  -2.732  -0.434  0.00  0.00    -0.074 C 
ATOM     29  N   UNL     1       3.587  -2.079   0.386  0.00  0.00    +0.384 N 
ATOM     30  C   UNL     1       3.728  -0.686  -0.046  0.00  0.00    -0.043 C 
ATOM     31  H   UNL     1       3.313  -2.106   1.357  0.00  0.00    -0.081 HD
ENDBRANCH  20  29
ENDBRANCH  17  20
ENDBRANCH   1  17
TORSDOF 7
