REMARK  Name = ZINC38936194
REMARK  7 active torsions:
REMARK  status: ('A' for Active; 'I' for Inactive)
REMARK    1  A    between atoms: C_1  and  O_2
REMARK    2  A    between atoms: O_2  and  C_3
REMARK    3  A    between atoms: C_5  and  C_10
REMARK    4  A    between atoms: C_8  and  O_9
REMARK    5  A    between atoms: N_11  and  N_12
REMARK    6  A    between atoms: C_13  and  C_15
REMARK    7  A    between atoms: C_18  and  C_20
REMARK                            x       y       z     vdW  Elec       q    Type
REMARK                         _______ _______ _______ _____ _____    ______ ____
ROOT
ATOM      1  N   UNL     1       3.544   0.537  -6.245  0.00  0.00    -0.202 N 
ATOM      2  C   UNL     1       4.141  -0.066  -7.292  0.00  0.00    +0.280 C 
ATOM      3  O   UNL     1       4.182  -1.281  -7.351  0.00  0.00    -0.267 OA
ATOM      4  H   UNL     1       3.511   1.505  -6.197  0.00  0.00    +0.178 HD
ENDROOT
BRANCH   2   5
ATOM      5  C   UNL     1       4.743   0.744  -8.361  0.00  0.00    +0.132 C 
ATOM      6  N   UNL     1       4.789   2.045  -8.445  0.00  0.00    -0.149 NA
ATOM      7  N   UNL     1       5.377   2.484  -9.488  0.00  0.00    -0.157 NA
ATOM      8  C   UNL     1       5.825   1.561 -10.283  0.00  0.00    +0.053 C 
ATOM      9  C   UNL     1       5.455   0.250  -9.610  0.00  0.00    +0.116 C 
BRANCH   8  10
ATOM     10  C   UNL     1       6.559   1.750 -11.586  0.00  0.00    +0.012 C 
ATOM     11  C   UNL     1       5.763   1.097 -12.718  0.00  0.00    +0.016 C 
ATOM     12  C   UNL     1       6.507   1.288 -14.041  0.00  0.00    -0.010 C 
ATOM     13  C   UNL     1       6.666   2.783 -14.326  0.00  0.00    +0.007 C 
ATOM     14  C   UNL     1       7.462   3.436 -13.194  0.00  0.00    -0.010 C 
ATOM     15  C   UNL     1       6.718   3.244 -11.871  0.00  0.00    +0.016 C 
ATOM     16  C   UNL     1       8.843   2.784 -13.101  0.00  0.00    +0.007 C 
ATOM     17  C   UNL     1       8.684   1.289 -12.816  0.00  0.00    -0.010 C 
ATOM     18  C   UNL     1       7.888   0.637 -13.948  0.00  0.00    +0.007 C 
ATOM     19  C   UNL     1       7.940   1.098 -11.493  0.00  0.00    +0.016 C 
ENDBRANCH   8  10
ENDBRANCH   2   5
BRANCH   1  21
ATOM     20  C   UNL     1       2.394   0.347  -4.217  0.00  0.00    +0.138 C 
ATOM     21  N   UNL     1       2.970  -0.234  -5.226  0.00  0.00    -0.187 NA
BRANCH  20  24
ATOM     22  C   UNL     1       0.606  -0.608  -1.056  0.00  0.00    +0.162 A 
ATOM     23  C   UNL     1       1.171   0.159  -2.059  0.00  0.00    +0.058 A 
ATOM     24  C   UNL     1       1.791  -0.465  -3.145  0.00  0.00    -0.002 A 
ATOM     25  C   UNL     1       1.837  -1.860  -3.212  0.00  0.00    +0.013 A 
ATOM     26  C   UNL     1       1.271  -2.618  -2.208  0.00  0.00    +0.050 A 
ATOM     27  C   UNL     1       0.661  -1.998  -1.127  0.00  0.00    +0.158 A 
BRANCH  22  29
ATOM     28  C   UNL     1      -0.017   1.425   0.010  0.00  0.00    +0.277 C 
ATOM     29  O   UNL     1       0.002  -0.004   0.002  0.00  0.00    -0.491 OA
ENDBRANCH  22  29
BRANCH  27  30
ATOM     30  O   UNL     1       0.110  -2.749  -0.138  0.00  0.00    -0.503 OA
ATOM     31  H   UNL     1      -0.819  -2.975  -0.285  0.00  0.00    +0.292 HD
ENDBRANCH  27  30
ENDBRANCH  20  24
ENDBRANCH   1  21
TORSDOF 6
