REMARK  Name = ZINC47966437
REMARK  5 active torsions:
REMARK  status: ('A' for Active; 'I' for Inactive)
REMARK    1  A    between atoms: C_8  and  C_12
REMARK    2  A    between atoms: C_12  and  N_13
REMARK    3  A    between atoms: C_14  and  C_16
REMARK    4  A    between atoms: N_18  and  C_19
REMARK    5  A    between atoms: C_20  and  C_24
REMARK                            x       y       z     vdW  Elec       q    Type
REMARK                         _______ _______ _______ _____ _____    ______ ____
ROOT
ATOM      1  N   UNL     1       3.899  -4.767   0.598  0.00  0.00    -0.307 N 
ATOM      2  C   UNL     1       4.189  -6.074   0.444  0.00  0.00    +0.299 C 
ATOM      3  O   UNL     1       3.403  -6.808  -0.119  0.00  0.00    -0.265 OA
ATOM      4  H   UNL     1       4.527  -4.181   1.048  0.00  0.00    +0.149 HD
ENDROOT
BRANCH   2   5
ATOM      5  C   UNL     1       5.476  -6.620   0.967  0.00  0.00    +0.304 C 
ATOM      6  O   UNL     1       6.263  -5.886   1.530  0.00  0.00    -0.265 OA
ATOM      7  N   UNL     1       5.766  -7.927   0.813  0.00  0.00    -0.272 N 
ATOM      8  H   UNL     1       5.138  -8.513   0.363  0.00  0.00    +0.156 HD
BRANCH   7   9
ATOM      9  C   UNL     1       6.960  -8.433   1.297  0.00  0.00    +0.084 A 
ATOM     10  C   UNL     1       7.425  -9.739   1.225  0.00  0.00    +0.065 A 
ATOM     11  C   UNL     1       8.717  -9.998   1.817  0.00  0.00    +0.022 A 
ATOM     12  C   UNL     1       9.330  -8.937   2.376  0.00  0.00    +0.048 A 
ATOM     13  S   UNL     1       8.181  -7.607   2.099  0.00  0.00    -0.081 S 
BRANCH  10  14
ATOM     14  C   UNL     1       6.645 -10.801   0.582  0.00  0.00    +0.244 C 
ATOM     15  O   UNL     1       5.559 -10.548   0.094  0.00  0.00    -0.270 OA
ATOM     16  N   UNL     1       7.130 -12.057   0.532  0.00  0.00    -0.325 N 
ATOM     17  H   UNL     1       7.995 -12.259   0.921  0.00  0.00    +0.145 HD
ATOM     18  H   UNL     1       6.614 -12.760   0.107  0.00  0.00    +0.145 HD
ENDBRANCH  10  14
ENDBRANCH   7   9
ENDBRANCH   2   5
BRANCH   1  19
ATOM     19  C   UNL     1       2.635  -4.231   0.086  0.00  0.00    +0.111 C 
BRANCH  19  27
ATOM     20  C   UNL     1      -0.017   1.377   0.010  0.00  0.00    +0.000 A 
ATOM     21  C   UNL     1       1.172   2.084   0.002  0.00  0.00    +0.004 A 
ATOM     22  C   UNL     1       2.375   1.409  -0.011  0.00  0.00    +0.046 A 
ATOM     23  C   UNL     1       2.398   0.018  -0.018  0.00  0.00    +0.124 A 
ATOM     24  C   UNL     1       1.207  -0.687  -0.014  0.00  0.00    -0.005 A 
ATOM     25  C   UNL     1       0.002  -0.004   0.002  0.00  0.00    +0.007 A 
ATOM     26  C   UNL     1       1.187  -2.194  -0.033  0.00  0.00    +0.047 C 
ATOM     27  C   UNL     1       2.556  -2.734   0.389  0.00  0.00    +0.048 C 
ATOM     28  C   UNL     1       3.634  -1.986  -0.407  0.00  0.00    +0.234 C 
ATOM     29  O   UNL     1       3.602  -0.610  -0.025  0.00  0.00    -0.491 OA
ENDBRANCH  19  27
ENDBRANCH   1  19
TORSDOF 5
