REMARK  Name = ZINC20710140
REMARK  7 active torsions:
REMARK  status: ('A' for Active; 'I' for Inactive)
REMARK    1  A    between atoms: C_1  and  C_2
REMARK    2  A    between atoms: C_2  and  C_3
REMARK    3  A    between atoms: C_2  and  C_4
REMARK    4  A    between atoms: N_6  and  C_7
REMARK    5  A    between atoms: C_20  and  C_23
REMARK    6  A    between atoms: C_25  and  N_30
REMARK    7  A    between atoms: C_28  and  O_29
REMARK                            x       y       z     vdW  Elec       q    Type
REMARK                         _______ _______ _______ _____ _____    ______ ____
ROOT
ATOM      1  C   UNL     1       0.060   5.078   0.064  0.00  0.00    +0.034 A 
ATOM      2  C   UNL     1      -0.642   3.880   0.029  0.00  0.00    +0.025 A 
ATOM      3  C   UNL     1       0.044   2.685   0.088  0.00  0.00    +0.025 A 
ATOM      4  C   UNL     1       1.431   2.680   0.169  0.00  0.00    +0.031 A 
ATOM      5  C   UNL     1       2.140   3.871   0.197  0.00  0.00    -0.018 A 
ATOM      6  C   UNL     1       1.443   5.071   0.145  0.00  0.00    +0.029 A 
ATOM      7  C   UNL     1       3.632   3.912   0.281  0.00  0.00    +0.049 C 
ATOM      8  C   UNL     1       4.097   4.307   1.663  0.00  0.00    -0.023 C 
ATOM      9  C   UNL     1       5.189   3.654   1.977  0.00  0.00    -0.030 C 
ATOM     10  C   UNL     1       5.605   2.737   0.843  0.00  0.00    +0.033 C 
ATOM     11  C   UNL     1       4.288   2.539   0.037  0.00  0.00    +0.029 C 
ATOM     12  C   UNL     1       3.483   1.443   0.741  0.00  0.00    +0.108 C 
ATOM     13  N   UNL     1       2.110   1.456   0.224  0.00  0.00    -0.336 N 
ATOM     14  H   UNL     1       1.639   0.519  -0.108  0.00  0.00    +0.147 HD
ENDROOT
BRANCH  12  15
ATOM     15  C   UNL     1       3.466   1.704   2.225  0.00  0.00    +0.017 A 
ATOM     16  C   UNL     1       2.532   2.568   2.765  0.00  0.00    +0.041 A 
ATOM     17  C   UNL     1       2.512   2.804   4.127  0.00  0.00    +0.127 A 
ATOM     18  C   UNL     1       3.434   2.184   4.951  0.00  0.00    +0.036 A 
ATOM     19  C   UNL     1       4.372   1.324   4.416  0.00  0.00    +0.048 A 
ATOM     20  C   UNL     1       4.391   1.081   3.050  0.00  0.00    +0.122 A 
BRANCH  17  21
ATOM     21  N   UNL     1       1.508   3.725   4.703  0.00  0.00    +0.056 N 
ATOM     22  O   UNL     1       1.493   3.938   5.902  0.00  0.00    -0.126 OA
ATOM     23  O   UNL     1       0.696   4.271   3.977  0.00  0.00    -0.126 OA
ENDBRANCH  17  21
BRANCH  20  24
ATOM     24  O   UNL     1       5.313   0.235   2.521  0.00  0.00    -0.506 OA
ATOM     25  H   UNL     1       6.046  -0.258   3.176  0.00  0.00    +0.292 HD
ENDBRANCH  20  24
ENDBRANCH  12  15
BRANCH   1  28
ATOM     26  C   UNL     1      -1.831   6.416   0.612  0.00  0.00    +0.220 C 
ATOM     27  O   UNL     1      -2.350   5.449   1.130  0.00  0.00    -0.275 OA
ATOM     28  N   UNL     1      -0.631   6.296   0.011  0.00  0.00    -0.285 N 
ATOM     29  H   UNL     1      -0.194   7.154  -0.521  0.00  0.00    +0.155 HD
BRANCH  26  31
ATOM     30  C   UNL     1      -2.784   8.225  -0.791  0.00  0.00    +0.017 C 
ATOM     31  C   UNL     1      -2.529   7.751   0.641  0.00  0.00    +0.069 C 
ATOM     32  C   UNL     1      -3.863   7.614   1.378  0.00  0.00    +0.017 C 
ENDBRANCH  26  31
ENDBRANCH   1  28
TORSDOF 5
