REMARK  Name = ZINC39533345
REMARK  13 active torsions:
REMARK  status: ('A' for Active; 'I' for Inactive)
REMARK    1  A    between atoms: C_1  and  C_2
REMARK    2  A    between atoms: C_2  and  O_3
REMARK    3  A    between atoms: O_3  and  N_4
REMARK    4  A    between atoms: N_4  and  C_5
REMARK    5  A    between atoms: C_5  and  C_6
REMARK    6  A    between atoms: C_6  and  C_8
REMARK    7  A    between atoms: C_6  and  N_18
REMARK    8  A    between atoms: C_11  and  C_14
REMARK    9  A    between atoms: C_14  and  C_15
REMARK   10  A    between atoms: C_15  and  C_16
REMARK   11  A    between atoms: C_15  and  C_17
REMARK   12  A    between atoms: C_22  and  C_25
REMARK   13  A    between atoms: C_30  and  O_31
REMARK                            x       y       z     vdW  Elec       q    Type
REMARK                         _______ _______ _______ _____ _____    ______ ____
ROOT
ATOM      1  C   UNL     1       1.506  -3.849  -2.589  0.00  0.00    +0.103 C 
ENDROOT
BRANCH   1   2
ATOM      2  N   UNL     1       0.086  -4.215  -2.504  0.00  0.00    -0.297 NA
ATOM      3  C   UNL     1      -0.760  -3.201  -3.149  0.00  0.00    +0.066 C 
ATOM      4  C   UNL     1      -2.222  -3.648  -3.091  0.00  0.00    -0.066 C 
ATOM      5  N   UNL     1      -2.624  -3.826  -1.689  0.00  0.00    +0.385 N 
ATOM      6  C   UNL     1      -1.787  -4.859  -1.065  0.00  0.00    -0.023 C 
ATOM      7  C   UNL     1      -0.321  -4.422  -1.107  0.00  0.00    +0.074 C 
ATOM      8  H   UNL     1      -2.509  -2.955  -1.194  0.00  0.00    -0.085 HD
ATOM      9  H   UNL     1      -3.592  -4.109  -1.651  0.00  0.00    -0.085 HD
BRANCH   6  10
ATOM     10  C   UNL     1      -2.213  -5.053   0.367  0.00  0.00    -0.019 A 
ATOM     11  C   UNL     1      -2.939  -4.069   1.012  0.00  0.00    +0.005 A 
ATOM     12  C   UNL     1      -3.330  -4.246   2.326  0.00  0.00    +0.000 A 
ATOM     13  C   UNL     1      -2.996  -5.407   2.999  0.00  0.00    +0.004 A 
ATOM     14  C   UNL     1      -2.271  -6.394   2.359  0.00  0.00    +0.045 A 
ATOM     15  C   UNL     1      -1.882  -6.221   1.038  0.00  0.00    +0.118 A 
BRANCH  15  16
ATOM     16  O   UNL     1      -1.174  -7.192   0.405  0.00  0.00    -0.507 OA
ATOM     17  H   UNL     1      -0.215  -7.102   0.495  0.00  0.00    +0.292 HD
ENDBRANCH  15  16
ENDBRANCH   6  10
ENDBRANCH   1   2
BRANCH   1  18
ATOM     18  C   UNL     1       2.110  -4.464  -3.826  0.00  0.00    -0.029 A 
ATOM     19  C   UNL     1       1.353  -4.589  -4.976  0.00  0.00    +0.005 A 
ATOM     20  C   UNL     1       1.906  -5.153  -6.110  0.00  0.00    +0.004 A 
ATOM     21  C   UNL     1       3.217  -5.591  -6.094  0.00  0.00    -0.047 A 
ATOM     22  C   UNL     1       3.974  -5.465  -4.945  0.00  0.00    +0.004 A 
ATOM     23  C   UNL     1       3.422  -4.897  -3.812  0.00  0.00    +0.005 A 
BRANCH  21  24
ATOM     24  C   UNL     1       3.820  -6.207  -7.330  0.00  0.00    +0.038 C 
BRANCH  24  25
ATOM     25  C   UNL     1       4.466  -5.112  -8.182  0.00  0.00    -0.013 C 
ATOM     26  C   UNL     1       5.185  -5.750  -9.373  0.00  0.00    +0.007 C 
ATOM     27  C   UNL     1       3.383  -4.158  -8.692  0.00  0.00    +0.007 C 
ENDBRANCH  24  25
ENDBRANCH  21  24
ENDBRANCH   1  18
BRANCH   1  28
ATOM     28  C   UNL     1       1.636  -2.326  -2.661  0.00  0.00    +0.134 C 
BRANCH  28  29
ATOM     29  N   UNL     1       1.018  -1.725  -1.472  0.00  0.00    -0.199 NA
ATOM     30  H   UNL     1       1.423  -2.097  -0.626  0.00  0.00    +0.154 HD
BRANCH  29  31
ATOM     31  O   UNL     1       1.123  -0.266  -1.507  0.00  0.00    -0.300 OA
BRANCH  31  33
ATOM     32  C   UNL     1       0.709   1.900  -0.518  0.00  0.00    +0.036 C 
ATOM     33  C   UNL     1       0.540   0.386  -0.377  0.00  0.00    +0.182 C 
ENDBRANCH  31  33
ENDBRANCH  29  31
ENDBRANCH  28  29
ENDBRANCH   1  28
TORSDOF 10
