REMARK  Name = ZINC35422610
REMARK  8 active torsions:
REMARK  status: ('A' for Active; 'I' for Inactive)
REMARK    1  A    between atoms: C_1  and  C_2
REMARK    2  A    between atoms: C_2  and  C_3
REMARK    3  A    between atoms: C_3  and  C_4
REMARK    4  A    between atoms: N_6  and  C_7
REMARK    5  A    between atoms: C_10  and  N_16
REMARK    6  A    between atoms: C_12  and  C_13
REMARK    7  A    between atoms: C_19  and  C_22
REMARK    8  A    between atoms: C_19  and  N_25
REMARK                            x       y       z     vdW  Elec       q    Type
REMARK                         _______ _______ _______ _____ _____    ______ ____
ROOT
ATOM      1  N   UNL     1       2.040  -8.162   2.198  0.00  0.00    -0.330 N 
ATOM      2  C   UNL     1       2.461  -8.891   3.402  0.00  0.00    +0.104 C 
ATOM      3  C   UNL     1       3.576  -9.869   3.022  0.00  0.00    +0.016 C 
ATOM      4  C   UNL     1       3.094 -10.767   1.880  0.00  0.00    +0.015 C 
ATOM      5  C   UNL     1       2.767  -9.908   0.656  0.00  0.00    +0.016 C 
ATOM      6  C   UNL     1       1.637  -8.930   1.012  0.00  0.00    +0.104 C 
ENDROOT
BRANCH   4   7
ATOM      7  N   UNL     1       4.150 -11.729   1.534  0.00  0.00    +0.389 N 
ATOM      8  C   UNL     1       4.388 -12.622   2.674  0.00  0.00    -0.077 C 
ATOM      9  C   UNL     1       5.541 -13.573   2.350  0.00  0.00    -0.019 C 
ATOM     10  C   UNL     1       5.179 -14.404   1.115  0.00  0.00    -0.004 C 
ATOM     11  C   UNL     1       4.861 -13.459  -0.048  0.00  0.00    -0.019 C 
ATOM     12  C   UNL     1       3.732 -12.512   0.366  0.00  0.00    -0.077 C 
ATOM     13  H   UNL     1       5.000 -11.230   1.318  0.00  0.00    -0.080 HD
ENDBRANCH   4   7
BRANCH   1  17
ATOM     14  C   UNL     1       1.982  -3.982   2.175  0.00  0.00    +0.048 A 
ATOM     15  C   UNL     1       2.490  -4.670   3.269  0.00  0.00    +0.026 A 
ATOM     16  C   UNL     1       2.507  -6.049   3.273  0.00  0.00    +0.025 A 
ATOM     17  C   UNL     1       2.017  -6.763   2.183  0.00  0.00    +0.031 A 
ATOM     18  C   UNL     1       1.508  -6.093   1.085  0.00  0.00    +0.040 A 
ATOM     19  C   UNL     1       1.481  -4.695   1.074  0.00  0.00    +0.086 A 
BRANCH  14  22
ATOM     20  C   UNL     1       1.942  -1.912   3.337  0.00  0.00    +0.217 C 
ATOM     21  O   UNL     1       1.827  -2.513   4.384  0.00  0.00    -0.275 OA
ATOM     22  N   UNL     1       1.966  -2.589   2.171  0.00  0.00    -0.285 N 
ATOM     23  H   UNL     1       1.972  -2.106   1.330  0.00  0.00    +0.155 HD
BRANCH  20  24
ATOM     24  C   UNL     1       2.056  -0.410   3.338  0.00  0.00    +0.096 C 
BRANCH  24  26
ATOM     25  C   UNL     1       2.118   1.630   4.780  0.00  0.00    +0.004 C 
ATOM     26  C   UNL     1       2.002   0.104   4.779  0.00  0.00    +0.006 C 
ENDBRANCH  24  26
ENDBRANCH  20  24
ENDBRANCH  14  22
BRANCH  19  27
ATOM     27  C   UNL     1       0.936  -3.974  -0.088  0.00  0.00    +0.388 C 
ATOM     28  O   UNL     1       0.591  -4.594  -1.085  0.00  0.00    -0.241 OA
ATOM     29  O   UNL     1       0.827  -2.756  -0.056  0.00  0.00    -0.241 OA
ENDBRANCH  19  27
ENDBRANCH   1  17
BRANCH   4  30
ATOM     30  C   UNL     1       1.859 -11.512   2.315  0.00  0.00    +0.200 C 
ATOM     31  O   UNL     1       1.652 -11.707   3.494  0.00  0.00    -0.278 OA
ATOM     32  N   UNL     1       0.985 -11.963   1.393  0.00  0.00    -0.330 N 
ATOM     33  H   UNL     1       1.185 -11.872   0.449  0.00  0.00    +0.145 HD
ATOM     34  H   UNL     1       0.154 -12.378   1.675  0.00  0.00    +0.145 HD
ENDBRANCH   4  30
TORSDOF 7
