REMARK  Name = ZINC64348803
REMARK  8 active torsions:
REMARK  status: ('A' for Active; 'I' for Inactive)
REMARK    1  A    between atoms: C_1  and  O_2
REMARK    2  A    between atoms: O_2  and  C_3
REMARK    3  A    between atoms: C_6  and  N_9
REMARK    4  A    between atoms: C_10  and  C_12
REMARK    5  A    between atoms: C_12  and  C_14
REMARK    6  A    between atoms: C_12  and  N_24
REMARK    7  A    between atoms: C_14  and  C_15
REMARK    8  A    between atoms: C_25  and  C_27
REMARK                            x       y       z     vdW  Elec       q    Type
REMARK                         _______ _______ _______ _____ _____    ______ ____
ROOT
ATOM      1  C   UNL     1       3.363  -4.458  -5.442  0.00  0.00    +0.163 C 
ENDROOT
BRANCH   1   3
ATOM      2  N   UNL     1       2.458  -2.458  -4.302  0.00  0.00    -0.284 N 
ATOM      3  C   UNL     1       2.596  -3.798  -4.325  0.00  0.00    +0.238 C 
ATOM      4  O   UNL     1       2.102  -4.474  -3.447  0.00  0.00    -0.273 OA
ATOM      5  H   UNL     1       2.786  -1.924  -5.042  0.00  0.00    +0.155 HD
BRANCH   2   9
ATOM      6  C   UNL     1       0.623  -0.606  -1.048  0.00  0.00    +0.120 A 
ATOM      7  C   UNL     1       1.376  -1.755  -0.857  0.00  0.00    +0.047 A 
ATOM      8  C   UNL     1       1.984  -2.369  -1.935  0.00  0.00    +0.027 A 
ATOM      9  C   UNL     1       1.841  -1.835  -3.209  0.00  0.00    +0.034 A 
ATOM     10  C   UNL     1       1.087  -0.685  -3.399  0.00  0.00    +0.027 A 
ATOM     11  C   UNL     1       0.475  -0.075  -2.321  0.00  0.00    +0.047 A 
BRANCH   6  13
ATOM     12  C   UNL     1       0.219  -0.601   1.296  0.00  0.00    +0.277 C 
ATOM     13  O   UNL     1       0.024  -0.001   0.013  0.00  0.00    -0.495 OA
ENDBRANCH   6  13
ENDBRANCH   2   9
ENDBRANCH   1   3
BRANCH   1  14
ATOM     14  N   UNL     1       3.368  -5.909  -5.240  0.00  0.00    -0.302 N 
ATOM     15  C   UNL     1       4.356  -6.659  -5.767  0.00  0.00    +0.231 C 
ATOM     16  O   UNL     1       5.241  -6.133  -6.408  0.00  0.00    -0.274 OA
ATOM     17  H   UNL     1       2.661  -6.330  -4.727  0.00  0.00    +0.150 HD
BRANCH  15  18
ATOM     18  C   UNL     1       4.362  -8.152  -5.559  0.00  0.00    +0.145 C 
ATOM     19  C   UNL     1       4.921  -8.475  -4.174  0.00  0.00    +0.063 C 
ATOM     20  C   UNL     1       5.157  -9.959  -4.048  0.00  0.00    -0.041 A 
ATOM     21  C   UNL     1       5.317 -10.498  -2.781  0.00  0.00    +0.004 A 
ATOM     22  C   UNL     1       5.539 -11.851  -2.621  0.00  0.00    +0.000 A 
ATOM     23  C   UNL     1       5.603 -12.673  -3.731  0.00  0.00    +0.000 A 
ATOM     24  C   UNL     1       5.441 -12.137  -4.993  0.00  0.00    +0.005 A 
ATOM     25  C   UNL     1       5.216 -10.778  -5.155  0.00  0.00    -0.030 A 
ATOM     26  C   UNL     1       5.036 -10.242  -6.551  0.00  0.00    +0.117 C 
ATOM     27  N   UNL     1       5.217  -8.788  -6.574  0.00  0.00    -0.301 NA
ATOM     28  H   UNL     1       5.030  -8.413  -7.492  0.00  0.00    +0.123 HD
ENDBRANCH  15  18
ENDBRANCH   1  14
BRANCH   1  29
ATOM     29  C   UNL     1       2.697  -4.131  -6.780  0.00  0.00    +0.065 C 
BRANCH  29  30
ATOM     30  C   UNL     1       3.532  -4.687  -7.905  0.00  0.00    -0.039 C 
ATOM     31  C   UNL     1       3.367  -5.875  -8.530  0.00  0.00    -0.001 A 
ATOM     32  C   UNL     1       2.399  -6.965  -8.355  0.00  0.00    +0.010 A 
ATOM     33  C   UNL     1       2.489  -8.056  -9.149  0.00  0.00    +0.001 A 
ATOM     34  C   UNL     1       3.482  -8.173 -10.132  0.00  0.00    +0.002 A 
ATOM     35  C   UNL     1       4.406  -7.214 -10.351  0.00  0.00    +0.026 A 
ATOM     36  C   UNL     1       4.405  -6.023  -9.575  0.00  0.00    +0.043 A 
ATOM     37  N   UNL     1       5.182  -4.967  -9.595  0.00  0.00    -0.380 N 
ATOM     38  C   UNL     1       4.720  -4.027  -8.568  0.00  0.00    +0.144 C 
ATOM     39  H   UNL     1       5.934  -4.829 -10.192  0.00  0.00    +0.160 HD
ENDBRANCH  29  30
ENDBRANCH   1  29
TORSDOF 7
