REMARK  Name = ZINC14047201
REMARK  5 active torsions:
REMARK  status: ('A' for Active; 'I' for Inactive)
REMARK    1  A    between atoms: C_1  and  C_2
REMARK    2  A    between atoms: C_2  and  C_3
REMARK    3  A    between atoms: C_2  and  N_4
REMARK    4  A    between atoms: C_8  and  S_10
REMARK    5  A    between atoms: S_10  and  C_11
REMARK                            x       y       z     vdW  Elec       q    Type
REMARK                         _______ _______ _______ _____ _____    ______ ____
ROOT
ATOM      1  N   UNL     1       0.194   7.617  -4.113  0.00  0.00    -0.320 N 
ATOM      2  C   UNL     1       0.369   6.285  -3.755  0.00  0.00    +0.183 A 
ATOM      3  N   UNL     1       1.482   5.636  -3.472  0.00  0.00    -0.125 NA
ATOM      4  N   UNL     1       1.430   4.303  -3.136  0.00  0.00    -0.133 NA
ATOM      5  C   UNL     1       0.268   3.680  -3.099  0.00  0.00    +0.161 A 
ATOM      6  S   UNL     1      -0.850   4.995  -3.561  0.00  0.00    -0.025 S 
ATOM      7  H   UNL     1      -0.697   7.957  -4.293  0.00  0.00    +0.148 HD
ENDROOT
BRANCH   1   9
ATOM      8  C   UNL     1       1.030   9.653  -5.179  0.00  0.00    +0.027 C 
ATOM      9  C   UNL     1       1.353   8.506  -4.219  0.00  0.00    +0.066 C 
ATOM     10  C   UNL     1       1.687   9.075  -2.839  0.00  0.00    +0.027 C 
ENDBRANCH   1   9
BRANCH   5  11
ATOM     11  S   UNL     1      -0.086   1.999  -2.708  0.00  0.00    -0.084 S 
BRANCH  11  12
ATOM     12  C   UNL     1       1.540   1.279  -2.352  0.00  0.00    +0.139 C 
ATOM     13  C   UNL     1       1.396  -0.226  -2.114  0.00  0.00    +0.024 C 
ATOM     14  C   UNL     1       0.083  -0.536  -1.417  0.00  0.00    +0.003 C 
ATOM     15  C   UNL     1       0.002  -0.004   0.002  0.00  0.00    +0.019 C 
ATOM     16  C   UNL     1      -0.019   1.526   0.010  0.00  0.00    +0.104 C 
ATOM     17  N   UNL     1       1.369   2.016  -0.000  0.00  0.00    -0.314 N 
ATOM     18  C   UNL     1       2.114   1.911  -1.101  0.00  0.00    +0.226 C 
ATOM     19  O   UNL     1       3.255   2.322  -1.101  0.00  0.00    -0.275 OA
ATOM     20  H   UNL     1       1.744   2.417   0.799  0.00  0.00    +0.149 HD
ENDBRANCH  11  12
ENDBRANCH   5  11
TORSDOF 3
