REMARK  Name = ZINC39656095
REMARK  9 active torsions:
REMARK  status: ('A' for Active; 'I' for Inactive)
REMARK    1  A    between atoms: C_1  and  C_2
REMARK    2  A    between atoms: C_8  and  C_11
REMARK    3  A    between atoms: C_11  and  C_12
REMARK    4  A    between atoms: C_12  and  N_13
REMARK    5  A    between atoms: C_14  and  C_16
REMARK    6  A    between atoms: C_27  and  C_29
REMARK    7  A    between atoms: C_30  and  C_41
REMARK    8  A    between atoms: C_33  and  C_35
REMARK    9  A    between atoms: C_37  and  C_40
REMARK                            x       y       z     vdW  Elec       q    Type
REMARK                         _______ _______ _______ _____ _____    ______ ____
ROOT
ATOM      1  C   UNL     1       4.359   0.035  -7.453  0.00  0.00    +0.100 C 
ATOM      2  C   UNL     1       5.518   0.273  -6.460  0.00  0.00    +0.121 C 
ATOM      3  N   UNL     1       5.902  -1.083  -6.000  0.00  0.00    -0.296 N 
ATOM      4  C   UNL     1       5.808  -1.925  -7.218  0.00  0.00    +0.115 C 
ATOM      5  C   UNL     1       4.554  -1.407  -7.950  0.00  0.00    -0.004 C 
ATOM      6  C   UNL     1       3.343  -2.261  -7.588  0.00  0.00    -0.010 C 
ATOM      7  C   UNL     1       3.536  -3.675  -8.143  0.00  0.00    -0.082 C 
ATOM      8  N   UNL     1       3.698  -3.613  -9.600  0.00  0.00    +0.379 N 
ATOM      9  C   UNL     1       4.917  -2.868  -9.938  0.00  0.00    -0.082 C 
ATOM     10  C   UNL     1       4.782  -1.420  -9.459  0.00  0.00    -0.010 C 
ATOM     11  C   UNL     1       6.257  -1.465  -4.758  0.00  0.00    +0.247 C 
ATOM     12  O   UNL     1       6.164  -0.681  -3.830  0.00  0.00    -0.270 OA
ATOM     13  H   UNL     1       3.764  -4.549  -9.970  0.00  0.00    -0.086 HD
ATOM     14  H   UNL     1       2.899  -3.149 -10.006  0.00  0.00    -0.086 HD
ENDROOT
BRANCH  11  15
ATOM     15  C   UNL     1       6.736  -2.776  -4.530  0.00  0.00    +0.072 C 
ATOM     16  C   UNL     1       6.914  -3.366  -3.333  0.00  0.00    +0.047 C 
ATOM     17  N   UNL     1       7.389  -4.632  -3.480  0.00  0.00    -0.269 N 
ATOM     18  O   UNL     1       7.553  -4.943  -4.851  0.00  0.00    -0.260 OA
ATOM     19  C   UNL     1       7.140  -3.780  -5.586  0.00  0.00    +0.237 C 
ATOM     20  C   UNL     1       6.625  -2.712  -2.007  0.00  0.00    +0.066 C 
ATOM     21  H   UNL     1       7.589  -5.237  -2.748  0.00  0.00    +0.194 HD
BRANCH  19  22
ATOM     22  C   UNL     1       8.287  -3.247  -6.405  0.00  0.00    +0.120 A 
ATOM     23  C   UNL     1       9.466  -3.944  -6.727  0.00  0.00    +0.073 A 
ATOM     24  C   UNL     1      10.243  -3.132  -7.470  0.00  0.00    +0.135 A 
ATOM     25  O   UNL     1       9.597  -1.965  -7.622  0.00  0.00    -0.360 OA
ATOM     26  N   UNL     1       8.357  -2.063  -6.944  0.00  0.00    -0.080 NA
ATOM     27  C   UNL     1      11.599  -3.473  -8.032  0.00  0.00    +0.089 C 
ENDBRANCH  19  22
ENDBRANCH  11  15
BRANCH   1  29
ATOM     28  N   UNL     1       1.915   0.417  -7.467  0.00  0.00    -0.315 N 
ATOM     29  C   UNL     1       3.031   0.172  -6.753  0.00  0.00    +0.218 C 
ATOM     30  O   UNL     1       2.968   0.062  -5.546  0.00  0.00    -0.275 OA
ATOM     31  H   UNL     1       1.975   0.577  -8.421  0.00  0.00    +0.149 HD
BRANCH  28  32
ATOM     32  C   UNL     1       0.610   0.442  -6.801  0.00  0.00    +0.109 C 
BRANCH  32  33
ATOM     33  C   UNL     1      -0.493   0.616  -7.847  0.00  0.00    +0.056 C 
BRANCH  33  41
ATOM     34  C   UNL     1      -2.108   5.624  -5.584  0.00  0.00    +0.044 C 
ATOM     35  C   UNL     1      -2.629   4.219  -5.743  0.00  0.00    -0.050 A 
ATOM     36  C   UNL     1      -3.876   3.886  -5.233  0.00  0.00    +0.005 A 
ATOM     37  C   UNL     1      -4.371   2.607  -5.367  0.00  0.00    +0.026 A 
ATOM     38  C   UNL     1      -3.616   1.639  -6.021  0.00  0.00    +0.047 A 
ATOM     39  N   UNL     1      -3.825   0.309  -6.310  0.00  0.00    -0.360 N 
ATOM     40  C   UNL     1      -2.747  -0.195  -6.985  0.00  0.00    +0.087 A 
ATOM     41  C   UNL     1      -1.823   0.764  -7.154  0.00  0.00    -0.021 A 
ATOM     42  C   UNL     1      -2.353   1.982  -6.537  0.00  0.00    +0.003 A 
ATOM     43  C   UNL     1      -1.873   3.285  -6.394  0.00  0.00    +0.013 A 
ATOM     44  H   UNL     1      -4.618  -0.195  -6.071  0.00  0.00    +0.165 HD
ENDBRANCH  33  41
ENDBRANCH  32  33
ENDBRANCH  28  32
ENDBRANCH   1  29
TORSDOF 6
