REMARK  Name = ZINC37537161
REMARK  5 active torsions:
REMARK  status: ('A' for Active; 'I' for Inactive)
REMARK    1  A    between atoms: C_1  and  N_2
REMARK    2  A    between atoms: N_2  and  C_3
REMARK    3  A    between atoms: N_6  and  C_9
REMARK    4  A    between atoms: C_12  and  S_15
REMARK    5  A    between atoms: S_15  and  C_18
REMARK                            x       y       z     vdW  Elec       q    Type
REMARK                         _______ _______ _______ _____ _____    ______ ____
ROOT
ATOM      1  C   UNL     1       3.749  -2.822  -2.758  0.00  0.00    +0.030 A 
ATOM      2  C   UNL     1       3.553  -4.197  -2.802  0.00  0.00    +0.025 A 
ATOM      3  C   UNL     1       4.631  -5.042  -2.972  0.00  0.00    +0.029 A 
ATOM      4  C   UNL     1       5.907  -4.522  -3.096  0.00  0.00    +0.098 A 
ATOM      5  C   UNL     1       6.106  -3.154  -3.053  0.00  0.00    +0.029 A 
ATOM      6  C   UNL     1       5.031  -2.303  -2.889  0.00  0.00    +0.025 A 
ENDROOT
BRANCH   1  10
ATOM      7  C   UNL     1       0.681  -0.489  -1.207  0.00  0.00    -0.069 C 
ATOM      8  C   UNL     1       2.150  -0.066  -1.142  0.00  0.00    +0.003 C 
ATOM      9  C   UNL     1       2.865  -0.519  -2.418  0.00  0.00    +0.103 C 
ATOM     10  N   UNL     1       2.660  -1.964  -2.587  0.00  0.00    -0.330 N 
ATOM     11  C   UNL     1       1.288  -2.490  -2.574  0.00  0.00    +0.103 C 
ATOM     12  C   UNL     1       0.591  -2.014  -1.296  0.00  0.00    +0.003 C 
BRANCH   7  14
ATOM     13  C   UNL     1      -0.034   1.442   0.024  0.00  0.00    -0.100 C 
ATOM     14  N   UNL     1      -0.016  -0.027   0.000  0.00  0.00    +0.379 N 
ATOM     15  H   UNL     1       0.464  -0.371   0.818  0.00  0.00    -0.086 HD
ATOM     16  H   UNL     1      -0.964  -0.375  -0.004  0.00  0.00    -0.086 HD
ENDBRANCH   7  14
ENDBRANCH   1  10
BRANCH   4  17
ATOM     17  S   UNL     1       7.280  -5.604  -3.311  0.00  0.00    +0.091 S 
ATOM     18  O   UNL     1       8.393  -4.884  -2.799  0.00  0.00    -0.161 OA
ATOM     19  O   UNL     1       6.874  -6.829  -2.715  0.00  0.00    -0.161 OA
BRANCH  17  20
ATOM     20  C   UNL     1       7.439  -5.806  -5.107  0.00  0.00    +0.526 C 
ATOM     21  F   UNL     1       7.666  -4.558  -5.698  0.00  0.00    -0.150 F 
ATOM     22  F   UNL     1       8.513  -6.657  -5.388  0.00  0.00    -0.150 F 
ATOM     23  F   UNL     1       6.260  -6.357  -5.620  0.00  0.00    -0.150 F 
ENDBRANCH  17  20
ENDBRANCH   4  17
TORSDOF 4
