REMARK  Name = ZINC15847260
REMARK  9 active torsions:
REMARK  status: ('A' for Active; 'I' for Inactive)
REMARK    1  A    between atoms: C_4  and  C_7
REMARK    2  A    between atoms: C_7  and  N_8
REMARK    3  A    between atoms: N_8  and  S_9
REMARK    4  A    between atoms: S_9  and  C_12
REMARK    5  A    between atoms: C_14  and  C_19
REMARK    6  A    between atoms: N_21  and  N_22
REMARK    7  A    between atoms: N_22  and  C_23
REMARK    8  A    between atoms: C_23  and  N_25
REMARK    9  A    between atoms: N_25  and  C_26
REMARK                            x       y       z     vdW  Elec       q    Type
REMARK                         _______ _______ _______ _____ _____    ______ ____
ROOT
ATOM      1  C   UNL     1      -3.691   1.951  -0.601  0.00  0.00    +0.124 A 
ATOM      2  C   UNL     1      -2.515   1.279  -0.342  0.00  0.00    +0.043 A 
ATOM      3  C   UNL     1      -1.305   1.975  -0.327  0.00  0.00    +0.040 A 
ATOM      4  C   UNL     1      -1.294   3.350  -0.569  0.00  0.00    +0.014 A 
ATOM      5  C   UNL     1      -2.475   4.010  -0.833  0.00  0.00    +0.023 A 
ATOM      6  C   UNL     1      -3.673   3.314  -0.846  0.00  0.00    +0.067 A 
ATOM      7 CL   UNL     1      -5.157   4.154  -1.171  0.00  0.00    -0.082 Cl
ENDROOT
BRANCH   3   8
ATOM      8  C   UNL     1      -0.042   1.260  -0.049  0.00  0.00    +0.260 C 
ATOM      9  O   UNL     1      -0.055   0.064   0.167  0.00  0.00    -0.269 OA
ATOM     10  N   UNL     1       1.125   1.933  -0.041  0.00  0.00    -0.231 N 
ATOM     11  H   UNL     1       1.136   2.888  -0.213  0.00  0.00    +0.173 HD
BRANCH  10  12
ATOM     12  N   UNL     1       2.324   1.255   0.217  0.00  0.00    -0.245 N 
ATOM     13  H   UNL     1       2.313   0.300   0.389  0.00  0.00    +0.172 HD
BRANCH  12  14
ATOM     14  C   UNL     1       3.491   1.928   0.225  0.00  0.00    +0.151 C 
ATOM     15  S   UNL     1       4.955   1.099   0.540  0.00  0.00    -0.017 S 
BRANCH  14  16
ATOM     16  N   UNL     1       3.506   3.255  -0.014  0.00  0.00    -0.294 N 
ATOM     17  H   UNL     1       2.685   3.713  -0.254  0.00  0.00    +0.154 HD
BRANCH  16  18
ATOM     18  C   UNL     1       4.705   3.970   0.084  0.00  0.00    +0.068 A 
ATOM     19  C   UNL     1       5.856   3.485  -0.520  0.00  0.00    +0.026 A 
ATOM     20  C   UNL     1       7.037   4.196  -0.426  0.00  0.00    +0.002 A 
ATOM     21  C   UNL     1       7.077   5.385   0.279  0.00  0.00    +0.003 A 
ATOM     22  C   UNL     1       5.934   5.870   0.887  0.00  0.00    +0.040 A 
ATOM     23  C   UNL     1       4.747   5.166   0.792  0.00  0.00    +0.144 A 
ATOM     24  F   UNL     1       3.630   5.640   1.387  0.00  0.00    -0.204 F 
ENDBRANCH  16  18
ENDBRANCH  14  16
ENDBRANCH  12  14
ENDBRANCH  10  12
ENDBRANCH   3   8
BRANCH   1  25
ATOM     25  S   UNL     1      -5.220   1.075  -0.621  0.00  0.00    +0.060 S 
ATOM     26  O   UNL     1      -5.889   1.452  -1.817  0.00  0.00    -0.153 OA
ATOM     27  O   UNL     1      -4.915  -0.279  -0.313  0.00  0.00    -0.153 OA
BRANCH  25  28
ATOM     28  N   UNL     1      -6.132   1.653   0.634  0.00  0.00    -0.186 NA
ATOM     29  H   UNL     1      -6.364   1.069   1.374  0.00  0.00    +0.148 HD
BRANCH  28  30
ATOM     30  C   UNL     1      -6.589   3.044   0.628  0.00  0.00    +0.141 C 
BRANCH  30  34
ATOM     31  C   UNL     1      -9.677   3.543   3.538  0.00  0.00    +0.000 A 
ATOM     32  C   UNL     1      -8.354   3.736   3.892  0.00  0.00    +0.000 A 
ATOM     33  C   UNL     1      -7.356   3.575   2.951  0.00  0.00    +0.005 A 
ATOM     34  C   UNL     1      -7.678   3.220   1.654  0.00  0.00    -0.032 A 
ATOM     35  C   UNL     1      -9.001   3.032   1.298  0.00  0.00    +0.005 A 
ATOM     36  C   UNL     1      -9.999   3.188   2.241  0.00  0.00    +0.000 A 
ENDBRANCH  30  34
ENDBRANCH  28  30
ENDBRANCH  25  28
ENDBRANCH   1  25
TORSDOF 9
