REMARK  Name = ZINC35489102
REMARK  8 active torsions:
REMARK  status: ('A' for Active; 'I' for Inactive)
REMARK    1  A    between atoms: C_1  and  C_2
REMARK    2  A    between atoms: C_9  and  O_20
REMARK    3  A    between atoms: C_12  and  C_14
REMARK    4  A    between atoms: C_23  and  O_36
REMARK    5  A    between atoms: C_24  and  C_31
REMARK    6  A    between atoms: C_27  and  O_30
REMARK    7  A    between atoms: C_31  and  O_32
REMARK    8  A    between atoms: O_32  and  N_33
REMARK                            x       y       z     vdW  Elec       q    Type
REMARK                         _______ _______ _______ _____ _____    ______ ____
ROOT
ATOM      1  C   UNL     1       0.630   1.497  -0.152  0.00  0.00    +0.014 C 
ATOM      2  C   UNL     1       0.436  -0.018  -0.067  0.00  0.00    +0.004 C 
ATOM      3  C   UNL     1      -1.004  -0.331   0.288  0.00  0.00    +0.010 C 
ATOM      4  C   UNL     1      -1.332   0.427   1.585  0.00  0.00    +0.005 C 
ATOM      5  C   UNL     1      -0.377   0.042   2.710  0.00  0.00    +0.007 C 
ATOM      6  C   UNL     1       1.089   0.263   2.305  0.00  0.00    +0.025 C 
ATOM      7  C   UNL     1       1.330  -0.600   1.061  0.00  0.00    +0.075 C 
ATOM      8  C   UNL     1       2.725  -0.493   0.438  0.00  0.00    +0.036 C 
ATOM      9  C   UNL     1       2.485  -0.940  -1.030  0.00  0.00    +0.011 C 
ATOM     10  C   UNL     1       0.987  -0.680  -1.326  0.00  0.00    +0.027 C 
ATOM     11  C   UNL     1       1.999  -0.171   3.455  0.00  0.00    +0.009 C 
ATOM     12  C   UNL     1       1.684   0.666   4.697  0.00  0.00    +0.036 C 
ATOM     13  C   UNL     1       0.223   0.455   5.098  0.00  0.00    +0.077 C 
ATOM     14  C   UNL     1      -0.671   0.877   3.956  0.00  0.00    +0.040 C 
ATOM     15  C   UNL     1      -2.133   0.683   4.366  0.00  0.00    +0.016 C 
ATOM     16  C   UNL     1      -2.428   1.514   5.616  0.00  0.00    +0.032 C 
ATOM     17  C   UNL     1      -1.514   1.061   6.757  0.00  0.00    +0.117 C 
ATOM     18  C   UNL     1      -0.091   1.292   6.339  0.00  0.00    +0.066 C 
ENDROOT
BRANCH  10  19
ATOM     19  C   UNL     1       0.841   0.243  -2.508  0.00  0.00    -0.022 C 
ATOM     20  C   UNL     1       1.807   0.960  -3.079  0.00  0.00    +0.094 C 
ATOM     21  C   UNL     1       1.240   1.720  -4.197  0.00  0.00    +0.332 C 
ATOM     22  O   UNL     1       1.865   2.470  -4.921  0.00  0.00    -0.246 OA
ATOM     23  O   UNL     1      -0.077   1.462  -4.303  0.00  0.00    -0.457 OA
ATOM     24  C   UNL     1      -0.428   0.529  -3.276  0.00  0.00    +0.264 C 
ENDBRANCH  10  19
BRANCH   7  25
ATOM     25  O   UNL     1       0.987  -1.964   1.317  0.00  0.00    -0.388 OA
ATOM     26  H   UNL     1       1.514  -2.378   2.014  0.00  0.00    +0.210 HD
ENDBRANCH   7  25
BRANCH  17  27
ATOM     27  O   UNL     1      -1.790   1.837   7.925  0.00  0.00    -0.392 OA
ATOM     28  H   UNL     1      -2.701   1.761   8.242  0.00  0.00    +0.210 HD
ENDBRANCH  17  27
BRANCH  13  29
ATOM     29  O   UNL     1       0.004  -0.927   5.388  0.00  0.00    -0.388 OA
ATOM     30  H   UNL     1       0.550  -1.269   6.109  0.00  0.00    +0.210 HD
ENDBRANCH  13  29
BRANCH  14  31
ATOM     31  C   UNL     1      -0.417   2.355   3.652  0.00  0.00    +0.277 C 
BRANCH  31  32
ATOM     32  O   UNL     1      -1.372   2.815   2.693  0.00  0.00    -0.351 OA
BRANCH  32  33
ATOM     33  N   UNL     1      -1.223   4.178   2.341  0.00  0.00    +0.217 N 
ATOM     34  O   UNL     1      -0.345   4.840   2.843  0.00  0.00    -0.090 OA
ATOM     35  O   UNL     1      -1.974   4.680   1.537  0.00  0.00    -0.090 OA
ENDBRANCH  32  33
ENDBRANCH  31  32
ENDBRANCH  14  31
TORSDOF 7
