REMARK  Name = ZINC63678203
REMARK  11 active torsions:
REMARK  status: ('A' for Active; 'I' for Inactive)
REMARK    1  A    between atoms: C_1  and  C_2
REMARK    2  A    between atoms: C_2  and  C_3
REMARK    3  A    between atoms: C_3  and  N_4
REMARK    4  A    between atoms: N_7  and  C_8
REMARK    5  A    between atoms: C_8  and  C_9
REMARK    6  A    between atoms: C_8  and  C_10
REMARK    7  A    between atoms: C_8  and  C_11
REMARK    8  A    between atoms: N_13  and  C_14
REMARK    9  A    between atoms: C_14  and  C_15
REMARK   10  A    between atoms: N_17  and  C_18
REMARK   11  A    between atoms: C_21  and  C_25
REMARK                            x       y       z     vdW  Elec       q    Type
REMARK                         _______ _______ _______ _____ _____    ______ ____
ROOT
ATOM      1  C   UNL     1      -3.496  -6.258   0.029  0.00  0.00    +0.236 C 
ATOM      2  O   UNL     1      -4.212  -7.024   0.638  0.00  0.00    -0.273 OA
ATOM      3  N   UNL     1      -2.439  -6.730  -0.662  0.00  0.00    -0.305 N 
ATOM      4  H   UNL     1      -1.866  -6.117  -1.150  0.00  0.00    +0.149 HD
ENDROOT
BRANCH   1   5
ATOM      5  C   UNL     1      -3.788  -4.780   0.043  0.00  0.00    +0.106 C 
ATOM      6  C   UNL     1      -4.573  -4.428   1.308  0.00  0.00    +0.041 C 
ATOM      7  C   UNL     1      -4.615  -4.411  -1.190  0.00  0.00    +0.041 C 
BRANCH   5  11
ATOM      8  N   UNL     1      -1.383  -1.998   0.021  0.00  0.00    -0.299 N 
ATOM      9  C   UNL     1      -2.542  -2.685   0.036  0.00  0.00    +0.300 C 
ATOM     10  O   UNL     1      -3.602  -2.089   0.058  0.00  0.00    -0.253 OA
ATOM     11  N   UNL     1      -2.527  -4.033   0.027  0.00  0.00    -0.286 N 
ATOM     12  H   UNL     1      -0.538  -2.474   0.003  0.00  0.00    +0.150 HD
ATOM     13  H   UNL     1      -1.682  -4.508   0.009  0.00  0.00    +0.151 HD
BRANCH   8  14
ATOM     14  C   UNL     1      -1.399  -0.533   0.031  0.00  0.00    +0.105 C 
BRANCH  14  16
ATOM     15  C   UNL     1       0.020   1.523   0.020  0.00  0.00    +0.005 C 
ATOM     16  C   UNL     1       0.037  -0.007   0.010  0.00  0.00    +0.015 C 
ENDBRANCH  14  16
ENDBRANCH   8  14
ENDBRANCH   5  11
ENDBRANCH   1   5
BRANCH   3  17
ATOM     17  C   UNL     1      -2.155  -8.167  -0.676  0.00  0.00    +0.200 C 
BRANCH  17  18
ATOM     18  C   UNL     1      -0.930  -8.429  -1.514  0.00  0.00    +0.234 C 
ATOM     19  O   UNL     1      -0.351  -7.505  -2.046  0.00  0.00    -0.274 OA
ATOM     20  N   UNL     1      -0.478  -9.688  -1.671  0.00  0.00    -0.283 N 
ATOM     21  H   UNL     1      -0.901 -10.419  -1.194  0.00  0.00    +0.155 HD
BRANCH  20  22
ATOM     22  C   UNL     1       0.603  -9.943  -2.524  0.00  0.00    +0.052 A 
ATOM     23  C   UNL     1       1.631  -9.016  -2.640  0.00  0.00    +0.025 A 
ATOM     24  C   UNL     1       2.696  -9.270  -3.482  0.00  0.00    +0.005 A 
ATOM     25  C   UNL     1       2.740 -10.446  -4.209  0.00  0.00    -0.049 A 
ATOM     26  C   UNL     1       1.719 -11.371  -4.096  0.00  0.00    +0.025 A 
ATOM     27  C   UNL     1       0.652 -11.126  -3.251  0.00  0.00    +0.062 A 
ATOM     28 CL   UNL     1      -0.626 -12.291  -3.104  0.00  0.00    -0.082 Cl
ATOM     29  C   UNL     1       3.903 -10.719  -5.127  0.00  0.00    +0.044 C 
ENDBRANCH  20  22
ENDBRANCH  17  18
ENDBRANCH   3  17
TORSDOF 7
