REMARK  Name = ZINC39544368
REMARK  8 active torsions:
REMARK  status: ('A' for Active; 'I' for Inactive)
REMARK    1  A    between atoms: C_1  and  C_2
REMARK    2  A    between atoms: C_2  and  C_3
REMARK    3  A    between atoms: C_3  and  C_4
REMARK    4  A    between atoms: C_3  and  C_5
REMARK    5  A    between atoms: C_3  and  C_6
REMARK    6  A    between atoms: N_14  and  C_18
REMARK    7  A    between atoms: C_18  and  C_19
REMARK    8  A    between atoms: N_21  and  C_22
REMARK                            x       y       z     vdW  Elec       q    Type
REMARK                         _______ _______ _______ _____ _____    ______ ____
ROOT
ATOM      1  C   UNL     1       0.749  -2.019  -1.289  0.00  0.00    -0.005 C 
ATOM      2  C   UNL     1       1.487  -2.519  -0.045  0.00  0.00    +0.006 C 
ATOM      3  C   UNL     1       1.492  -4.050  -0.037  0.00  0.00    +0.035 C 
ATOM      4  C   UNL     1       2.178  -4.565  -1.298  0.00  0.00    +0.113 C 
ATOM      5  C   UNL     1       1.468  -4.054  -2.546  0.00  0.00    +0.035 C 
ATOM      6  C   UNL     1       1.463  -2.524  -2.544  0.00  0.00    +0.006 C 
ATOM      7  C   UNL     1       3.632  -4.156  -1.312  0.00  0.00    +0.247 C 
ATOM      8  O   UNL     1       4.077  -3.028  -1.319  0.00  0.00    -0.273 OA
ATOM      9  N   UNL     1       4.332  -5.309  -1.317  0.00  0.00    -0.215 N 
ATOM     10  C   UNL     1       3.523  -6.376  -1.307  0.00  0.00    +0.310 C 
ATOM     11  O   UNL     1       3.920  -7.525  -1.309  0.00  0.00    -0.252 OA
ATOM     12  N   UNL     1       2.221  -6.033  -1.295  0.00  0.00    -0.285 N 
ATOM     13  H   UNL     1       1.461  -6.637  -1.287  0.00  0.00    +0.151 HD
ENDROOT
BRANCH   1  14
ATOM     14  C   UNL     1       0.732  -0.489  -1.292  0.00  0.00    -0.032 C 
ATOM     15  C   UNL     1      -0.007   0.011  -2.534  0.00  0.00    +0.011 C 
ATOM     16  C   UNL     1       2.169   0.036  -1.307  0.00  0.00    +0.011 C 
BRANCH  14  18
ATOM     17  C   UNL     1       0.002   1.545  -0.039  0.00  0.00    +0.004 C 
ATOM     18  C   UNL     1       0.018   0.015  -0.036  0.00  0.00    +0.003 C 
ENDBRANCH  14  18
ENDBRANCH   1  14
BRANCH   9  19
ATOM     19  C   UNL     1       5.795  -5.385  -1.331  0.00  0.00    +0.214 C 
BRANCH  19  20
ATOM     20  C   UNL     1       6.311  -5.408   0.084  0.00  0.00    +0.235 C 
ATOM     21  O   UNL     1       5.533  -5.365   1.014  0.00  0.00    -0.274 OA
ATOM     22  N   UNL     1       7.636  -5.476   0.317  0.00  0.00    -0.284 N 
ATOM     23  H   UNL     1       8.255  -5.578  -0.423  0.00  0.00    +0.155 HD
BRANCH  22  24
ATOM     24  C   UNL     1       8.122  -5.400   1.629  0.00  0.00    +0.036 A 
ATOM     25  C   UNL     1       9.327  -4.757   1.887  0.00  0.00    +0.025 A 
ATOM     26  C   UNL     1       9.811  -4.678   3.177  0.00  0.00    +0.029 A 
ATOM     27  C   UNL     1       9.093  -5.243   4.221  0.00  0.00    +0.067 A 
ATOM     28  C   UNL     1       7.882  -5.890   3.966  0.00  0.00    +0.069 A 
ATOM     29  C   UNL     1       7.396  -5.962   2.669  0.00  0.00    +0.051 A 
ATOM     30  N   UNL     1       7.403  -6.346   5.191  0.00  0.00    -0.306 N 
ATOM     31  H   UNL     1       6.577  -6.835   5.331  0.00  0.00    +0.170 HD
ATOM     32  C   UNL     1       8.281  -5.993   6.149  0.00  0.00    +0.325 A 
ATOM     33  O   UNL     1       8.161  -6.240   7.334  0.00  0.00    -0.247 OA
ATOM     34  N   UNL     1       9.312  -5.327   5.596  0.00  0.00    -0.306 N 
ATOM     35  H   UNL     1      10.076  -4.966   6.072  0.00  0.00    +0.170 HD
ENDBRANCH  22  24
ENDBRANCH  19  20
ENDBRANCH   9  19
TORSDOF 5
