REMARK  Name = ZINC00477828
REMARK  9 active torsions:
REMARK  status: ('A' for Active; 'I' for Inactive)
REMARK    1  A    between atoms: C_1  and  C_2
REMARK    2  A    between atoms: C_2  and  C_3
REMARK    3  A    between atoms: C_10  and  N_26
REMARK    4  A    between atoms: C_11  and  C_24
REMARK    5  A    between atoms: C_12  and  C_14
REMARK    6  A    between atoms: C_17  and  O_20
REMARK    7  A    between atoms: O_20  and  C_21
REMARK    8  A    between atoms: C_21  and  C_22
REMARK    9  A    between atoms: C_21  and  C_23
REMARK                            x       y       z     vdW  Elec       q    Type
REMARK                         _______ _______ _______ _____ _____    ______ ____
ROOT
ATOM      1  C   UNL     1      -2.385   4.376   0.877  0.00  0.00    +0.070 A 
ATOM      2  C   UNL     1      -1.334   3.576   0.448  0.00  0.00    +0.049 A 
ATOM      3  C   UNL     1      -0.195   4.332   0.459  0.00  0.00    +0.222 A 
ATOM      4  N   UNL     1      -0.528   5.563   0.879  0.00  0.00    -0.246 N 
ATOM      5  H   UNL     1       0.096   6.337   0.989  0.00  0.00    +0.192 HD
ATOM      6  N   UNL     1      -1.908   5.570   1.137  0.00  0.00    -0.176 NA
ATOM      7  O   UNL     1       1.015   3.839   0.093  0.00  0.00    -0.423 OA
ATOM      8  C   UNL     1       1.133   2.501  -0.026  0.00  0.00    +0.200 C 
ATOM      9  C   UNL     1       0.082   1.653  -0.061  0.00  0.00    +0.098 C 
ATOM     10  C   UNL     1      -1.346   2.131   0.019  0.00  0.00    +0.101 C 
ENDROOT
BRANCH  10  11
ATOM     11  C   UNL     1      -2.003   2.002  -1.331  0.00  0.00    -0.034 A 
ATOM     12  C   UNL     1      -1.490   2.688  -2.416  0.00  0.00    +0.008 A 
ATOM     13  C   UNL     1      -2.087   2.567  -3.656  0.00  0.00    +0.046 A 
ATOM     14  C   UNL     1      -3.208   1.765  -3.810  0.00  0.00    +0.121 A 
ATOM     15  C   UNL     1      -3.724   1.082  -2.718  0.00  0.00    +0.046 A 
ATOM     16  C   UNL     1      -3.120   1.201  -1.481  0.00  0.00    +0.008 A 
BRANCH  14  17
ATOM     17  O   UNL     1      -3.801   1.649  -5.027  0.00  0.00    -0.489 OA
BRANCH  17  18
ATOM     18  C   UNL     1      -5.019   0.905  -5.088  0.00  0.00    +0.167 C 
ATOM     19  C   UNL     1      -5.842   1.371  -6.291  0.00  0.00    +0.051 C 
ATOM     20  C   UNL     1      -4.701  -0.584  -5.233  0.00  0.00    +0.051 C 
ENDBRANCH  17  18
ENDBRANCH  14  17
ENDBRANCH  10  11
BRANCH   8  21
ATOM     21  N   UNL     1       2.396   1.970  -0.117  0.00  0.00    -0.328 N 
ATOM     22  H   UNL     1       2.514   1.011  -0.203  0.00  0.00    +0.145 HD
ATOM     23  H   UNL     1       3.171   2.554  -0.094  0.00  0.00    +0.145 HD
ENDBRANCH   8  21
BRANCH   1  25
ATOM     24  C   UNL     1      -4.055   3.404   2.430  0.00  0.00    +0.010 C 
ATOM     25  C   UNL     1      -3.822   3.947   1.019  0.00  0.00    +0.054 C 
ENDBRANCH   1  25
BRANCH   9  26
ATOM     26  C   UNL     1       0.333   0.248  -0.186  0.00  0.00    +0.101 C 
ATOM     27  N   UNL     1       0.533  -0.866  -0.285  0.00  0.00    -0.191 NA
ENDBRANCH   9  26
TORSDOF 6
