REMARK  Name = ZINC32109259
REMARK  9 active torsions:
REMARK  status: ('A' for Active; 'I' for Inactive)
REMARK    1  A    between atoms: C_1  and  C_2
REMARK    2  A    between atoms: C_5  and  O_9
REMARK    3  A    between atoms: O_9  and  C_10
REMARK    4  A    between atoms: C_10  and  C_12
REMARK    5  A    between atoms: C_10  and  C_13
REMARK    6  A    between atoms: N_15  and  N_16
REMARK    7  A    between atoms: C_17  and  C_18
REMARK    8  A    between atoms: C_21  and  O_24
REMARK    9  A    between atoms: O_24  and  C_25
REMARK                            x       y       z     vdW  Elec       q    Type
REMARK                         _______ _______ _______ _____ _____    ______ ____
ROOT
ATOM      1  C   UNL     1       0.754   1.465   1.592  0.00  0.00    +0.273 C 
ATOM      2  O   UNL     1       0.998   2.606   1.260  0.00  0.00    -0.270 OA
ATOM      3  N   UNL     1      -0.401   0.885   1.211  0.00  0.00    -0.204 N 
ATOM      4  H   UNL     1      -0.625  -0.148   1.516  0.00  0.00    +0.177 HD
ENDROOT
BRANCH   1   5
ATOM      5  C   UNL     1       1.742   0.697   2.430  0.00  0.00    +0.257 C 
ATOM      6  C   UNL     1       2.284  -0.486   1.625  0.00  0.00    +0.062 C 
BRANCH   5   7
ATOM      7  O   UNL     1       2.823   1.556   2.800  0.00  0.00    -0.479 OA
BRANCH   7  12
ATOM      8  C   UNL     1       5.657   0.229   7.484  0.00  0.00    +0.044 C 
ATOM      9  C   UNL     1       4.899   0.584   6.231  0.00  0.00    -0.049 A 
ATOM     10  C   UNL     1       3.920  -0.267   5.752  0.00  0.00    +0.007 A 
ATOM     11  C   UNL     1       3.220   0.059   4.606  0.00  0.00    +0.047 A 
ATOM     12  C   UNL     1       3.507   1.236   3.930  0.00  0.00    +0.136 A 
ATOM     13  C   UNL     1       4.490   2.088   4.413  0.00  0.00    +0.060 A 
ATOM     14  C   UNL     1       5.184   1.760   5.562  0.00  0.00    +0.022 A 
ATOM     15 BR   UNL     1       4.880   3.697   3.498  0.00  0.00    -0.047 Br
ENDBRANCH   7  12
ENDBRANCH   5   7
ENDBRANCH   1   5
BRANCH   3  16
ATOM     16  N   UNL     1      -1.318   1.597   0.426  0.00  0.00    -0.188 NA
ATOM     17  C   UNL     1      -2.369   1.001  -0.047  0.00  0.00    +0.138 C 
BRANCH  17  18
ATOM     18  C   UNL     1      -2.352  -0.457  -0.268  0.00  0.00    -0.005 A 
ATOM     19  C   UNL     1      -3.550  -1.150  -0.461  0.00  0.00    +0.013 A 
ATOM     20  C   UNL     1      -3.529  -2.511  -0.672  0.00  0.00    +0.046 A 
ATOM     21  C   UNL     1      -2.321  -3.196  -0.683  0.00  0.00    +0.120 A 
ATOM     22  C   UNL     1      -1.128  -2.512  -0.487  0.00  0.00    +0.046 A 
ATOM     23  C   UNL     1      -1.139  -1.150  -0.280  0.00  0.00    +0.013 A 
BRANCH  21  24
ATOM     24  O   UNL     1      -2.306  -4.540  -0.885  0.00  0.00    -0.495 OA
ATOM     25  C   UNL     1      -3.568  -5.181  -1.080  0.00  0.00    +0.277 C 
ENDBRANCH  21  24
ENDBRANCH  17  18
ENDBRANCH   3  16
TORSDOF 6
