REMARK  Name = ZINC65182684
REMARK  9 active torsions:
REMARK  status: ('A' for Active; 'I' for Inactive)
REMARK    1  A    between atoms: C_1  and  C_2
REMARK    2  A    between atoms: C_7  and  C_13
REMARK    3  A    between atoms: C_9  and  C_12
REMARK    4  A    between atoms: C_16  and  C_19
REMARK    5  A    between atoms: C_19  and  C_20
REMARK    6  A    between atoms: C_20  and  N_21
REMARK    7  A    between atoms: N_21  and  C_22
REMARK    8  A    between atoms: C_23  and  C_25
REMARK    9  A    between atoms: C_25  and  C_26
REMARK                            x       y       z     vdW  Elec       q    Type
REMARK                         _______ _______ _______ _____ _____    ______ ____
ROOT
ATOM      1  C   UNL     1       1.333  -5.180   1.847  0.00  0.00    +0.318 C 
ATOM      2  N   UNL     1       1.397  -6.453   1.112  0.00  0.00    -0.291 N 
ATOM      3  C   UNL     1       2.536  -6.412   0.343  0.00  0.00    +0.139 C 
ATOM      4  N   UNL     1       3.171  -5.308   0.500  0.00  0.00    -0.072 NA
ATOM      5  O   UNL     1       2.503  -4.463   1.424  0.00  0.00    -0.367 OA
ATOM      6  H   UNL     1       0.758  -7.182   1.161  0.00  0.00    +0.151 HD
ENDROOT
BRANCH   1  13
ATOM      7  C   UNL     1      -0.018   1.503   0.010  0.00  0.00    +0.044 C 
ATOM      8  C   UNL     1       0.002  -0.004   0.002  0.00  0.00    -0.050 A 
ATOM      9  C   UNL     1       0.005  -0.680  -1.226  0.00  0.00    +0.005 A 
ATOM     10  C   UNL     1       0.023  -2.026  -1.317  0.00  0.00    +0.026 A 
ATOM     11  C   UNL     1       0.039  -2.826  -0.141  0.00  0.00    +0.043 A 
ATOM     12  N   UNL     1       0.057  -4.126   0.030  0.00  0.00    -0.373 N 
ATOM     13  C   UNL     1       0.067  -4.408   1.470  0.00  0.00    +0.168 C 
ATOM     14  C   UNL     1       0.052  -3.060   2.156  0.00  0.00    -0.036 C 
ATOM     15  C   UNL     1       0.036  -2.137   1.168  0.00  0.00    -0.001 A 
ATOM     16  C   UNL     1       0.022  -0.669   1.180  0.00  0.00    +0.013 A 
ATOM     17  C   UNL     1       0.055  -2.799   3.641  0.00  0.00    +0.042 C 
ATOM     18  H   UNL     1       0.062  -4.790  -0.677  0.00  0.00    +0.160 HD
ENDBRANCH   1  13
BRANCH   3  19
ATOM     19  C   UNL     1       2.983  -7.524  -0.571  0.00  0.00    +0.094 C 
BRANCH  19  20
ATOM     20  C   UNL     1       4.288  -7.123  -1.261  0.00  0.00    +0.115 C 
BRANCH  20  21
ATOM     21  N   UNL     1       4.723  -8.204  -2.149  0.00  0.00    -0.304 N 
ATOM     22  C   UNL     1       4.279  -8.229  -3.545  0.00  0.00    +0.132 C 
ATOM     23  C   UNL     1       5.532  -9.176  -1.682  0.00  0.00    +0.216 C 
ATOM     24  O   UNL     1       5.900  -9.155  -0.526  0.00  0.00    -0.276 OA
BRANCH  23  25
ATOM     25  C   UNL     1       5.979 -10.288  -2.595  0.00  0.00    +0.099 C 
BRANCH  25  26
ATOM     26  C   UNL     1       6.883 -11.250  -1.822  0.00  0.00    -0.002 C 
ATOM     27  C   UNL     1       8.165 -10.525  -1.409  0.00  0.00    +0.004 C 
ATOM     28  C   UNL     1       9.069 -11.488  -0.636  0.00  0.00    +0.000 C 
ATOM     29  C   UNL     1       9.422 -12.681  -1.526  0.00  0.00    +0.000 C 
ATOM     30  C   UNL     1       8.140 -13.407  -1.938  0.00  0.00    +0.000 C 
ATOM     31  C   UNL     1       7.236 -12.444  -2.712  0.00  0.00    +0.004 C 
ENDBRANCH  25  26
ENDBRANCH  23  25
ENDBRANCH  20  21
ENDBRANCH  19  20
ENDBRANCH   3  19
TORSDOF 6
