REMARK  Name = ZINC64657402
REMARK  9 active torsions:
REMARK  status: ('A' for Active; 'I' for Inactive)
REMARK    1  A    between atoms: C_1  and  C_2
REMARK    2  A    between atoms: C_2  and  N_3
REMARK    3  A    between atoms: N_3  and  C_4
REMARK    4  A    between atoms: N_3  and  C_6
REMARK    5  A    between atoms: C_4  and  C_5
REMARK    6  A    between atoms: C_6  and  C_7
REMARK    7  A    between atoms: C_10  and  C_12
REMARK    8  A    between atoms: N_14  and  N_15
REMARK    9  A    between atoms: C_16  and  C_18
REMARK                            x       y       z     vdW  Elec       q    Type
REMARK                         _______ _______ _______ _____ _____    ______ ____
ROOT
ATOM      1  C   UNL     1       2.446  -2.835  -3.730  0.00  0.00    +0.295 C 
ATOM      2  O   UNL     1       3.453  -2.936  -4.406  0.00  0.00    -0.265 OA
ATOM      3  N   UNL     1       1.235  -3.006  -4.296  0.00  0.00    -0.228 N 
ATOM      4  H   UNL     1       0.432  -2.926  -3.758  0.00  0.00    +0.173 HD
ENDROOT
BRANCH   1   8
ATOM      5  C   UNL     1       1.992  -2.113  -0.220  0.00  0.00    +0.090 A 
ATOM      6  C   UNL     1       3.341  -2.068  -0.275  0.00  0.00    +0.043 A 
ATOM      7  C   UNL     1       3.709  -2.333  -1.604  0.00  0.00    +0.055 A 
ATOM      8  C   UNL     1       2.551  -2.529  -2.300  0.00  0.00    +0.191 A 
ATOM      9  O   UNL     1       1.519  -2.397  -1.440  0.00  0.00    -0.457 OA
BRANCH   5  10
ATOM     10  C   UNL     1       1.157  -1.887   1.014  0.00  0.00    -0.003 C 
BRANCH  10  11
ATOM     11  N   UNL     1       0.823  -0.461   1.126  0.00  0.00    +0.384 N 
ATOM     12  H   UNL     1       1.671   0.085   1.109  0.00  0.00    -0.081 HD
BRANCH  11  14
ATOM     13  C   UNL     1      -0.261   1.443   0.032  0.00  0.00    -0.017 C 
ATOM     14  C   UNL     1      -0.035  -0.070  -0.001  0.00  0.00    -0.082 C 
ENDBRANCH  11  14
BRANCH  11  15
ATOM     15  C   UNL     1       0.111  -0.222   2.389  0.00  0.00    -0.082 C 
ATOM     16  C   UNL     1       1.053  -0.495   3.563  0.00  0.00    -0.017 C 
ENDBRANCH  11  15
ENDBRANCH  10  11
ENDBRANCH   5  10
ENDBRANCH   1   8
BRANCH   3  17
ATOM     17  N   UNL     1       1.135  -3.299  -5.663  0.00  0.00    -0.230 N 
ATOM     18  C   UNL     1      -0.076  -3.469  -6.229  0.00  0.00    +0.260 C 
ATOM     19  O   UNL     1      -1.082  -3.369  -5.554  0.00  0.00    -0.269 OA
ATOM     20  H   UNL     1       1.938  -3.379  -6.202  0.00  0.00    +0.173 HD
BRANCH  18  21
ATOM     21  C   UNL     1      -0.181  -3.778  -7.671  0.00  0.00    +0.039 A 
ATOM     22  C   UNL     1       0.973  -3.899  -8.447  0.00  0.00    +0.013 A 
ATOM     23  C   UNL     1       0.869  -4.189  -9.793  0.00  0.00    +0.007 A 
ATOM     24  C   UNL     1      -0.374  -4.357 -10.371  0.00  0.00    -0.017 A 
ATOM     25  C   UNL     1      -1.525  -4.238  -9.605  0.00  0.00    -0.016 A 
ATOM     26  C   UNL     1      -1.434  -3.955  -8.260  0.00  0.00    +0.019 A 
ATOM     27  C   UNL     1      -2.701  -4.476 -10.522  0.00  0.00    +0.195 C 
ATOM     28  O   UNL     1      -2.199  -4.311 -11.861  0.00  0.00    -0.371 OA
ATOM     29  C   UNL     1      -0.809  -4.673 -11.784  0.00  0.00    +0.195 C 
ENDBRANCH  18  21
ENDBRANCH   3  17
TORSDOF 7
