REMARK  Name = ZINC49090292
REMARK  6 active torsions:
REMARK  status: ('A' for Active; 'I' for Inactive)
REMARK    1  A    between atoms: C_1  and  C_2
REMARK    2  A    between atoms: C_6  and  C_10
REMARK    3  A    between atoms: C_11  and  C_13
REMARK    4  A    between atoms: C_13  and  C_14
REMARK    5  A    between atoms: C_17  and  S_19
REMARK    6  A    between atoms: S_19  and  N_22
REMARK                            x       y       z     vdW  Elec       q    Type
REMARK                         _______ _______ _______ _____ _____    ______ ____
ROOT
ATOM      1  C   UNL     1      -0.078  -2.200  -3.413  0.00  0.00    +0.138 C 
ENDROOT
BRANCH   1  10
ATOM      2  C   UNL     1      -0.019   1.526   0.010  0.00  0.00    +0.039 C 
ATOM      3  C   UNL     1       0.002  -0.004   0.002  0.00  0.00    +0.133 C 
ATOM      4  C   UNL     1       0.722  -0.499  -1.258  0.00  0.00    +0.139 C 
ATOM      5  N   UNL     1       0.894  -1.957  -1.151  0.00  0.00    -0.294 N 
ATOM      6  C   UNL     1       1.483  -2.495   0.085  0.00  0.00    +0.099 C 
ATOM      7  C   UNL     1       0.726  -1.903   1.280  0.00  0.00    +0.182 C 
ATOM      8  O   UNL     1       0.695  -0.479   1.159  0.00  0.00    -0.373 OA
ATOM      9  C   UNL     1       2.960  -2.104   0.165  0.00  0.00    +0.030 C 
ATOM     10  C   UNL     1       0.523  -2.775  -2.156  0.00  0.00    +0.221 C 
ATOM     11  O   UNL     1       0.672  -3.974  -2.049  0.00  0.00    -0.275 OA
ENDBRANCH   1  10
BRANCH   1  12
ATOM     12  C   UNL     1      -0.403  -3.316  -4.371  0.00  0.00    +0.000 A 
ATOM     13  C   UNL     1      -1.550  -4.028  -4.496  0.00  0.00    +0.013 A 
ATOM     14  C   UNL     1      -1.623  -5.018  -5.457  0.00  0.00    +0.036 A 
ATOM     15  C   UNL     1      -0.546  -5.248  -6.247  0.00  0.00    +0.142 A 
ATOM     16  S   UNL     1       0.621  -4.040  -5.642  0.00  0.00    -0.073 S 
BRANCH  15  17
ATOM     17  S   UNL     1      -0.351  -6.429  -7.541  0.00  0.00    +0.062 S 
ATOM     18  O   UNL     1       1.045  -6.665  -7.668  0.00  0.00    -0.153 OA
ATOM     19  O   UNL     1      -1.279  -7.473  -7.281  0.00  0.00    -0.153 OA
BRANCH  17  20
ATOM     20  N   UNL     1      -0.838  -5.701  -8.946  0.00  0.00    -0.203 NA
ATOM     21  H   UNL     1      -1.154  -4.784  -8.933  0.00  0.00    +0.144 HD
ATOM     22  H   UNL     1      -0.806  -6.191  -9.782  0.00  0.00    +0.144 HD
ENDBRANCH  17  20
ENDBRANCH  15  17
ENDBRANCH   1  12
TORSDOF 4
