REMARK  Name = ZINC39697129
REMARK  5 active torsions:
REMARK  status: ('A' for Active; 'I' for Inactive)
REMARK    1  A    between atoms: C_1  and  C_2
REMARK    2  A    between atoms: C_5  and  C_8
REMARK    3  A    between atoms: C_8  and  N_9
REMARK    4  A    between atoms: C_10  and  C_12
REMARK    5  A    between atoms: C_23  and  C_25
REMARK                            x       y       z     vdW  Elec       q    Type
REMARK                         _______ _______ _______ _____ _____    ______ ____
ROOT
ATOM      1  C   UNL     1      -2.947  -6.540  -0.338  0.00  0.00    +0.100 C 
ATOM      2  C   UNL     1      -3.614  -5.996  -1.621  0.00  0.00    +0.121 C 
ATOM      3  N   UNL     1      -3.401  -7.059  -2.632  0.00  0.00    -0.300 N 
ATOM      4  C   UNL     1      -3.596  -8.324  -1.884  0.00  0.00    +0.115 C 
ATOM      5  C   UNL     1      -2.940  -8.068  -0.512  0.00  0.00    -0.004 C 
ATOM      6  C   UNL     1      -3.755  -8.730   0.594  0.00  0.00    -0.010 C 
ATOM      7  C   UNL     1      -3.684 -10.251   0.433  0.00  0.00    -0.082 C 
ATOM      8  N   UNL     1      -2.285 -10.688   0.500  0.00  0.00    +0.379 N 
ATOM      9  C   UNL     1      -1.529 -10.120  -0.623  0.00  0.00    -0.082 C 
ATOM     10  C   UNL     1      -1.508  -8.594  -0.507  0.00  0.00    -0.010 C 
ATOM     11  C   UNL     1      -3.100  -6.909  -3.937  0.00  0.00    +0.219 C 
ATOM     12  O   UNL     1      -2.956  -7.885  -4.643  0.00  0.00    -0.275 OA
ATOM     13  H   UNL     1      -1.878 -10.377   1.369  0.00  0.00    -0.086 HD
ATOM     14  H   UNL     1      -2.246 -11.695   0.455  0.00  0.00    -0.086 HD
ENDROOT
BRANCH  11  15
ATOM     15  C   UNL     1      -2.942  -5.528  -4.520  0.00  0.00    +0.079 C 
ATOM     16  C   UNL     1      -2.612  -5.634  -6.014  0.00  0.00    +0.017 C 
ATOM     17  C   UNL     1      -2.282  -4.234  -6.538  0.00  0.00    +0.027 C 
ATOM     18  C   UNL     1      -3.344  -3.261  -6.116  0.00  0.00    -0.031 C 
ATOM     19  C   UNL     1      -4.198  -3.485  -5.169  0.00  0.00    -0.030 C 
ATOM     20  C   UNL     1      -4.250  -4.750  -4.362  0.00  0.00    +0.039 C 
ENDBRANCH  11  15
BRANCH   1  22
ATOM     21  N   UNL     1      -0.976  -5.867   0.997  0.00  0.00    -0.309 N 
ATOM     22  C   UNL     1      -1.538  -6.019  -0.218  0.00  0.00    +0.219 C 
ATOM     23  O   UNL     1      -0.909  -5.736  -1.216  0.00  0.00    -0.275 OA
ATOM     24  H   UNL     1      -1.479  -6.092   1.796  0.00  0.00    +0.149 HD
BRANCH  21  25
ATOM     25  C   UNL     1       0.394  -5.360   1.113  0.00  0.00    +0.161 C 
BRANCH  25  30
ATOM     26  C   UNL     1       1.873  -5.125   6.601  0.00  0.00    +0.067 C 
ATOM     27  C   UNL     1       1.487  -5.200   5.146  0.00  0.00    +0.056 A 
ATOM     28  C   UNL     1       0.798  -4.154   4.558  0.00  0.00    +0.134 A 
ATOM     29  N   UNL     1       0.460  -4.220   3.282  0.00  0.00    -0.255 NA
ATOM     30  C   UNL     1       0.780  -5.285   2.568  0.00  0.00    +0.076 A 
ATOM     31  C   UNL     1       1.468  -6.331   3.156  0.00  0.00    +0.136 A 
ATOM     32  N   UNL     1       1.810  -6.263   4.431  0.00  0.00    -0.257 NA
ENDBRANCH  25  30
ENDBRANCH  21  25
ENDBRANCH   1  22
TORSDOF 4
