REMARK  Name = ZINC20205641
REMARK  10 active torsions:
REMARK  status: ('A' for Active; 'I' for Inactive)
REMARK    1  A    between atoms: C_1  and  O_2
REMARK    2  A    between atoms: O_2  and  C_3
REMARK    3  A    between atoms: C_8  and  O_9
REMARK    4  A    between atoms: O_9  and  C_10
REMARK    5  A    between atoms: C_10  and  C_11
REMARK    6  A    between atoms: C_11  and  O_12
REMARK    7  A    between atoms: O_12  and  C_13
REMARK    8  A    between atoms: C_16  and  C_19
REMARK    9  A    between atoms: C_30  and  S_31
REMARK   10  A    between atoms: S_31  and  C_34
REMARK                            x       y       z     vdW  Elec       q    Type
REMARK                         _______ _______ _______ _____ _____    ______ ____
ROOT
ATOM      1  C   UNL     1      -2.899  -5.655   1.413  0.00  0.00    +0.121 A 
ATOM      2  C   UNL     1      -2.136  -6.075   2.498  0.00  0.00    +0.046 A 
ATOM      3  C   UNL     1      -2.750  -6.504   3.646  0.00  0.00    +0.011 A 
ATOM      4  C   UNL     1      -4.150  -6.519   3.726  0.00  0.00    -0.024 A 
ATOM      5  C   UNL     1      -4.914  -6.095   2.629  0.00  0.00    +0.011 A 
ATOM      6  C   UNL     1      -4.288  -5.663   1.488  0.00  0.00    +0.046 A 
ENDROOT
BRANCH   4   7
ATOM      7  C   UNL     1      -4.812  -6.977   4.950  0.00  0.00    +0.024 C 
ATOM      8  C   UNL     1      -5.935  -6.327   5.409  0.00  0.00    +0.078 C 
ATOM      9  C   UNL     1      -6.751  -6.865   6.536  0.00  0.00    +0.117 C 
ATOM     10  N   UNL     1      -6.245  -7.542   7.531  0.00  0.00    -0.386 N 
ATOM     11  N   UNL     1      -8.124  -6.567   6.419  0.00  0.00    -0.203 N 
ATOM     12  C   UNL     1      -8.496  -5.484   5.651  0.00  0.00    +0.183 C 
ATOM     13  N   UNL     1      -7.706  -4.734   4.917  0.00  0.00    -0.152 NA
ATOM     14  C   UNL     1      -6.398  -5.048   4.816  0.00  0.00    +0.273 C 
ATOM     15  O   UNL     1      -5.616  -4.304   4.247  0.00  0.00    -0.268 OA
ATOM     16  S   UNL     1     -10.146  -5.402   5.882  0.00  0.00    +0.049 S 
ATOM     17  N   UNL     1     -10.354  -6.767   6.833  0.00  0.00    -0.174 NA
ATOM     18  C   UNL     1      -9.154  -7.231   6.994  0.00  0.00    +0.257 C 
ATOM     19  H   UNL     1      -5.311  -7.803   7.515  0.00  0.00    +0.157 HD
ATOM     20  H   UNL     1      -6.803  -7.785   8.286  0.00  0.00    +0.157 HD
BRANCH  18  21
ATOM     21  S   UNL     1      -8.870  -8.691   7.939  0.00  0.00    +0.026 S 
ATOM     22  O   UNL     1     -10.116  -9.374   7.933  0.00  0.00    -0.167 OA
ATOM     23  O   UNL     1      -7.717  -9.282   7.355  0.00  0.00    -0.167 OA
ATOM     24  C   UNL     1      -8.491  -8.098   9.610  0.00  0.00    +0.203 C 
ENDBRANCH  18  21
ENDBRANCH   4   7
BRANCH   1  25
ATOM     25  O   UNL     1      -2.286  -5.231   0.280  0.00  0.00    -0.489 OA
BRANCH  25  26
ATOM     26  C   UNL     1      -0.857  -5.249   0.270  0.00  0.00    +0.270 C 
BRANCH  26  27
ATOM     27  C   UNL     1      -0.351  -4.740  -1.081  0.00  0.00    +0.270 C 
BRANCH  27  28
ATOM     28  O   UNL     1      -0.713  -3.367  -1.240  0.00  0.00    -0.485 OA
BRANCH  28  34
ATOM     29  C   UNL     1      -0.655  -1.422  -2.617  0.00  0.00    +0.161 A 
ATOM     30  C   UNL     1      -0.263  -0.804  -3.793  0.00  0.00    +0.049 A 
ATOM     31  C   UNL     1       0.440  -1.517  -4.747  0.00  0.00    +0.004 A 
ATOM     32  C   UNL     1       0.752  -2.846  -4.530  0.00  0.00    +0.004 A 
ATOM     33  C   UNL     1       0.364  -3.469  -3.358  0.00  0.00    +0.049 A 
ATOM     34  C   UNL     1      -0.335  -2.758  -2.396  0.00  0.00    +0.162 A 
BRANCH  29  36
ATOM     35  C   UNL     1      -1.638   0.645  -1.972  0.00  0.00    +0.277 C 
ATOM     36  O   UNL     1      -1.345  -0.722  -1.677  0.00  0.00    -0.491 OA
ENDBRANCH  29  36
ENDBRANCH  28  34
ENDBRANCH  27  28
ENDBRANCH  26  27
ENDBRANCH  25  26
ENDBRANCH   1  25
TORSDOF 8
