REMARK  Name = ZINC36583028
REMARK  15 active torsions:
REMARK  status: ('A' for Active; 'I' for Inactive)
REMARK    1  A    between atoms: C_1  and  C_2
REMARK    2  A    between atoms: C_2  and  C_3
REMARK    3  A    between atoms: C_3  and  C_5
REMARK    4  A    between atoms: C_3  and  C_11
REMARK    5  A    between atoms: N_13  and  C_14
REMARK    6  A    between atoms: N_13  and  C_34
REMARK    7  A    between atoms: C_14  and  C_16
REMARK    8  A    between atoms: C_14  and  C_25
REMARK    9  A    between atoms: C_17  and  O_24
REMARK   10  A    between atoms: C_19  and  O_23
REMARK   11  A    between atoms: C_21  and  O_22
REMARK   12  A    between atoms: N_27  and  C_28
REMARK   13  A    between atoms: C_34  and  C_35
REMARK   14  A    between atoms: C_34  and  C_36
REMARK   15  A    between atoms: C_34  and  C_37
REMARK                            x       y       z     vdW  Elec       q    Type
REMARK                         _______ _______ _______ _____ _____    ______ ____
ROOT
ATOM      1  C   UNL     1       3.602   2.031  -3.384  0.00  0.00    +0.200 C 
ENDROOT
BRANCH   1   2
ATOM      2  C   UNL     1       4.293   3.118  -2.602  0.00  0.00    +0.065 A 
ATOM      3  C   UNL     1       3.673   3.675  -1.492  0.00  0.00    +0.129 A 
ATOM      4  C   UNL     1       4.309   4.675  -0.772  0.00  0.00    +0.091 A 
ATOM      5  C   UNL     1       5.564   5.119  -1.161  0.00  0.00    +0.124 A 
ATOM      6  C   UNL     1       6.183   4.562  -2.270  0.00  0.00    +0.091 A 
ATOM      7  C   UNL     1       5.550   3.558  -2.988  0.00  0.00    +0.129 A 
BRANCH   7   8
ATOM      8  O   UNL     1       6.159   3.010  -4.071  0.00  0.00    -0.506 OA
ATOM      9  H   UNL     1       5.962   3.461  -4.904  0.00  0.00    +0.292 HD
ENDBRANCH   7   8
BRANCH   5  10
ATOM     10  O   UNL     1       6.186   6.100  -0.457  0.00  0.00    -0.507 OA
ATOM     11  H   UNL     1       6.743   5.774   0.264  0.00  0.00    +0.292 HD
ENDBRANCH   5  10
BRANCH   3  12
ATOM     12  O   UNL     1       2.444   3.240  -1.111  0.00  0.00    -0.506 OA
ATOM     13  H   UNL     1       2.462   2.564  -0.420  0.00  0.00    +0.292 HD
ENDBRANCH   3  12
ENDBRANCH   1   2
BRANCH   1  14
ATOM     14  C   UNL     1       2.527   2.639  -4.248  0.00  0.00    +0.239 C 
ATOM     15  O   UNL     1       1.385   2.699  -3.843  0.00  0.00    -0.273 OA
ATOM     16  N   UNL     1       2.835   3.117  -5.470  0.00  0.00    -0.311 N 
ATOM     17  H   UNL     1       3.748   3.069  -5.793  0.00  0.00    +0.149 HD
BRANCH  16  18
ATOM     18  C   UNL     1       1.790   3.708  -6.310  0.00  0.00    +0.073 C 
ATOM     19  C   UNL     1       1.071   2.602  -7.084  0.00  0.00    +0.022 C 
ATOM     20  C   UNL     1      -0.020   3.219  -7.961  0.00  0.00    +0.002 C 
ATOM     21  C   UNL     1       0.614   4.203  -8.947  0.00  0.00    +0.000 C 
ATOM     22  C   UNL     1       1.333   5.309  -8.172  0.00  0.00    +0.002 C 
ATOM     23  C   UNL     1       2.424   4.692  -7.295  0.00  0.00    +0.022 C 
ENDBRANCH  16  18
ENDBRANCH   1  14
BRANCH   1  26
ATOM     24  C   UNL     1       3.741   0.524  -1.474  0.00  0.00    +0.224 C 
ATOM     25  O   UNL     1       3.223  -0.207  -0.657  0.00  0.00    -0.275 OA
ATOM     26  N   UNL     1       2.998   1.071  -2.457  0.00  0.00    -0.280 N 
BRANCH  26  27
ATOM     27  C   UNL     1       1.586   0.705  -2.598  0.00  0.00    +0.030 C 
ATOM     28  C   UNL     1       1.305  -0.563  -1.788  0.00  0.00    +0.031 C 
ATOM     29  C   UNL     1       0.709   1.846  -2.080  0.00  0.00    +0.031 C 
ATOM     30  C   UNL     1       1.271   0.448  -4.073  0.00  0.00    +0.031 C 
ENDBRANCH  26  27
BRANCH  24  31
ATOM     31  C   UNL     1       5.216   0.821  -1.391  0.00  0.00    +0.105 C 
BRANCH  31  32
ATOM     32  C   UNL     1       5.606   1.031   0.050  0.00  0.00    -0.036 A 
ATOM     33  C   UNL     1       5.421   0.016   0.970  0.00  0.00    +0.004 A 
ATOM     34  C   UNL     1       5.779   0.209   2.292  0.00  0.00    +0.000 A 
ATOM     35  C   UNL     1       6.320   1.416   2.692  0.00  0.00    +0.000 A 
ATOM     36  C   UNL     1       6.505   2.430   1.772  0.00  0.00    +0.000 A 
ATOM     37  C   UNL     1       6.152   2.236   0.450  0.00  0.00    +0.004 A 
ENDBRANCH  31  32
BRANCH  31  39
ATOM     38  C   UNL     1       5.691  -0.501  -3.457  0.00  0.00    +0.005 C 
ATOM     39  C   UNL     1       6.007  -0.355  -1.967  0.00  0.00    +0.014 C 
ENDBRANCH  31  39
ENDBRANCH  24  31
ENDBRANCH   1  26
TORSDOF 11
