REMARK  Name = ZINC65133759
REMARK  10 active torsions:
REMARK  status: ('A' for Active; 'I' for Inactive)
REMARK    1  A    between atoms: C_1  and  C_2
REMARK    2  A    between atoms: C_2  and  C_3
REMARK    3  A    between atoms: C_2  and  C_4
REMARK    4  A    between atoms: C_4  and  C_5
REMARK    5  A    between atoms: C_5  and  N_6
REMARK    6  A    between atoms: N_9  and  N_10
REMARK    7  A    between atoms: C_11  and  C_13
REMARK    8  A    between atoms: C_13  and  C_14
REMARK    9  A    between atoms: C_13  and  N_15
REMARK   10  A    between atoms: C_16  and  C_18
REMARK                            x       y       z     vdW  Elec       q    Type
REMARK                         _______ _______ _______ _____ _____    ______ ____
ROOT
ATOM      1  N   UNL     1       2.017  -1.528   5.862  0.00  0.00    -0.232 N 
ATOM      2  C   UNL     1       2.668  -1.975   6.954  0.00  0.00    +0.249 C 
ATOM      3  O   UNL     1       2.211  -1.771   8.059  0.00  0.00    -0.272 OA
ATOM      4  H   UNL     1       2.382  -1.692   4.979  0.00  0.00    +0.173 HD
ENDROOT
BRANCH   1   8
ATOM      5  N   UNL     1       0.667  -0.609   3.684  0.00  0.00    -0.298 N 
ATOM      6  C   UNL     1       0.159  -0.382   4.912  0.00  0.00    +0.316 C 
ATOM      7  O   UNL     1      -0.887   0.225   5.034  0.00  0.00    -0.251 OA
ATOM      8  N   UNL     1       0.811  -0.829   6.004  0.00  0.00    -0.218 N 
ATOM      9  H   UNL     1       1.502  -1.093   3.586  0.00  0.00    +0.150 HD
ATOM     10  H   UNL     1       0.446  -0.665   6.887  0.00  0.00    +0.174 HD
BRANCH   5  11
ATOM     11  C   UNL     1      -0.042  -0.124   2.497  0.00  0.00    +0.106 C 
BRANCH  11  12
ATOM     12  C   UNL     1       0.742  -0.511   1.242  0.00  0.00    +0.022 C 
BRANCH  12  14
ATOM     13  C   UNL     1      -0.019   1.526   0.010  0.00  0.00    +0.007 C 
ATOM     14  C   UNL     1       0.002  -0.004   0.002  0.00  0.00    -0.016 C 
ATOM     15  C   UNL     1       0.718  -0.497  -1.257  0.00  0.00    +0.007 C 
ENDBRANCH  12  14
ENDBRANCH  11  12
ENDBRANCH   5  11
ENDBRANCH   1   8
BRANCH   2  16
ATOM     16  C   UNL     1       3.965  -2.728   6.803  0.00  0.00    +0.158 C 
ATOM     17  C   UNL     1       3.727  -3.990   5.972  0.00  0.00    +0.038 C 
BRANCH  16  18
ATOM     18  N   UNL     1       4.470  -3.102   8.126  0.00  0.00    -0.300 N 
ATOM     19  C   UNL     1       5.789  -3.314   8.308  0.00  0.00    +0.246 C 
ATOM     20  O   UNL     1       6.559  -3.195   7.375  0.00  0.00    -0.270 OA
ATOM     21  H   UNL     1       3.856  -3.196   8.871  0.00  0.00    +0.150 HD
BRANCH  19  22
ATOM     22  C   UNL     1       6.298  -3.691   9.643  0.00  0.00    +0.056 A 
ATOM     23  C   UNL     1       5.417  -3.834  10.716  0.00  0.00    +0.014 A 
ATOM     24  C   UNL     1       5.898  -4.186  11.959  0.00  0.00    +0.002 A 
ATOM     25  C   UNL     1       7.253  -4.398  12.147  0.00  0.00    +0.021 A 
ATOM     26  C   UNL     1       8.134  -4.258  11.089  0.00  0.00    +0.060 A 
ATOM     27  C   UNL     1       7.664  -3.912   9.836  0.00  0.00    +0.071 A 
ATOM     28 CL   UNL     1       8.769  -3.744   8.507  0.00  0.00    -0.081 Cl
ATOM     29 CL   UNL     1       9.832  -4.526  11.335  0.00  0.00    -0.082 Cl
ENDBRANCH  19  22
ENDBRANCH  16  18
ENDBRANCH   2  16
TORSDOF 7
