REMARK  Name = ZINC22067032
REMARK  9 active torsions:
REMARK  status: ('A' for Active; 'I' for Inactive)
REMARK    1  A    between atoms: C_1  and  C_2
REMARK    2  A    between atoms: C_5  and  S_8
REMARK    3  A    between atoms: S_8  and  O_11
REMARK    4  A    between atoms: O_11  and  C_12
REMARK    5  A    between atoms: C_12  and  C_13
REMARK    6  A    between atoms: C_15  and  O_33
REMARK    7  A    between atoms: C_17  and  O_32
REMARK    8  A    between atoms: C_19  and  N_22
REMARK    9  A    between atoms: C_30  and  N_31
REMARK                            x       y       z     vdW  Elec       q    Type
REMARK                         _______ _______ _______ _____ _____    ______ ____
ROOT
ATOM      1  C   UNL     1      -4.047   3.392  -3.500  0.00  0.00    +0.180 C 
ATOM      2  C   UNL     1      -4.595   2.142  -4.234  0.00  0.00    +0.178 C 
ATOM      3  C   UNL     1      -4.307   2.483  -5.716  0.00  0.00    +0.195 C 
ATOM      4  C   UNL     1      -3.199   3.552  -5.649  0.00  0.00    +0.253 C 
ATOM      5  O   UNL     1      -2.872   3.742  -4.262  0.00  0.00    -0.346 OA
ENDROOT
BRANCH   4   6
ATOM      6  N   UNL     1      -2.017   3.091  -6.381  0.00  0.00    -0.286 N 
ATOM      7  C   UNL     1      -0.940   2.446  -5.850  0.00  0.00    +0.203 A 
ATOM      8  N   UNL     1      -0.074   2.183  -6.785  0.00  0.00    -0.231 NA
ATOM      9  C   UNL     1      -0.539   2.640  -7.972  0.00  0.00    +0.147 A 
ATOM     10  C   UNL     1      -1.794   3.223  -7.729  0.00  0.00    +0.167 A 
ATOM     11  N   UNL     1      -2.471   3.746  -8.745  0.00  0.00    -0.216 NA
ATOM     12  C   UNL     1      -1.978   3.719  -9.965  0.00  0.00    +0.225 A 
ATOM     13  N   UNL     1      -0.805   3.180 -10.243  0.00  0.00    -0.219 NA
ATOM     14  C   UNL     1      -0.052   2.639  -9.290  0.00  0.00    +0.147 A 
BRANCH  14  15
ATOM     15  N   UNL     1       1.175   2.075  -9.592  0.00  0.00    -0.341 N 
ATOM     16  H   UNL     1       1.544   2.082 -10.628  0.00  0.00    +0.144 HD
ATOM     17  H   UNL     1       1.782   1.620  -8.795  0.00  0.00    +0.144 HD
ENDBRANCH  14  15
ENDBRANCH   4   6
BRANCH   3  18
ATOM     18  O   UNL     1      -5.476   3.013  -6.346  0.00  0.00    -0.385 OA
ATOM     19  H   UNL     1      -5.443   3.308  -7.405  0.00  0.00    +0.210 HD
ENDBRANCH   3  18
BRANCH   2  20
ATOM     20  O   UNL     1      -3.888   0.966  -3.835  0.00  0.00    -0.386 OA
ATOM     21  H   UNL     1      -4.157  -0.010  -4.266  0.00  0.00    +0.210 HD
ENDBRANCH   2  20
BRANCH   1  22
ATOM     22  C   UNL     1      -3.671   3.049  -2.057  0.00  0.00    +0.228 C 
BRANCH  22  23
ATOM     23  O   UNL     1      -3.182   4.220  -1.401  0.00  0.00    -0.232 OA
BRANCH  23  24
ATOM     24  S   UNL     1      -2.775   3.993   0.048  0.00  0.00    +0.112 S 
ATOM     25  O   UNL     1      -3.733   3.102   0.604  0.00  0.00    -0.142 OA
ATOM     26  O   UNL     1      -2.517   5.276   0.603  0.00  0.00    -0.142 OA
BRANCH  24  31
ATOM     27  C   UNL     1       2.490   1.048  -0.016  0.00  0.00    +0.044 C 
ATOM     28  C   UNL     1       1.175   1.783   0.000  0.00  0.00    -0.050 A 
ATOM     29  C   UNL     1      -0.013   1.076   0.008  0.00  0.00    +0.005 A 
ATOM     30  C   UNL     1      -1.219   1.751   0.017  0.00  0.00    +0.030 A 
ATOM     31  C   UNL     1      -1.238   3.133   0.030  0.00  0.00    +0.117 A 
ATOM     32  C   UNL     1      -0.050   3.840   0.022  0.00  0.00    +0.030 A 
ATOM     33  C   UNL     1       1.156   3.165   0.008  0.00  0.00    +0.005 A 
ENDBRANCH  24  31
ENDBRANCH  23  24
ENDBRANCH  22  23
ENDBRANCH   1  22
TORSDOF 8
