REMARK  Name = ZINC39771721
REMARK  9 active torsions:
REMARK  status: ('A' for Active; 'I' for Inactive)
REMARK    1  A    between atoms: C_1  and  C_2
REMARK    2  A    between atoms: C_2  and  C_3
REMARK    3  A    between atoms: C_3  and  N_4
REMARK    4  A    between atoms: C_5  and  C_7
REMARK    5  A    between atoms: C_7  and  C_9
REMARK    6  A    between atoms: C_7  and  S_10
REMARK    7  A    between atoms: S_10  and  C_11
REMARK    8  A    between atoms: C_15  and  C_20
REMARK    9  A    between atoms: N_16  and  C_17
REMARK                            x       y       z     vdW  Elec       q    Type
REMARK                         _______ _______ _______ _____ _____    ______ ____
ROOT
ATOM      1  C   UNL     1      -3.926  -6.682   0.713  0.00  0.00    +0.238 C 
ATOM      2  N   UNL     1      -3.604  -7.350  -0.559  0.00  0.00    -0.237 N 
ATOM      3  N   UNL     1      -2.274  -7.774  -0.461  0.00  0.00    -0.169 NA
ATOM      4  C   UNL     1      -1.757  -7.450   0.695  0.00  0.00    +0.147 C 
ATOM      5  N   UNL     1      -2.685  -6.776   1.499  0.00  0.00    -0.282 N 
ATOM      6  H   UNL     1      -4.198  -7.473  -1.316  0.00  0.00    +0.171 HD
ENDROOT
BRANCH   4   7
ATOM      7  C   UNL     1      -0.441  -7.744   1.083  0.00  0.00    +0.022 C 
ATOM      8  C   UNL     1       0.560  -8.322   0.301  0.00  0.00    +0.006 A 
ATOM      9  C   UNL     1       0.585  -8.770  -1.036  0.00  0.00    +0.010 A 
ATOM     10  C   UNL     1       1.725  -9.303  -1.547  0.00  0.00    +0.001 A 
ATOM     11  C   UNL     1       2.885  -9.421  -0.779  0.00  0.00    +0.002 A 
ATOM     12  C   UNL     1       2.933  -9.011   0.513  0.00  0.00    +0.026 A 
ATOM     13  C   UNL     1       1.780  -8.444   1.116  0.00  0.00    +0.043 A 
ATOM     14  N   UNL     1       1.572  -7.976   2.331  0.00  0.00    -0.380 N 
ATOM     15  C   UNL     1       0.192  -7.493   2.434  0.00  0.00    +0.152 C 
ATOM     16  H   UNL     1       2.230  -7.952   3.043  0.00  0.00    +0.160 HD
ENDBRANCH   4   7
BRANCH   5  17
ATOM     17  C   UNL     1      -2.465  -6.264   2.854  0.00  0.00    +0.078 C 
ATOM     18  C   UNL     1      -3.661  -5.639   3.575  0.00  0.00    +0.024 C 
ATOM     19  C   UNL     1      -2.530  -4.748   3.055  0.00  0.00    +0.024 C 
ENDBRANCH   5  17
BRANCH   1  20
ATOM     20  S   UNL     1      -4.364  -4.945   0.425  0.00  0.00    -0.106 S 
BRANCH  20  21
ATOM     21  C   UNL     1      -2.919  -4.265  -0.435  0.00  0.00    +0.132 C 
ATOM     22  C   UNL     1      -2.771  -4.943  -1.799  0.00  0.00    +0.029 C 
BRANCH  21  24
ATOM     23  N   UNL     1      -2.033  -1.996  -0.866  0.00  0.00    -0.314 N 
ATOM     24  C   UNL     1      -3.102  -2.782  -0.629  0.00  0.00    +0.226 C 
ATOM     25  O   UNL     1      -4.211  -2.295  -0.572  0.00  0.00    -0.275 OA
ATOM     26  H   UNL     1      -1.145  -2.385  -0.912  0.00  0.00    +0.149 HD
BRANCH  23  27
ATOM     27  C   UNL     1      -2.211  -0.554  -1.055  0.00  0.00    +0.104 C 
BRANCH  27  29
ATOM     28  C   UNL     1      -1.036   1.605  -1.503  0.00  0.00    +0.005 C 
ATOM     29  C   UNL     1      -0.850   0.099  -1.306  0.00  0.00    +0.015 C 
ENDBRANCH  27  29
ENDBRANCH  23  27
ENDBRANCH  21  24
ENDBRANCH  20  21
ENDBRANCH   1  20
TORSDOF 7
