REMARK  Name = ZINC64867646
REMARK  6 active torsions:
REMARK  status: ('A' for Active; 'I' for Inactive)
REMARK    1  A    between atoms: C_1  and  C_2
REMARK    2  A    between atoms: C_2  and  C_3
REMARK    3  A    between atoms: C_5  and  C_22
REMARK    4  A    between atoms: C_6  and  C_8
REMARK    5  A    between atoms: N_10  and  C_11
REMARK    6  A    between atoms: C_12  and  C_20
REMARK                            x       y       z     vdW  Elec       q    Type
REMARK                         _______ _______ _______ _____ _____    ______ ____
ROOT
ATOM      1  C   UNL     1       1.765  -1.774  -4.949  0.00  0.00    +0.257 C 
ATOM      2  O   UNL     1       2.883  -2.070  -5.328  0.00  0.00    -0.269 OA
ATOM      3  N   UNL     1       0.722  -1.856  -5.798  0.00  0.00    -0.274 N 
ATOM      4  H   UNL     1      -0.169  -1.620  -5.496  0.00  0.00    +0.156 HD
ENDROOT
BRANCH   3   5
ATOM      5  C   UNL     1       0.923  -2.279  -7.104  0.00  0.00    +0.090 A 
ATOM      6  C   UNL     1      -0.021  -2.419  -8.108  0.00  0.00    +0.084 A 
ATOM      7  C   UNL     1       0.448  -2.883  -9.401  0.00  0.00    -0.018 A 
ATOM      8  C   UNL     1       1.777  -3.123  -9.453  0.00  0.00    -0.004 A 
ATOM      9  S   UNL     1       2.366  -2.733  -7.831  0.00  0.00    -0.077 S 
ATOM     10  C   UNL     1       2.558  -3.609 -10.634  0.00  0.00    +0.043 C 
ATOM     11  C   UNL     1       1.569  -4.155 -11.675  0.00  0.00    +0.005 C 
ATOM     12  C   UNL     1       0.441  -3.138 -11.868  0.00  0.00    +0.005 C 
ATOM     13  C   UNL     1      -0.441  -3.093 -10.618  0.00  0.00    +0.037 C 
BRANCH   6  14
ATOM     14  C   UNL     1      -1.403  -2.118  -7.881  0.00  0.00    +0.102 C 
ATOM     15  N   UNL     1      -2.499  -1.879  -7.700  0.00  0.00    -0.191 NA
ENDBRANCH   6  14
ENDBRANCH   3   5
BRANCH   1  19
ATOM     16  C   UNL     1       0.707  -0.490  -1.238  0.00  0.00    +0.079 A 
ATOM     17  N   UNL     1       1.985  -0.748  -1.399  0.00  0.00    -0.248 NA
ATOM     18  C   UNL     1       2.462  -1.169  -2.545  0.00  0.00    +0.058 A 
ATOM     19  C   UNL     1       1.553  -1.326  -3.569  0.00  0.00    +0.097 A 
ATOM     20  S   UNL     1       0.045  -0.839  -2.745  0.00  0.00    -0.067 S 
ATOM     21  C   UNL     1       3.927  -1.466  -2.732  0.00  0.00    +0.067 C 
BRANCH  16  23
ATOM     22  C   UNL     1      -0.019   1.526   0.010  0.00  0.00    +0.011 C 
ATOM     23  C   UNL     1       0.002  -0.004   0.002  0.00  0.00    +0.059 C 
ENDBRANCH  16  23
ENDBRANCH   1  19
TORSDOF 4
