REMARK  Name = ZINC66739644
REMARK  3 active torsions:
REMARK  status: ('A' for Active; 'I' for Inactive)
REMARK    1  A    between atoms: C_1  and  C_2
REMARK    2  A    between atoms: C_2  and  N_3
REMARK    3  A    between atoms: C_7  and  C_23
REMARK                            x       y       z     vdW  Elec       q    Type
REMARK                         _______ _______ _______ _____ _____    ______ ____
ROOT
ATOM      1  N   UNL     1       0.711  -0.489   1.189  0.00  0.00    -0.268 N 
ATOM      2  C   UNL     1       2.073  -0.724   1.234  0.00  0.00    +0.044 A 
ATOM      3  C   UNL     1       3.032  -0.576   0.231  0.00  0.00    +0.024 A 
ATOM      4  C   UNL     1       4.344  -0.887   0.555  0.00  0.00    +0.005 A 
ATOM      5  C   UNL     1       4.700  -1.327   1.814  0.00  0.00    -0.050 A 
ATOM      6  C   UNL     1       3.754  -1.480   2.822  0.00  0.00    +0.013 A 
ATOM      7  C   UNL     1       2.448  -1.172   2.506  0.00  0.00    +0.025 A 
ATOM      8  C   UNL     1       1.194  -1.218   3.322  0.00  0.00    +0.207 C 
ATOM      9  C   UNL     1       0.112  -0.755   2.369  0.00  0.00    +0.267 C 
ATOM     10  O   UNL     1      -1.070  -0.646   2.618  0.00  0.00    -0.271 OA
ATOM     11  N   UNL     1       0.917  -2.584   3.770  0.00  0.00    -0.297 N 
ATOM     12  C   UNL     1       1.608  -3.078   4.866  0.00  0.00    +0.133 A 
ATOM     13  C   UNL     1       2.045  -2.155   5.837  0.00  0.00    +0.076 A 
ATOM     14  C   UNL     1       2.759  -2.617   6.940  0.00  0.00    +0.018 A 
ATOM     15  C   UNL     1       2.996  -3.979   7.038  0.00  0.00    +0.021 A 
ATOM     16  C   UNL     1       2.522  -4.827   6.053  0.00  0.00    +0.113 A 
ATOM     17  N   UNL     1       1.853  -4.366   5.011  0.00  0.00    -0.240 NA
ATOM     18  C   UNL     1       1.723  -0.729   5.658  0.00  0.00    +0.250 C 
ATOM     19  O   UNL     1       1.857   0.053   6.580  0.00  0.00    -0.270 OA
ATOM     20  N   UNL     1       1.276  -0.301   4.457  0.00  0.00    -0.279 N 
ATOM     21  C   UNL     1       6.144  -1.649   2.102  0.00  0.00    +0.044 C 
ATOM     22  H   UNL     1       0.263  -3.133   3.309  0.00  0.00    +0.150 HD
ATOM     23  H   UNL     1       1.007   0.624   4.347  0.00  0.00    +0.152 HD
ENDROOT
BRANCH   1  25
ATOM     24  C   UNL     1      -0.019   1.526   0.010  0.00  0.00    +0.025 C 
ATOM     25  C   UNL     1       0.002  -0.004   0.002  0.00  0.00    +0.110 C 
ENDBRANCH   1  25
TORSDOF 1
