REMARK  Name = ZINC26058448
REMARK  11 active torsions:
REMARK  status: ('A' for Active; 'I' for Inactive)
REMARK    1  A    between atoms: C_1  and  C_2
REMARK    2  A    between atoms: C_2  and  O_3
REMARK    3  A    between atoms: O_3  and  C_4
REMARK    4  A    between atoms: C_4  and  C_6
REMARK    5  A    between atoms: C_7  and  C_32
REMARK    6  A    between atoms: C_8  and  C_13
REMARK    7  A    between atoms: C_11  and  C_12
REMARK    8  A    between atoms: N_15  and  C_16
REMARK    9  A    between atoms: C_16  and  C_17
REMARK   10  A    between atoms: C_22  and  S_23
REMARK   11  A    between atoms: S_23  and  N_26
REMARK                            x       y       z     vdW  Elec       q    Type
REMARK                         _______ _______ _______ _____ _____    ______ ____
ROOT
ATOM      1  C   UNL     1      -1.584  -5.391  -2.226  0.00  0.00    +0.261 C 
ATOM      2  O   UNL     1      -1.782  -5.555  -3.415  0.00  0.00    -0.269 OA
ATOM      3  N   UNL     1      -1.417  -6.457  -1.417  0.00  0.00    -0.306 N 
ATOM      4  H   UNL     1      -1.321  -6.313  -0.331  0.00  0.00    +0.149 HD
ENDROOT
BRANCH   1   7
ATOM      5  C   UNL     1      -1.497  -1.810  -1.463  0.00  0.00    +0.083 A 
ATOM      6  C   UNL     1      -1.585  -2.875  -2.389  0.00  0.00    -0.006 A 
ATOM      7  C   UNL     1      -1.527  -4.033  -1.672  0.00  0.00    +0.106 A 
ATOM      8  N   UNL     1      -1.407  -3.710  -0.337  0.00  0.00    -0.354 N 
ATOM      9  H   UNL     1      -1.347  -4.508   0.418  0.00  0.00    +0.166 HD
ATOM     10  C   UNL     1      -1.382  -2.375  -0.206  0.00  0.00    +0.028 A 
ATOM     11  C   UNL     1      -1.256  -1.619   1.092  0.00  0.00    +0.064 C 
ATOM     12  C   UNL     1      -1.717  -2.753  -3.885  0.00  0.00    +0.047 C 
BRANCH   5  13
ATOM     13  C   UNL     1      -1.516  -0.372  -1.778  0.00  0.00    +0.341 C 
ATOM     14  O   UNL     1      -2.573   0.227  -1.816  0.00  0.00    -0.245 OA
BRANCH  13  15
ATOM     15  O   UNL     1      -0.363   0.279  -2.026  0.00  0.00    -0.461 OA
BRANCH  15  17
ATOM     16  C   UNL     1       0.943   2.259  -2.580  0.00  0.00    +0.048 C 
ATOM     17  C   UNL     1      -0.458   1.696  -2.330  0.00  0.00    +0.229 C 
ENDBRANCH  15  17
ENDBRANCH  13  15
ENDBRANCH   5  13
ENDBRANCH   1   7
BRANCH   3  18
ATOM     18  C   UNL     1      -1.364  -7.806  -1.985  0.00  0.00    +0.141 C 
BRANCH  18  19
ATOM     19  C   UNL     1      -1.287  -8.817  -0.871  0.00  0.00    -0.004 A 
ATOM     20  C   UNL     1      -0.068  -9.366  -0.518  0.00  0.00    +0.007 A 
ATOM     21  C   UNL     1       0.004 -10.290   0.507  0.00  0.00    +0.000 A 
ATOM     22  C   UNL     1      -1.145 -10.673   1.174  0.00  0.00    +0.002 A 
ATOM     23  C   UNL     1      -2.365 -10.129   0.818  0.00  0.00    +0.029 A 
ATOM     24  C   UNL     1      -2.436  -9.201  -0.205  0.00  0.00    +0.110 A 
BRANCH  24  25
ATOM     25  S   UNL     1      -3.990  -8.508  -0.659  0.00  0.00    +0.061 S 
ATOM     26  O   UNL     1      -3.828  -7.096  -0.634  0.00  0.00    -0.153 OA
ATOM     27  O   UNL     1      -4.423  -9.205  -1.819  0.00  0.00    -0.153 OA
BRANCH  25  28
ATOM     28  N   UNL     1      -5.064  -8.882   0.545  0.00  0.00    -0.172 NA
ATOM     29  C   UNL     1      -5.954 -10.048   0.431  0.00  0.00    +0.137 C 
ATOM     30  C   UNL     1      -5.827 -10.876   1.721  0.00  0.00    +0.177 C 
ATOM     31  O   UNL     1      -6.040 -10.023   2.848  0.00  0.00    -0.377 OA
ATOM     32  C   UNL     1      -5.076  -8.976   2.980  0.00  0.00    +0.177 C 
ATOM     33  C   UNL     1      -5.160  -8.054   1.758  0.00  0.00    +0.137 C 
ENDBRANCH  25  28
ENDBRANCH  24  25
ENDBRANCH  18  19
ENDBRANCH   3  18
TORSDOF 8
