REMARK  Name = ZINC18779324
REMARK  6 active torsions:
REMARK  status: ('A' for Active; 'I' for Inactive)
REMARK    1  A    between atoms: C_1  and  C_2
REMARK    2  A    between atoms: C_15  and  C_17
REMARK    3  A    between atoms: C_17  and  S_18
REMARK    4  A    between atoms: S_18  and  C_19
REMARK    5  A    between atoms: C_22  and  C_30
REMARK    6  A    between atoms: N_23  and  C_24
REMARK                            x       y       z     vdW  Elec       q    Type
REMARK                         _______ _______ _______ _____ _____    ______ ____
ROOT
ATOM      1  S   UNL     1       1.680   2.129  -0.003  0.00  0.00    -0.076 S 
ENDROOT
BRANCH   1   2
ATOM      2  C   UNL     1       1.366   3.863   0.010  0.00  0.00    +0.197 A 
ATOM      3  N   UNL     1       0.187   4.442   0.025  0.00  0.00    -0.122 NA
ATOM      4  N   UNL     1       0.321   5.720   0.030  0.00  0.00    -0.128 NA
ATOM      5  C   UNL     1       1.595   6.038   0.020  0.00  0.00    +0.169 A 
ATOM      6  N   UNL     1       2.306   4.858   0.012  0.00  0.00    -0.270 N 
BRANCH   5   7
ATOM      7  C   UNL     1       2.159   7.404   0.022  0.00  0.00    +0.020 A 
ATOM      8  C   UNL     1       3.503   7.607  -0.296  0.00  0.00    +0.014 A 
ATOM      9  C   UNL     1       4.023   8.885  -0.297  0.00  0.00    +0.039 A 
ATOM     10  C   UNL     1       3.217   9.964   0.028  0.00  0.00    +0.123 A 
ATOM     11  C   UNL     1       1.884   9.768   0.350  0.00  0.00    +0.039 A 
ATOM     12  C   UNL     1       1.352   8.495   0.349  0.00  0.00    +0.014 A 
ATOM     13  F   UNL     1       3.733  11.213   0.030  0.00  0.00    -0.205 F 
ENDBRANCH   5   7
BRANCH   6  14
ATOM     14  C   UNL     1       3.699   4.708   0.004  0.00  0.00    +0.051 A 
ATOM     15  C   UNL     1       4.451   5.136   1.090  0.00  0.00    +0.026 A 
ATOM     16  C   UNL     1       5.824   4.981   1.082  0.00  0.00    +0.002 A 
ATOM     17  C   UNL     1       6.450   4.412  -0.011  0.00  0.00    +0.000 A 
ATOM     18  C   UNL     1       5.705   3.990  -1.097  0.00  0.00    +0.002 A 
ATOM     19  C   UNL     1       4.331   4.136  -1.092  0.00  0.00    +0.026 A 
ENDBRANCH   6  14
ENDBRANCH   1   2
BRANCH   1  20
ATOM     20  C   UNL     1      -0.018   1.503   0.010  0.00  0.00    +0.173 C 
BRANCH  20  34
ATOM     21  C   UNL     1      -1.447  -2.674   1.411  0.00  0.00    +0.029 C 
ATOM     22  C   UNL     1      -1.153  -2.157   0.002  0.00  0.00    +0.087 C 
ATOM     23  C   UNL     1      -2.224  -2.673  -0.962  0.00  0.00    +0.118 C 
ATOM     24  C   UNL     1      -2.194  -1.881  -2.242  0.00  0.00    +0.219 C 
ATOM     25  O   UNL     1      -1.712  -2.370  -3.242  0.00  0.00    -0.275 OA
ATOM     26  N   UNL     1      -2.699  -0.627  -2.286  0.00  0.00    -0.284 N 
ATOM     27  C   UNL     1      -3.179  -0.012  -1.124  0.00  0.00    +0.055 A 
ATOM     28  C   UNL     1      -4.417   0.608  -1.105  0.00  0.00    +0.025 A 
ATOM     29  C   UNL     1      -4.853   1.237   0.064  0.00  0.00    +0.002 A 
ATOM     30  C   UNL     1      -4.054   1.243   1.194  0.00  0.00    +0.002 A 
ATOM     31  C   UNL     1      -2.823   0.614   1.181  0.00  0.00    +0.025 A 
ATOM     32  C   UNL     1      -2.386  -0.024   0.030  0.00  0.00    +0.058 A 
ATOM     33  N   UNL     1      -1.156  -0.694   0.009  0.00  0.00    -0.266 N 
ATOM     34  C   UNL     1       0.002  -0.004   0.002  0.00  0.00    +0.230 C 
ATOM     35  O   UNL     1       1.061  -0.596  -0.011  0.00  0.00    -0.274 OA
ATOM     36  H   UNL     1      -2.729  -0.150  -3.130  0.00  0.00    +0.155 HD
ENDBRANCH  20  34
ENDBRANCH   1  20
TORSDOF 5
