REMARK  Name = ZINC05221744
REMARK  6 active torsions:
REMARK  status: ('A' for Active; 'I' for Inactive)
REMARK    1  A    between atoms: C_1  and  C_2
REMARK    2  A    between atoms: C_5  and  S_8
REMARK    3  A    between atoms: N_6  and  N_7
REMARK    4  A    between atoms: S_8  and  C_9
REMARK    5  A    between atoms: C_9  and  C_10
REMARK    6  A    between atoms: C_15  and  C_16
REMARK                            x       y       z     vdW  Elec       q    Type
REMARK                         _______ _______ _______ _____ _____    ______ ____
ROOT
ATOM      1  S   UNL     1       1.694   3.439   0.004  0.00  0.00    -0.080 S 
ENDROOT
BRANCH   1   6
ATOM      2  C   UNL     1       1.673  -1.875  -0.024  0.00  0.00    +0.090 C 
ATOM      3  C   UNL     1       1.232  -0.435  -0.012  0.00  0.00    +0.148 A 
ATOM      4  N   UNL     1       0.002  -0.004   0.002  0.00  0.00    -0.132 NA
ATOM      5  N   UNL     1      -0.015   1.281   0.009  0.00  0.00    -0.121 NA
ATOM      6  C   UNL     1       1.213   1.744  -0.000  0.00  0.00    +0.209 A 
ATOM      7  N   UNL     1       2.047   0.663  -0.014  0.00  0.00    -0.228 N 
BRANCH   7   8
ATOM      8  N   UNL     1       3.413   0.675  -0.027  0.00  0.00    -0.295 N 
ATOM      9  H   UNL     1       3.766   0.684  -0.973  0.00  0.00    +0.163 HD
ATOM     10  H   UNL     1       3.773   1.457   0.500  0.00  0.00    +0.163 HD
ENDBRANCH   7   8
ENDBRANCH   1   6
BRANCH   1  11
ATOM     11  C   UNL     1       0.066   4.228   0.024  0.00  0.00    +0.113 C 
BRANCH  11  12
ATOM     12  C   UNL     1       0.233   5.726   0.030  0.00  0.00    -0.020 A 
ATOM     13  C   UNL     1       0.316   6.407   1.227  0.00  0.00    +0.006 A 
ATOM     14  C   UNL     1       0.474   7.782   1.234  0.00  0.00    +0.000 A 
ATOM     15  C   UNL     1       0.540   8.483   0.043  0.00  0.00    +0.001 A 
ATOM     16  C   UNL     1       0.454   7.815  -1.161  0.00  0.00    +0.019 A 
ATOM     17  C   UNL     1       0.299   6.427  -1.175  0.00  0.00    +0.056 A 
BRANCH  17  18
ATOM     18  C   UNL     1       0.208   5.727  -2.421  0.00  0.00    +0.099 C 
ATOM     19  N   UNL     1       0.135   5.171  -3.409  0.00  0.00    -0.191 NA
ENDBRANCH  17  18
ENDBRANCH  11  12
ENDBRANCH   1  11
TORSDOF 5
