REMARK  Name = ZINC00282315
REMARK  1 active torsions:
REMARK  status: ('A' for Active; 'I' for Inactive)
REMARK    1  A    between atoms: C_6  and  C_7
REMARK                            x       y       z     vdW  Elec       q    Type
REMARK                         _______ _______ _______ _____ _____    ______ ____
ROOT
ATOM      1  C   UNL     1      -0.199   1.630   2.546  0.00  0.00    +0.006 A 
ATOM      2  C   UNL     1      -0.802   2.048   3.719  0.00  0.00    +0.027 A 
ATOM      3  C   UNL     1      -1.938   2.845   3.602  0.00  0.00    +0.050 A 
ATOM      4  C   UNL     1      -2.440   3.204   2.315  0.00  0.00    +0.004 A 
ATOM      5  C   UNL     1      -1.801   2.771   1.149  0.00  0.00    +0.014 A 
ATOM      6  C   UNL     1      -0.683   1.988   1.300  0.00  0.00    -0.044 A 
ATOM      7  C   UNL     1      -3.604   4.012   2.555  0.00  0.00    -0.017 A 
ATOM      8  C   UNL     1      -3.764   4.061   3.893  0.00  0.00    +0.044 A 
ATOM      9  N   UNL     1      -2.742   3.429   4.563  0.00  0.00    -0.340 N 
ATOM     10  C   UNL     1      -2.634   3.417   6.029  0.00  0.00    +0.141 C 
ATOM     11  C   UNL     1      -3.974   3.834   6.642  0.00  0.00    +0.131 C 
ATOM     12  N   UNL     1      -4.537   4.997   5.936  0.00  0.00    -0.276 N 
ATOM     13  C   UNL     1      -4.920   4.810   4.522  0.00  0.00    +0.125 C 
ATOM     14  C   UNL     1      -5.057   6.145   3.810  0.00  0.00    +0.029 C 
ATOM     15  C   UNL     1      -4.871   6.114   2.312  0.00  0.00    +0.007 C 
ATOM     16  C   UNL     1      -4.574   4.760   1.683  0.00  0.00    +0.037 C 
ATOM     17  C   UNL     1      -4.695   6.184   6.555  0.00  0.00    +0.300 C 
ATOM     18  O   UNL     1      -5.092   7.147   5.928  0.00  0.00    -0.253 OA
ATOM     19  N   UNL     1      -4.413   6.303   7.867  0.00  0.00    -0.313 N 
ATOM     20  H   UNL     1      -4.028   5.555   8.350  0.00  0.00    +0.146 HD
ATOM     21  H   UNL     1      -4.596   7.136   8.329  0.00  0.00    +0.146 HD
ENDROOT
BRANCH   6  22
ATOM     22  C   UNL     1       0.035   1.499   0.069  0.00  0.00    +0.019 C 
ATOM     23  C   UNL     1       1.475   2.017   0.079  0.00  0.00    +0.008 C 
ATOM     24  C   UNL     1       2.205   1.519  -1.170  0.00  0.00    +0.001 C 
ATOM     25  C   UNL     1       2.213  -0.011  -1.181  0.00  0.00    +0.000 C 
ATOM     26  C   UNL     1       0.774  -0.528  -1.191  0.00  0.00    +0.001 C 
ATOM     27  C   UNL     1       0.044  -0.031   0.058  0.00  0.00    +0.008 C 
ENDBRANCH   6  22
TORSDOF 1
