REMARK  Name = ZINC16958089
REMARK  10 active torsions:
REMARK  status: ('A' for Active; 'I' for Inactive)
REMARK    1  A    between atoms: C_1  and  C_2
REMARK    2  A    between atoms: C_2  and  C_8
REMARK    3  A    between atoms: N_3  and  N_4
REMARK    4  A    between atoms: N_4  and  C_5
REMARK    5  A    between atoms: C_5  and  N_7
REMARK    6  A    between atoms: C_8  and  C_10
REMARK    7  A    between atoms: C_8  and  C_16
REMARK    8  A    between atoms: C_10  and  N_63
REMARK    9  A    between atoms: C_16  and  C_18
REMARK   10  A    between atoms: C_16  and  C_24
REMARK                            x       y       z     vdW  Elec       q    Type
REMARK                         _______ _______ _______ _____ _____    ______ ____
ROOT
ATOM      1  C   UNL     1       2.080  -2.442  -1.143  0.00  0.00    +0.026 C 
ENDROOT
BRANCH   1   3
ATOM      2  C   UNL     1      -0.227  -1.731  -2.135  0.00  0.00    +0.062 C 
ATOM      3  C   UNL     1       1.278  -1.676  -2.163  0.00  0.00    +0.036 C 
ATOM      4  N   UNL     1       1.877  -0.978  -3.054  0.00  0.00    -0.190 NA
BRANCH   4   5
ATOM      5  N   UNL     1       1.134  -0.180  -3.934  0.00  0.00    -0.219 N 
ATOM      6  H   UNL     1       0.174  -0.101  -3.824  0.00  0.00    +0.176 HD
BRANCH   5   7
ATOM      7  C   UNL     1       1.754   0.478  -4.933  0.00  0.00    +0.147 C 
ATOM      8  S   UNL     1       0.870   1.556  -5.927  0.00  0.00    -0.017 S 
BRANCH   7   9
ATOM      9  N   UNL     1       3.071   0.288  -5.150  0.00  0.00    -0.339 N 
ATOM     10  H   UNL     1       3.556  -0.376  -4.636  0.00  0.00    +0.144 HD
ATOM     11  H   UNL     1       3.533   0.816  -5.820  0.00  0.00    +0.144 HD
ENDBRANCH   7   9
ENDBRANCH   5   7
ENDBRANCH   4   5
ENDBRANCH   1   3
BRANCH   1  12
ATOM     12  C   UNL     1       1.713  -3.926  -1.215  0.00  0.00    -0.069 C 
BRANCH  12  18
ATOM     13  C   UNL     1       1.300  -4.077  -3.598  0.00  0.00    -0.050 C 
ATOM     14  C   UNL     1       1.855  -4.629  -4.913  0.00  0.00    +0.141 C 
ATOM     15  O   UNL     1       1.977  -6.050  -4.814  0.00  0.00    -0.383 OA
ATOM     16  C   UNL     1       2.826  -6.482  -3.748  0.00  0.00    +0.141 C 
ATOM     17  C   UNL     1       2.281  -5.949  -2.420  0.00  0.00    -0.050 C 
ATOM     18  N   UNL     1       2.204  -4.475  -2.498  0.00  0.00    +0.383 N 
ATOM     19  H   UNL     1       3.142  -4.101  -2.683  0.00  0.00    -0.082 HD
ENDBRANCH  12  18
ENDBRANCH   1  12
BRANCH   1  20
ATOM     20  C   UNL     1       1.768  -1.908   0.257  0.00  0.00    +0.040 C 
BRANCH  20  21
ATOM     21  C   UNL     1       2.614  -2.633   1.271  0.00  0.00    +0.106 C 
ATOM     22  C   UNL     1       2.031  -3.342   2.241  0.00  0.00    +0.174 C 
ATOM     23  C   UNL     1       2.897  -4.012   3.237  0.00  0.00    +0.059 A 
ATOM     24  C   UNL     1       2.397  -4.973   4.107  0.00  0.00    +0.015 A 
ATOM     25  C   UNL     1       3.244  -5.579   5.015  0.00  0.00    +0.001 A 
ATOM     26  C   UNL     1       4.581  -5.227   5.065  0.00  0.00    +0.004 A 
ATOM     27  C   UNL     1       5.084  -4.257   4.216  0.00  0.00    +0.046 A 
ATOM     28  C   UNL     1       4.246  -3.638   3.307  0.00  0.00    +0.131 A 
ATOM     29  O   UNL     1       4.698  -2.653   2.489  0.00  0.00    -0.491 OA
ATOM     30  C   UNL     1       4.116  -2.563   1.186  0.00  0.00    +0.241 C 
ATOM     31  O   UNL     1       0.678  -3.445   2.313  0.00  0.00    -0.291 OA
ENDBRANCH  20  21
BRANCH  20  32
ATOM     32  C   UNL     1       2.073  -0.433   0.310  0.00  0.00    -0.043 A 
ATOM     33  C   UNL     1       3.257   0.048  -0.218  0.00  0.00    +0.004 A 
ATOM     34  C   UNL     1       3.537   1.400  -0.168  0.00  0.00    +0.000 A 
ATOM     35  C   UNL     1       2.633   2.273   0.408  0.00  0.00    +0.000 A 
ATOM     36  C   UNL     1       1.449   1.792   0.936  0.00  0.00    +0.000 A 
ATOM     37  C   UNL     1       1.169   0.439   0.887  0.00  0.00    +0.004 A 
ENDBRANCH  20  32
ENDBRANCH   1  20
TORSDOF 9
