REMARK  Name = ZINC39460782
REMARK  10 active torsions:
REMARK  status: ('A' for Active; 'I' for Inactive)
REMARK    1  A    between atoms: C_1  and  O_2
REMARK    2  A    between atoms: O_2  and  C_3
REMARK    3  A    between atoms: C_3  and  C_5
REMARK    4  A    between atoms: N_9  and  C_28
REMARK    5  A    between atoms: C_14  and  S_16
REMARK    6  A    between atoms: S_16  and  N_19
REMARK    7  A    between atoms: N_19  and  C_20
REMARK    8  A    between atoms: C_20  and  C_21
REMARK    9  A    between atoms: C_21  and  C_22
REMARK   10  A    between atoms: C_28  and  C_29
REMARK                            x       y       z     vdW  Elec       q    Type
REMARK                         _______ _______ _______ _____ _____    ______ ____
ROOT
ATOM      1  C   UNL     1      -1.248  -2.101   0.003  0.00  0.00    +0.072 C 
ATOM      2  C   UNL     1      -2.397  -2.722   0.005  0.00  0.00    -0.048 C 
ATOM      3  C   UNL     1      -3.772  -2.066   0.144  0.00  0.00    +0.014 C 
ATOM      4  C   UNL     1      -4.791  -3.171  -0.156  0.00  0.00    -0.074 C 
ATOM      5  N   UNL     1      -4.688  -4.292   0.769  0.00  0.00    +0.382 N 
ATOM      6  C   UNL     1      -3.319  -4.706   1.076  0.00  0.00    -0.060 C 
ATOM      7  C   UNL     1      -2.372  -4.259  -0.039  0.00  0.00    +0.058 C 
ATOM      8  S   UNL     1      -0.628  -4.592   0.436  0.00  0.00    -0.123 S 
ATOM      9  C   UNL     1       0.028  -2.924  -0.015  0.00  0.00    +0.242 C 
ATOM     10  H   UNL     1      -5.178  -5.079   0.373  0.00  0.00    -0.082 HD
ENDROOT
BRANCH   9  11
ATOM     11  S   UNL     1       1.207  -2.329   1.229  0.00  0.00    +0.046 S 
ATOM     12  O   UNL     1       1.684  -1.039   0.873  0.00  0.00    -0.157 OA
ATOM     13  O   UNL     1       0.710  -2.583   2.536  0.00  0.00    -0.157 OA
BRANCH  11  14
ATOM     14  N   UNL     1       2.523  -3.323   1.077  0.00  0.00    -0.193 NA
ATOM     15  H   UNL     1       2.772  -3.913   1.806  0.00  0.00    +0.148 HD
BRANCH  14  16
ATOM     16  C   UNL     1       3.312  -3.311  -0.158  0.00  0.00    +0.110 C 
BRANCH  16  17
ATOM     17  C   UNL     1       4.650  -4.012   0.085  0.00  0.00    +0.052 C 
BRANCH  17  18
ATOM     18  C   UNL     1       5.461  -4.000  -1.185  0.00  0.00    -0.046 A 
ATOM     19  C   UNL     1       5.340  -5.036  -2.092  0.00  0.00    +0.003 A 
ATOM     20  C   UNL     1       6.084  -5.025  -3.257  0.00  0.00    +0.000 A 
ATOM     21  C   UNL     1       6.948  -3.977  -3.515  0.00  0.00    +0.000 A 
ATOM     22  C   UNL     1       7.068  -2.941  -2.609  0.00  0.00    +0.000 A 
ATOM     23  C   UNL     1       6.321  -2.950  -1.446  0.00  0.00    +0.003 A 
ENDBRANCH  17  18
ENDBRANCH  16  17
ENDBRANCH  14  16
ENDBRANCH  11  14
ENDBRANCH   9  11
BRANCH   1  24
ATOM     24  C   UNL     1      -1.190  -0.632   0.010  0.00  0.00    +0.338 C 
ATOM     25  O   UNL     1      -2.219   0.016   0.023  0.00  0.00    -0.245 OA
BRANCH  24  27
ATOM     26  C   UNL     1      -0.017   1.425   0.010  0.00  0.00    +0.280 C 
ATOM     27  O   UNL     1       0.002  -0.004   0.002  0.00  0.00    -0.465 OA
ENDBRANCH  24  27
ENDBRANCH   1  24
BRANCH   5  28
ATOM     28  C   UNL     1      -5.353  -3.920   2.025  0.00  0.00    -0.046 C 
BRANCH  28  29
ATOM     29  C   UNL     1      -6.849  -3.725   1.772  0.00  0.00    +0.136 C 
ATOM     30  C   UNL     1      -7.593  -3.520   3.079  0.00  0.00    +0.021 C 
ATOM     31  C   UNL     1      -8.441  -4.549   3.132  0.00  0.00    +0.132 C 
ATOM     32  N   UNL     1      -8.307  -5.338   2.042  0.00  0.00    -0.162 NA
ATOM     33  N   UNL     1      -7.451  -4.958   1.234  0.00  0.00    -0.182 NA
ENDBRANCH  28  29
ENDBRANCH   5  28
TORSDOF 9
