REMARK  Name = ZINC39665804
REMARK  9 active torsions:
REMARK  status: ('A' for Active; 'I' for Inactive)
REMARK    1  A    between atoms: C_1  and  C_2
REMARK    2  A    between atoms: C_2  and  C_4
REMARK    3  A    between atoms: C_2  and  O_30
REMARK    4  A    between atoms: C_4  and  N_5
REMARK    5  A    between atoms: C_6  and  C_8
REMARK    6  A    between atoms: C_19  and  C_21
REMARK    7  A    between atoms: O_30  and  C_31
REMARK    8  A    between atoms: C_34  and  O_37
REMARK    9  A    between atoms: O_37  and  C_38
REMARK                            x       y       z     vdW  Elec       q    Type
REMARK                         _______ _______ _______ _____ _____    ______ ____
ROOT
ATOM      1  C   UNL     1      -3.098  -4.697  -0.087  0.00  0.00    +0.100 C 
ATOM      2  C   UNL     1      -2.325  -5.354  -1.253  0.00  0.00    +0.121 C 
ATOM      3  N   UNL     1      -3.139  -6.535  -1.623  0.00  0.00    -0.296 N 
ATOM      4  C   UNL     1      -4.541  -6.066  -1.515  0.00  0.00    +0.115 C 
ATOM      5  C   UNL     1      -4.552  -5.166  -0.264  0.00  0.00    -0.004 C 
ATOM      6  C   UNL     1      -5.471  -3.968  -0.484  0.00  0.00    -0.010 C 
ATOM      7  C   UNL     1      -6.918  -4.455  -0.599  0.00  0.00    -0.082 C 
ATOM      8  N   UNL     1      -7.295  -5.168   0.628  0.00  0.00    +0.379 N 
ATOM      9  C   UNL     1      -6.468  -6.370   0.783  0.00  0.00    -0.082 C 
ATOM     10  C   UNL     1      -5.002  -5.964   0.956  0.00  0.00    -0.010 C 
ATOM     11  C   UNL     1      -2.702  -7.761  -1.976  0.00  0.00    +0.248 C 
ATOM     12  O   UNL     1      -3.498  -8.613  -2.324  0.00  0.00    -0.270 OA
ATOM     13  H   UNL     1      -7.158  -4.561   1.423  0.00  0.00    -0.086 HD
ATOM     14  H   UNL     1      -8.267  -5.434   0.576  0.00  0.00    -0.086 HD
ENDROOT
BRANCH  11  15
ATOM     15  C   UNL     1      -1.267  -8.067  -1.942  0.00  0.00    +0.052 A 
ATOM     16  C   UNL     1      -0.342  -7.127  -2.268  0.00  0.00    +0.059 A 
ATOM     17  S   UNL     1       1.144  -7.885  -2.098  0.00  0.00    -0.096 S 
ATOM     18  C   UNL     1       0.617  -9.496  -1.584  0.00  0.00    +0.020 A 
ATOM     19  C   UNL     1      -0.787  -9.394  -1.550  0.00  0.00    +0.001 A 
ATOM     20  C   UNL     1      -1.508 -10.540  -1.164  0.00  0.00    +0.010 A 
ATOM     21  C   UNL     1      -0.848 -11.697  -0.832  0.00  0.00    +0.001 A 
ATOM     22  C   UNL     1       0.537 -11.770  -0.868  0.00  0.00    +0.001 A 
ATOM     23  C   UNL     1       1.270 -10.665  -1.254  0.00  0.00    +0.015 A 
ENDBRANCH  11  15
BRANCH   1  25
ATOM     24  N   UNL     1      -3.048  -2.445   0.936  0.00  0.00    -0.312 N 
ATOM     25  C   UNL     1      -3.016  -3.195  -0.183  0.00  0.00    +0.218 C 
ATOM     26  O   UNL     1      -2.922  -2.661  -1.268  0.00  0.00    -0.275 OA
ATOM     27  H   UNL     1      -3.123  -2.872   1.804  0.00  0.00    +0.149 HD
BRANCH  24  28
ATOM     28  C   UNL     1      -2.968  -0.985   0.842  0.00  0.00    +0.148 C 
BRANCH  28  30
ATOM     29  C   UNL     1      -3.067   1.145   2.143  0.00  0.00    +0.053 C 
ATOM     30  C   UNL     1      -3.024  -0.381   2.247  0.00  0.00    +0.187 C 
BRANCH  30  31
ATOM     31  O   UNL     1      -1.865  -0.776   2.982  0.00  0.00    -0.488 OA
BRANCH  31  32
ATOM     32  C   UNL     1      -1.966  -0.781   4.338  0.00  0.00    +0.121 A 
ATOM     33  C   UNL     1      -0.851  -1.056   5.116  0.00  0.00    +0.049 A 
ATOM     34  C   UNL     1      -0.954  -1.061   6.494  0.00  0.00    +0.049 A 
ATOM     35  C   UNL     1      -2.173  -0.791   7.099  0.00  0.00    +0.120 A 
ATOM     36  C   UNL     1      -3.288  -0.516   6.321  0.00  0.00    +0.049 A 
ATOM     37  C   UNL     1      -3.184  -0.507   4.944  0.00  0.00    +0.049 A 
BRANCH  35  38
ATOM     38  O   UNL     1      -2.275  -0.798   8.455  0.00  0.00    -0.495 OA
ATOM     39  C   UNL     1      -3.560  -0.512   9.011  0.00  0.00    +0.277 C 
ENDBRANCH  35  38
ENDBRANCH  31  32
ENDBRANCH  30  31
ENDBRANCH  28  30
ENDBRANCH  24  28
ENDBRANCH   1  25
TORSDOF 7
