REMARK  Name = ZINC07975471
REMARK  10 active torsions:
REMARK  status: ('A' for Active; 'I' for Inactive)
REMARK    1  A    between atoms: C_1  and  C_2
REMARK    2  A    between atoms: C_2  and  N_3
REMARK    3  A    between atoms: N_3  and  C_4
REMARK    4  A    between atoms: C_4  and  N_6
REMARK    5  A    between atoms: N_6  and  N_7
REMARK    6  A    between atoms: C_8  and  C_10
REMARK    7  A    between atoms: C_14  and  N_16
REMARK    8  A    between atoms: N_16  and  S_17
REMARK    9  A    between atoms: S_17  and  C_20
REMARK   10  A    between atoms: C_23  and  C_27
REMARK                            x       y       z     vdW  Elec       q    Type
REMARK                         _______ _______ _______ _____ _____    ______ ____
ROOT
ATOM      1  C   UNL     1       1.156  -2.183  -0.142  0.00  0.00    +0.040 A 
ATOM      2  C   UNL     1      -0.030  -2.917  -0.078  0.00  0.00    +0.013 A 
ATOM      3  C   UNL     1       0.015  -4.295  -0.019  0.00  0.00    +0.003 A 
ATOM      4  C   UNL     1       1.231  -4.952  -0.011  0.00  0.00    +0.024 A 
ATOM      5  C   UNL     1       2.417  -4.230  -0.068  0.00  0.00    +0.049 A 
ATOM      6  C   UNL     1       2.383  -2.845  -0.133  0.00  0.00    +0.037 A 
ENDROOT
BRANCH   1   8
ATOM      7  N   UNL     1      -0.077  -0.068  -0.219  0.00  0.00    -0.231 N 
ATOM      8  C   UNL     1       1.111  -0.706  -0.211  0.00  0.00    +0.260 C 
ATOM      9  O   UNL     1       2.144  -0.068  -0.261  0.00  0.00    -0.269 OA
ATOM     10  H   UNL     1      -0.901  -0.577  -0.179  0.00  0.00    +0.173 HD
BRANCH   7  11
ATOM     11  N   UNL     1      -0.119   1.331  -0.285  0.00  0.00    -0.246 N 
ATOM     12  H   UNL     1       0.705   1.840  -0.325  0.00  0.00    +0.172 HD
BRANCH  11  13
ATOM     13  C   UNL     1      -1.307   1.969  -0.299  0.00  0.00    +0.147 C 
ATOM     14  S   UNL     1      -1.359   3.678  -0.379  0.00  0.00    -0.017 S 
BRANCH  13  15
ATOM     15  N   UNL     1      -2.453   1.261  -0.249  0.00  0.00    -0.326 N 
ATOM     16  H   UNL     1      -2.423   0.292  -0.203  0.00  0.00    +0.148 HD
BRANCH  15  18
ATOM     17  C   UNL     1      -4.875   0.927  -0.199  0.00  0.00    +0.024 C 
ATOM     18  C   UNL     1      -3.743   1.954  -0.264  0.00  0.00    +0.100 C 
ENDBRANCH  15  18
ENDBRANCH  13  15
ENDBRANCH  11  13
ENDBRANCH   7  11
ENDBRANCH   1   8
BRANCH   5  19
ATOM     19  N   UNL     1       3.644  -4.899  -0.059  0.00  0.00    -0.216 N 
ATOM     20  H   UNL     1       4.337  -4.650  -0.691  0.00  0.00    +0.174 HD
BRANCH  19  21
ATOM     21  S   UNL     1       3.915  -6.116   1.031  0.00  0.00    +0.072 S 
ATOM     22  O   UNL     1       2.829  -7.023   0.905  0.00  0.00    -0.150 OA
ATOM     23  O   UNL     1       5.268  -6.518   0.862  0.00  0.00    -0.150 OA
BRANCH  21  24
ATOM     24  C   UNL     1       3.797  -5.410   2.641  0.00  0.00    +0.111 A 
ATOM     25  C   UNL     1       4.899  -4.799   3.211  0.00  0.00    +0.029 A 
ATOM     26  C   UNL     1       4.806  -4.240   4.471  0.00  0.00    +0.008 A 
ATOM     27  C   UNL     1       3.614  -4.300   5.168  0.00  0.00    -0.015 A 
ATOM     28  C   UNL     1       2.512  -4.916   4.601  0.00  0.00    +0.128 A 
ATOM     29  C   UNL     1       2.604  -5.471   3.336  0.00  0.00    +0.067 A 
ATOM     30  F   UNL     1       1.346  -4.974   5.282  0.00  0.00    -0.205 F 
ATOM     31  C   UNL     1       3.515  -3.695   6.545  0.00  0.00    +0.047 C 
ENDBRANCH  21  24
ENDBRANCH  19  21
ENDBRANCH   5  19
TORSDOF 8
