REMARK  Name = ZINC11898487
REMARK  9 active torsions:
REMARK  status: ('A' for Active; 'I' for Inactive)
REMARK    1  A    between atoms: C_1  and  C_2
REMARK    2  A    between atoms: C_5  and  N_11
REMARK    3  A    between atoms: C_6  and  N_8
REMARK    4  A    between atoms: C_12  and  C_14
REMARK    5  A    between atoms: N_16  and  C_17
REMARK    6  A    between atoms: C_17  and  C_18
REMARK    7  A    between atoms: C_18  and  C_20
REMARK    8  A    between atoms: C_18  and  N_61
REMARK    9  A    between atoms: N_24  and  C_25
REMARK                            x       y       z     vdW  Elec       q    Type
REMARK                         _______ _______ _______ _____ _____    ______ ____
ROOT
ATOM      1  C   UNL     1      -6.727  -1.110  -2.171  0.00  0.00    +0.095 C 
ENDROOT
BRANCH   1   4
ATOM      2  C   UNL     1      -6.835  -3.027  -3.672  0.00  0.00    +0.299 C 
ATOM      3  O   UNL     1      -6.006  -3.580  -2.979  0.00  0.00    -0.265 OA
ATOM      4  N   UNL     1      -7.262  -1.789  -3.354  0.00  0.00    -0.309 N 
ATOM      5  H   UNL     1      -7.924  -1.347  -3.908  0.00  0.00    +0.149 HD
BRANCH   2   7
ATOM      6  N   UNL     1      -6.953  -4.956  -5.196  0.00  0.00    -0.276 N 
ATOM      7  C   UNL     1      -7.381  -3.718  -4.878  0.00  0.00    +0.303 C 
ATOM      8  O   UNL     1      -8.209  -3.166  -5.572  0.00  0.00    -0.265 OA
ATOM      9  H   UNL     1      -6.348  -5.428  -4.603  0.00  0.00    +0.155 HD
BRANCH   6  14
ATOM     10  C   UNL     1      -8.700  -7.411 -10.001  0.00  0.00    +0.044 C 
ATOM     11  C   UNL     1      -8.235  -6.759  -8.725  0.00  0.00    -0.048 A 
ATOM     12  C   UNL     1      -8.172  -5.380  -8.638  0.00  0.00    +0.005 A 
ATOM     13  C   UNL     1      -7.747  -4.779  -7.469  0.00  0.00    +0.026 A 
ATOM     14  C   UNL     1      -7.383  -5.561  -6.380  0.00  0.00    +0.064 A 
ATOM     15  C   UNL     1      -7.448  -6.946  -6.471  0.00  0.00    +0.148 A 
ATOM     16  C   UNL     1      -7.873  -7.540  -7.643  0.00  0.00    +0.038 A 
BRANCH  15  17
ATOM     17  N   UNL     1      -7.060  -7.783  -5.314  0.00  0.00    +0.058 N 
ATOM     18  O   UNL     1      -7.009  -8.995  -5.428  0.00  0.00    -0.126 OA
ATOM     19  O   UNL     1      -6.792  -7.261  -4.247  0.00  0.00    -0.126 OA
ENDBRANCH  15  17
ENDBRANCH   6  14
ENDBRANCH   2   7
ENDBRANCH   1   4
BRANCH   1  20
ATOM     20  C   UNL     1      -7.461   0.216  -1.968  0.00  0.00    -0.003 C 
BRANCH  20  30
ATOM     21  C   UNL     1      -6.014   1.086  -3.707  0.00  0.00    -0.073 C 
ATOM     22  C   UNL     1      -6.051   1.587  -5.151  0.00  0.00    +0.017 C 
ATOM     23  C   UNL     1      -6.894   2.833  -5.242  0.00  0.00    -0.048 A 
ATOM     24  C   UNL     1      -6.771   3.634  -6.367  0.00  0.00    +0.004 A 
ATOM     25  C   UNL     1      -7.531   4.779  -6.494  0.00  0.00    +0.000 A 
ATOM     26  C   UNL     1      -8.417   5.131  -5.493  0.00  0.00    +0.000 A 
ATOM     27  C   UNL     1      -8.538   4.337  -4.371  0.00  0.00    +0.002 A 
ATOM     28  C   UNL     1      -7.775   3.185  -4.242  0.00  0.00    -0.061 A 
ATOM     29  C   UNL     1      -7.938   2.353  -2.997  0.00  0.00    -0.042 C 
ATOM     30  N   UNL     1      -7.407   0.998  -3.224  0.00  0.00    +0.389 N 
ATOM     31  H   UNL     1      -7.980   0.528  -3.935  0.00  0.00    -0.080 HD
ENDBRANCH  20  30
BRANCH  20  32
ATOM     32  C   UNL     1      -8.902  -0.055  -1.621  0.00  0.00    +0.006 A 
ATOM     33  C   UNL     1      -9.972   0.277  -2.372  0.00  0.00    +0.021 A 
ATOM     34  C   UNL     1     -11.122  -0.158  -1.684  0.00  0.00    +0.019 A 
ATOM     35  C   UNL     1     -10.711  -0.739  -0.538  0.00  0.00    +0.085 A 
ATOM     36  N   UNL     1      -9.349  -0.684  -0.497  0.00  0.00    -0.355 N 
ATOM     37  C   UNL     1      -8.506  -1.210   0.579  0.00  0.00    +0.148 C 
ENDBRANCH  20  32
ENDBRANCH   1  20
TORSDOF 7
