REMARK  Name = ZINC58880840
REMARK  12 active torsions:
REMARK  status: ('A' for Active; 'I' for Inactive)
REMARK    1  A    between atoms: C_1  and  C_2
REMARK    2  A    between atoms: C_5  and  C_30
REMARK    3  A    between atoms: C_6  and  N_8
REMARK    4  A    between atoms: C_9  and  C_11
REMARK    5  A    between atoms: N_13  and  N_14
REMARK    6  A    between atoms: C_15  and  C_16
REMARK    7  A    between atoms: C_19  and  O_22
REMARK    8  A    between atoms: O_22  and  C_23
REMARK    9  A    between atoms: C_23  and  C_24
REMARK   10  A    between atoms: N_26  and  C_27
REMARK   11  A    between atoms: C_27  and  C_28
REMARK   12  A    between atoms: C_27  and  C_29
REMARK                            x       y       z     vdW  Elec       q    Type
REMARK                         _______ _______ _______ _____ _____    ______ ____
ROOT
ATOM      1  N   UNL     1       0.498  -2.941   7.208  0.00  0.00    -0.187 NA
ATOM      2  C   UNL     1       0.593  -2.302   8.335  0.00  0.00    +0.138 C 
ENDROOT
BRANCH   2   3
ATOM      3  C   UNL     1       0.720  -3.051   9.598  0.00  0.00    -0.005 A 
ATOM      4  C   UNL     1       0.744  -4.449   9.585  0.00  0.00    +0.013 A 
ATOM      5  C   UNL     1       0.863  -5.144  10.768  0.00  0.00    +0.046 A 
ATOM      6  C   UNL     1       0.958  -4.459  11.973  0.00  0.00    +0.121 A 
ATOM      7  C   UNL     1       0.933  -3.070  11.991  0.00  0.00    +0.046 A 
ATOM      8  C   UNL     1       0.822  -2.366  10.812  0.00  0.00    +0.013 A 
BRANCH   6   9
ATOM      9  O   UNL     1       1.075  -5.150  13.137  0.00  0.00    -0.483 OA
BRANCH   9  10
ATOM     10  C   UNL     1       1.168  -4.383  14.339  0.00  0.00    +0.324 C 
BRANCH  10  11
ATOM     11  C   UNL     1       1.290  -5.312  15.519  0.00  0.00    +0.251 C 
ATOM     12  O   UNL     1       1.297  -6.513  15.347  0.00  0.00    -0.272 OA
ATOM     13  N   UNL     1       1.392  -4.809  16.765  0.00  0.00    -0.310 N 
ATOM     14  H   UNL     1       1.387  -3.849  16.902  0.00  0.00    +0.149 HD
BRANCH  13  15
ATOM     15  C   UNL     1       1.511  -5.712  17.912  0.00  0.00    +0.067 C 
ATOM     16  C   UNL     1       2.213  -4.987  19.062  0.00  0.00    +0.027 C 
ATOM     17  C   UNL     1       0.117  -6.152  18.362  0.00  0.00    +0.027 C 
ENDBRANCH  13  15
ENDBRANCH  10  11
ENDBRANCH   9  10
ENDBRANCH   6   9
ENDBRANCH   2   3
BRANCH   1  20
ATOM     18  C   UNL     1       0.279  -2.892   4.838  0.00  0.00    +0.318 C 
ATOM     19  O   UNL     1       0.295  -4.106   4.825  0.00  0.00    -0.263 OA
ATOM     20  N   UNL     1       0.377  -2.229   6.007  0.00  0.00    -0.199 N 
ATOM     21  H   UNL     1       0.364  -1.259   6.018  0.00  0.00    +0.178 HD
BRANCH  18  23
ATOM     22  N   UNL     1       0.052  -2.797   2.391  0.00  0.00    -0.277 N 
ATOM     23  C   UNL     1       0.150  -2.134   3.560  0.00  0.00    +0.305 C 
ATOM     24  O   UNL     1       0.134  -0.920   3.573  0.00  0.00    -0.265 OA
ATOM     25  H   UNL     1      -0.016  -3.765   2.386  0.00  0.00    +0.155 HD
BRANCH  22  31
ATOM     26  C   UNL     1       1.265   1.227  -0.158  0.00  0.00    +0.044 C 
ATOM     27  C   UNL     1       0.628  -0.137  -0.079  0.00  0.00    -0.049 A 
ATOM     28  C   UNL     1       0.039  -0.690  -1.201  0.00  0.00    +0.004 A 
ATOM     29  C   UNL     1      -0.546  -1.941  -1.133  0.00  0.00    +0.005 A 
ATOM     30  C   UNL     1      -0.543  -2.643   0.056  0.00  0.00    -0.029 A 
ATOM     31  C   UNL     1       0.048  -2.090   1.185  0.00  0.00    +0.037 A 
ATOM     32  C   UNL     1       0.639  -0.835   1.112  0.00  0.00    +0.027 A 
ATOM     33  C   UNL     1      -1.181  -4.006   0.130  0.00  0.00    +0.045 C 
ENDBRANCH  22  31
ENDBRANCH  18  23
ENDBRANCH   1  20
TORSDOF 8
