REMARK  Name = ZINC09468701
REMARK  10 active torsions:
REMARK  status: ('A' for Active; 'I' for Inactive)
REMARK    1  A    between atoms: C_1  and  C_2
REMARK    2  A    between atoms: C_2  and  C_4
REMARK    3  A    between atoms: C_2  and  S_16
REMARK    4  A    between atoms: S_16  and  C_17
REMARK    5  A    between atoms: C_20  and  C_29
REMARK    6  A    between atoms: N_21  and  C_22
REMARK    7  A    between atoms: C_29  and  C_31
REMARK    8  A    between atoms: C_29  and  N_54
REMARK    9  A    between atoms: C_32  and  N_54
REMARK   10  A    between atoms: C_33  and  N_54
REMARK                            x       y       z     vdW  Elec       q    Type
REMARK                         _______ _______ _______ _____ _____    ______ ____
ROOT
ATOM      1  C   UNL     1      -0.118  -4.466   0.917  0.00  0.00    +0.197 A 
ATOM      2  N   UNL     1       0.851  -5.100   0.297  0.00  0.00    -0.122 NA
ATOM      3  N   UNL     1       0.726  -6.367   0.471  0.00  0.00    -0.135 NA
ATOM      4  C   UNL     1      -0.326  -6.619   1.197  0.00  0.00    +0.125 A 
ATOM      5  N   UNL     1      -0.903  -5.416   1.509  0.00  0.00    -0.275 N 
ENDROOT
BRANCH   5   6
ATOM      6  C   UNL     1      -2.059  -5.204   2.275  0.00  0.00    +0.050 A 
ATOM      7  C   UNL     1      -2.074  -5.547   3.620  0.00  0.00    +0.028 A 
ATOM      8  C   UNL     1      -3.212  -5.333   4.373  0.00  0.00    +0.022 A 
ATOM      9  C   UNL     1      -4.339  -4.786   3.786  0.00  0.00    +0.041 A 
ATOM     10  C   UNL     1      -4.328  -4.448   2.444  0.00  0.00    +0.022 A 
ATOM     11  C   UNL     1      -3.191  -4.655   1.688  0.00  0.00    +0.028 A 
ATOM     12 CL   UNL     1      -5.769  -4.523   4.734  0.00  0.00    -0.084 Cl
ENDBRANCH   5   6
BRANCH   4  13
ATOM     13  C   UNL     1      -0.817  -7.980   1.617  0.00  0.00    -0.003 C 
ATOM     14  C   UNL     1      -1.477  -8.675   0.424  0.00  0.00    -0.005 C 
BRANCH  13  17
ATOM     15  C   UNL     1       1.035  -8.104   3.172  0.00  0.00    -0.096 C 
ATOM     16  C   UNL     1      -0.123 -10.124   2.505  0.00  0.00    -0.096 C 
ATOM     17  N   UNL     1       0.337  -8.790   2.064  0.00  0.00    +0.382 N 
ATOM     18  H   UNL     1       0.988  -8.904   1.279  0.00  0.00    -0.082 HD
ENDBRANCH  13  17
ENDBRANCH   4  13
BRANCH   1  19
ATOM     19  S   UNL     1      -0.363  -2.722   0.970  0.00  0.00    -0.075 S 
BRANCH  19  21
ATOM     20  C   UNL     1       0.889  -2.671  -1.458  0.00  0.00    +0.027 C 
ATOM     21  C   UNL     1       1.050  -2.175  -0.020  0.00  0.00    +0.117 C 
BRANCH  21  22
ATOM     22  C   UNL     1       1.117  -0.670  -0.012  0.00  0.00    +0.124 A 
ATOM     23  N   UNL     1       2.340  -0.078  -0.020  0.00  0.00    -0.309 N 
ATOM     24  H   UNL     1       3.139  -0.628  -0.031  0.00  0.00    +0.170 HD
ATOM     25  C   UNL     1       2.453   1.270  -0.014  0.00  0.00    +0.259 A 
ATOM     26  O   UNL     1       3.543   1.813  -0.021  0.00  0.00    -0.267 OA
ATOM     27  C   UNL     1       1.209   2.054   0.002  0.00  0.00    +0.065 A 
ATOM     28  C   UNL     1       1.216   3.447   0.009  0.00  0.00    +0.015 A 
ATOM     29  C   UNL     1       0.021   4.132   0.025  0.00  0.00    +0.001 A 
ATOM     30  C   UNL     1      -1.187   3.445   0.032  0.00  0.00    +0.002 A 
ATOM     31  C   UNL     1      -1.215   2.069   0.030  0.00  0.00    +0.028 A 
ATOM     32  C   UNL     1      -0.016   1.352   0.009  0.00  0.00    +0.078 A 
ATOM     33  N   UNL     1       0.002  -0.004   0.002  0.00  0.00    -0.233 NA
ENDBRANCH  21  22
ENDBRANCH  19  21
ENDBRANCH   1  19
TORSDOF 6
