REMARK  Name = ZINC36575341
REMARK  20 active torsions:
REMARK  status: ('A' for Active; 'I' for Inactive)
REMARK    1  A    between atoms: C_1  and  C_2
REMARK    2  A    between atoms: C_2  and  C_3
REMARK    3  A    between atoms: C_3  and  N_4
REMARK    4  A    between atoms: N_4  and  C_5
REMARK    5  A    between atoms: C_5  and  C_7
REMARK    6  A    between atoms: C_5  and  C_16
REMARK    7  A    between atoms: C_8  and  O_15
REMARK    8  A    between atoms: C_10  and  O_14
REMARK    9  A    between atoms: C_12  and  O_13
REMARK   10  A    between atoms: N_18  and  C_19
REMARK   11  A    between atoms: C_19  and  C_20
REMARK   12  A    between atoms: C_19  and  C_21
REMARK   13  A    between atoms: C_19  and  C_22
REMARK   14  A    between atoms: C_22  and  C_23
REMARK   15  A    between atoms: C_23  and  C_24
REMARK   16  A    between atoms: C_23  and  C_25
REMARK   17  A    between atoms: C_23  and  C_26
REMARK   18  A    between atoms: C_27  and  C_29
REMARK   19  A    between atoms: C_29  and  N_30
REMARK   20  A    between atoms: C_31  and  C_33
REMARK                            x       y       z     vdW  Elec       q    Type
REMARK                         _______ _______ _______ _____ _____    ______ ____
ROOT
ATOM      1  C   UNL     1      -1.404  -2.554  -3.093  0.00  0.00    +0.199 C 
ENDROOT
BRANCH   1   2
ATOM      2  C   UNL     1      -1.855  -2.494  -4.529  0.00  0.00    +0.065 A 
ATOM      3  C   UNL     1      -1.789  -3.628  -5.325  0.00  0.00    +0.129 A 
ATOM      4  C   UNL     1      -2.204  -3.573  -6.647  0.00  0.00    +0.091 A 
ATOM      5  C   UNL     1      -2.686  -2.384  -7.173  0.00  0.00    +0.124 A 
ATOM      6  C   UNL     1      -2.753  -1.250  -6.378  0.00  0.00    +0.091 A 
ATOM      7  C   UNL     1      -2.341  -1.306  -5.054  0.00  0.00    +0.129 A 
BRANCH   7   8
ATOM      8  O   UNL     1      -2.411  -0.196  -4.273  0.00  0.00    -0.506 OA
ATOM      9  H   UNL     1      -1.614   0.351  -4.295  0.00  0.00    +0.292 HD
ENDBRANCH   7   8
BRANCH   5  10
ATOM     10  O   UNL     1      -3.092  -2.329  -8.469  0.00  0.00    -0.507 OA
ATOM     11  H   UNL     1      -4.028  -2.535  -8.597  0.00  0.00    +0.292 HD
ENDBRANCH   5  10
BRANCH   3  12
ATOM     12  O   UNL     1      -1.317  -4.793  -4.809  0.00  0.00    -0.506 OA
ATOM     13  H   UNL     1      -2.007  -5.386  -4.481  0.00  0.00    +0.292 HD
ENDBRANCH   3  12
ENDBRANCH   1   2
BRANCH   1  14
ATOM     14  C   UNL     1      -2.603  -2.722  -2.196  0.00  0.00    +0.239 C 
ATOM     15  O   UNL     1      -2.856  -1.884  -1.357  0.00  0.00    -0.273 OA
ATOM     16  N   UNL     1      -3.395  -3.805  -2.326  0.00  0.00    -0.308 N 
ATOM     17  H   UNL     1      -3.193  -4.476  -2.998  0.00  0.00    +0.149 HD
BRANCH  16  18
ATOM     18  C   UNL     1      -4.561  -3.969  -1.455  0.00  0.00    +0.030 C 
ATOM     19  C   UNL     1      -4.103  -4.442  -0.074  0.00  0.00    +0.031 C 
ATOM     20  C   UNL     1      -5.289  -2.630  -1.320  0.00  0.00    +0.031 C 
BRANCH  18  21
ATOM     21  C   UNL     1      -5.509  -5.006  -2.061  0.00  0.00    +0.031 C 
BRANCH  21  22
ATOM     22  C   UNL     1      -5.544  -4.838  -3.581  0.00  0.00    -0.036 C 
ATOM     23  C   UNL     1      -4.319  -5.516  -4.198  0.00  0.00    +0.010 C 
ATOM     24  C   UNL     1      -6.817  -5.481  -4.136  0.00  0.00    +0.010 C 
ATOM     25  C   UNL     1      -5.532  -3.349  -3.930  0.00  0.00    +0.010 C 
ENDBRANCH  21  22
ENDBRANCH  18  21
ENDBRANCH  16  18
ENDBRANCH   1  14
BRANCH   1  26
ATOM     26  N   UNL     1      -0.707  -1.312  -2.747  0.00  0.00    -0.284 N 
ATOM     27  C   UNL     1       0.508  -1.054  -3.270  0.00  0.00    +0.234 C 
ATOM     28  O   UNL     1       1.025  -1.849  -4.026  0.00  0.00    -0.274 OA
BRANCH  26  29
ATOM     29  C   UNL     1      -1.331  -0.351  -1.834  0.00  0.00    +0.108 C 
BRANCH  29  31
ATOM     30  C   UNL     1      -1.524   0.367   0.551  0.00  0.00    +0.005 C 
ATOM     31  C   UNL     1      -0.883  -0.645  -0.401  0.00  0.00    +0.016 C 
ENDBRANCH  29  31
ENDBRANCH  26  29
BRANCH  27  32
ATOM     32  C   UNL     1       1.225   0.223  -2.915  0.00  0.00    +0.200 C 
BRANCH  32  33
ATOM     33  N   UNL     1       2.516   0.267  -3.606  0.00  0.00    -0.303 N 
ATOM     34  C   UNL     1       3.335   1.324  -3.438  0.00  0.00    +0.244 C 
ATOM     35  O   UNL     1       3.003   2.241  -2.712  0.00  0.00    -0.270 OA
ATOM     36  H   UNL     1       2.781  -0.465  -4.185  0.00  0.00    +0.150 HD
BRANCH  34  37
ATOM     37  C   UNL     1       4.638   1.368  -4.135  0.00  0.00    +0.037 A 
ATOM     38  C   UNL     1       5.020   0.320  -4.973  0.00  0.00    +0.013 A 
ATOM     39  C   UNL     1       6.237   0.367  -5.622  0.00  0.00    +0.001 A 
ATOM     40  C   UNL     1       7.078   1.451  -5.442  0.00  0.00    +0.000 A 
ATOM     41  C   UNL     1       6.705   2.494  -4.612  0.00  0.00    +0.001 A 
ATOM     42  C   UNL     1       5.489   2.461  -3.963  0.00  0.00    +0.013 A 
ENDBRANCH  34  37
ENDBRANCH  32  33
ENDBRANCH  27  32
ENDBRANCH   1  26
TORSDOF 14
