REMARK  Name = ZINC47483496
REMARK  10 active torsions:
REMARK  status: ('A' for Active; 'I' for Inactive)
REMARK    1  A    between atoms: C_1  and  C_2
REMARK    2  A    between atoms: C_2  and  C_3
REMARK    3  A    between atoms: C_2  and  C_4
REMARK    4  A    between atoms: C_2  and  N_5
REMARK    5  A    between atoms: C_6  and  C_8
REMARK    6  A    between atoms: C_11  and  N_14
REMARK    7  A    between atoms: N_17  and  C_18
REMARK    8  A    between atoms: C_18  and  C_19
REMARK    9  A    between atoms: N_21  and  C_22
REMARK   10  A    between atoms: C_26  and  C_28
REMARK                            x       y       z     vdW  Elec       q    Type
REMARK                         _______ _______ _______ _____ _____    ______ ____
ROOT
ATOM      1  N   UNL     1       4.244  -1.710  -6.480  0.00  0.00    -0.269 N 
ATOM      2  C   UNL     1       4.086  -2.997  -6.849  0.00  0.00    +0.304 C 
ATOM      3  O   UNL     1       3.296  -3.706  -6.257  0.00  0.00    -0.252 OA
ATOM      4  N   UNL     1       4.804  -3.497  -7.874  0.00  0.00    -0.291 N 
ATOM      5  H   UNL     1       4.824  -1.126  -6.993  0.00  0.00    +0.156 HD
ATOM      6  H   UNL     1       5.434  -2.931  -8.346  0.00  0.00    +0.151 HD
ENDROOT
BRANCH   1  10
ATOM      7  C   UNL     1       2.242  -0.241  -3.136  0.00  0.00    +0.037 A 
ATOM      8  C   UNL     1       1.625  -1.184  -3.963  0.00  0.00    +0.015 A 
ATOM      9  C   UNL     1       2.290  -1.668  -5.067  0.00  0.00    +0.024 A 
ATOM     10  C   UNL     1       3.574  -1.218  -5.361  0.00  0.00    +0.035 A 
ATOM     11  C   UNL     1       4.190  -0.280  -4.539  0.00  0.00    +0.024 A 
ATOM     12  C   UNL     1       3.529   0.212  -3.437  0.00  0.00    +0.015 A 
BRANCH   7  14
ATOM     13  N   UNL     1       0.290  -0.158  -1.663  0.00  0.00    -0.307 N 
ATOM     14  C   UNL     1       1.532   0.280  -1.952  0.00  0.00    +0.244 C 
ATOM     15  O   UNL     1       2.067   1.104  -1.236  0.00  0.00    -0.270 OA
ATOM     16  H   UNL     1      -0.137  -0.816  -2.234  0.00  0.00    +0.150 HD
BRANCH  13  18
ATOM     17  C   UNL     1      -0.578   1.875  -0.617  0.00  0.00    +0.031 C 
ATOM     18  C   UNL     1      -0.414   0.359  -0.488  0.00  0.00    +0.026 C 
ATOM     19  C   UNL     1       0.393   0.038   0.772  0.00  0.00    +0.031 C 
ATOM     20  C   UNL     1      -1.794  -0.296  -0.391  0.00  0.00    +0.031 C 
ENDBRANCH  13  18
ENDBRANCH   7  14
ENDBRANCH   1  10
BRANCH   4  21
ATOM     21  C   UNL     1       4.633  -4.896  -8.275  0.00  0.00    +0.202 C 
BRANCH  21  22
ATOM     22  C   UNL     1       5.544  -5.201  -9.436  0.00  0.00    +0.234 C 
ATOM     23  O   UNL     1       6.265  -4.335  -9.884  0.00  0.00    -0.274 OA
ATOM     24  N   UNL     1       5.556  -6.436  -9.976  0.00  0.00    -0.284 N 
ATOM     25  H   UNL     1       4.928  -7.107  -9.667  0.00  0.00    +0.155 HD
BRANCH  24  26
ATOM     26  C   UNL     1       6.477  -6.750 -10.982  0.00  0.00    +0.035 A 
ATOM     27  C   UNL     1       6.125  -7.636 -11.993  0.00  0.00    +0.023 A 
ATOM     28  C   UNL     1       7.030  -7.949 -12.989  0.00  0.00    +0.003 A 
ATOM     29  C   UNL     1       8.289  -7.384 -12.987  0.00  0.00    +0.017 A 
ATOM     30  C   UNL     1       8.652  -6.492 -11.976  0.00  0.00    +0.026 A 
ATOM     31  C   UNL     1       7.737  -6.172 -10.974  0.00  0.00    +0.040 A 
BRANCH  30  32
ATOM     32  C   UNL     1       9.957  -5.904 -11.972  0.00  0.00    -0.070 C 
ATOM     33  C   UNL     1      11.028  -5.421 -11.968  0.00  0.00    +0.009 C 
ENDBRANCH  30  32
ENDBRANCH  24  26
ENDBRANCH  21  22
ENDBRANCH   4  21
TORSDOF 7
