REMARK  Name = ZINC43218909
REMARK  8 active torsions:
REMARK  status: ('A' for Active; 'I' for Inactive)
REMARK    1  A    between atoms: C_1  and  C_2
REMARK    2  A    between atoms: C_5  and  N_9
REMARK    3  A    between atoms: C_14  and  C_31
REMARK    4  A    between atoms: C_17  and  C_22
REMARK    5  A    between atoms: C_17  and  C_28
REMARK    6  A    between atoms: C_35  and  O_38
REMARK    7  A    between atoms: C_36  and  O_37
REMARK    8  A    between atoms: O_38  and  C_39
REMARK                            x       y       z     vdW  Elec       q    Type
REMARK                         _______ _______ _______ _____ _____    ______ ____
ROOT
ATOM      1  N   UNL     1      -0.011  -4.177   0.383  0.00  0.00    -0.210 N 
ATOM      2  C   UNL     1      -0.001  -4.795  -0.843  0.00  0.00    +0.229 C 
ATOM      3  O   UNL     1       0.183  -4.284  -1.927  0.00  0.00    -0.275 OA
ATOM      4  C   UNL     1      -0.258  -6.184  -0.557  0.00  0.00    +0.078 C 
ATOM      5  C   UNL     1      -0.087  -7.519  -1.156  0.00  0.00    -0.023 C 
ATOM      6  N   UNL     1      -0.427  -8.427  -0.006  0.00  0.00    +0.398 N 
ATOM      7  C   UNL     1      -0.213  -7.661   1.258  0.00  0.00    +0.074 C 
ATOM      8  C   UNL     1       0.492  -6.368   0.822  0.00  0.00    +0.090 C 
ATOM      9  C   UNL     1       0.045  -5.064   1.421  0.00  0.00    +0.229 C 
ATOM     10  O   UNL     1      -0.214  -4.845   2.585  0.00  0.00    -0.275 OA
ATOM     11  H   UNL     1      -1.391  -8.715  -0.072  0.00  0.00    -0.083 HD
ATOM     12  H   UNL     1       0.175  -9.237  -0.021  0.00  0.00    -0.083 HD
ENDROOT
BRANCH   1  17
ATOM     13  C   UNL     1      -0.236   1.454   1.063  0.00  0.00    +0.045 C 
ATOM     14  C   UNL     1      -0.176  -0.041   0.883  0.00  0.00    -0.032 A 
ATOM     15  C   UNL     1      -0.176  -0.583  -0.389  0.00  0.00    +0.006 A 
ATOM     16  C   UNL     1      -0.121  -1.953  -0.557  0.00  0.00    +0.024 A 
ATOM     17  C   UNL     1      -0.066  -2.786   0.552  0.00  0.00    +0.045 A 
ATOM     18  C   UNL     1      -0.066  -2.240   1.828  0.00  0.00    +0.044 A 
ATOM     19  C   UNL     1      -0.116  -0.868   1.991  0.00  0.00    +0.046 A 
ATOM     20 CL   UNL     1      -0.111  -0.183   3.586  0.00  0.00    -0.083 Cl
ENDBRANCH   1  17
BRANCH   7  21
ATOM     21  C   UNL     1      -1.535  -7.366   1.919  0.00  0.00    -0.047 A 
ATOM     22  C   UNL     1      -1.584  -7.083   3.271  0.00  0.00    +0.003 A 
ATOM     23  C   UNL     1      -2.796  -6.812   3.877  0.00  0.00    +0.000 A 
ATOM     24  C   UNL     1      -3.960  -6.824   3.131  0.00  0.00    +0.000 A 
ATOM     25  C   UNL     1      -3.911  -7.106   1.779  0.00  0.00    +0.000 A 
ATOM     26  C   UNL     1      -2.698  -7.373   1.172  0.00  0.00    +0.003 A 
ENDBRANCH   7  21
BRANCH   5  27
ATOM     27  C   UNL     1      -1.045  -7.720  -2.302  0.00  0.00    -0.015 A 
ATOM     28  C   UNL     1      -2.119  -6.864  -2.464  0.00  0.00    +0.006 A 
ATOM     29  C   UNL     1      -2.999  -7.046  -3.514  0.00  0.00    +0.004 A 
ATOM     30  C   UNL     1      -2.810  -8.085  -4.407  0.00  0.00    +0.049 A 
ATOM     31  C   UNL     1      -1.737  -8.946  -4.250  0.00  0.00    +0.161 A 
ATOM     32  C   UNL     1      -0.846  -8.759  -3.197  0.00  0.00    +0.160 A 
BRANCH  32  33
ATOM     33  O   UNL     1       0.212  -9.598  -3.042  0.00  0.00    -0.503 OA
ATOM     34  H   UNL     1       0.025 -10.371  -2.492  0.00  0.00    +0.292 HD
ENDBRANCH  32  33
BRANCH  31  35
ATOM     35  O   UNL     1      -1.549  -9.968  -5.128  0.00  0.00    -0.491 OA
ATOM     36  C   UNL     1      -2.499 -10.095  -6.188  0.00  0.00    +0.277 C 
ENDBRANCH  31  35
ENDBRANCH   5  27
BRANCH   7  37
ATOM     37  C   UNL     1       0.677  -8.438   2.194  0.00  0.00    +0.350 C 
ATOM     38  O   UNL     1       1.085  -9.541   1.872  0.00  0.00    -0.248 OA
ATOM     39  O   UNL     1       0.990  -7.963   3.272  0.00  0.00    -0.248 OA
ENDBRANCH   7  37
TORSDOF 6
