REMARK  Name = ZINC06624534
REMARK  7 active torsions:
REMARK  status: ('A' for Active; 'I' for Inactive)
REMARK    1  A    between atoms: C_1  and  C_2
REMARK    2  A    between atoms: C_3  and  C_29
REMARK    3  A    between atoms: C_9  and  O_19
REMARK    4  A    between atoms: C_15  and  C_17
REMARK    5  A    between atoms: C_15  and  C_18
REMARK    6  A    between atoms: O_19  and  C_20
REMARK    7  A    between atoms: C_20  and  C_21
REMARK                            x       y       z     vdW  Elec       q    Type
REMARK                         _______ _______ _______ _____ _____    ______ ____
ROOT
ATOM      1  C   UNL     1       3.247  -1.280  -0.041  0.00  0.00    +0.045 C 
ATOM      2  C   UNL     1       4.614  -0.645  -0.047  0.00  0.00    -0.027 A 
ATOM      3  C   UNL     1       5.734  -1.415  -0.016  0.00  0.00    +0.038 A 
ATOM      4  C   UNL     1       7.004  -0.805  -0.023  0.00  0.00    +0.340 A 
ATOM      5  O   UNL     1       8.003  -1.502   0.006  0.00  0.00    -0.245 OA
ATOM      6  O   UNL     1       7.132   0.532  -0.059  0.00  0.00    -0.421 OA
ATOM      7  C   UNL     1       6.042   1.332  -0.091  0.00  0.00    +0.149 A 
ATOM      8  C   UNL     1       4.756   0.765  -0.085  0.00  0.00    +0.063 A 
ATOM      9  C   UNL     1       3.626   1.601  -0.115  0.00  0.00    +0.136 A 
ATOM     10  C   UNL     1       3.794   2.969  -0.159  0.00  0.00    +0.092 A 
ATOM     11  C   UNL     1       5.073   3.528  -0.163  0.00  0.00    +0.131 A 
ATOM     12  C   UNL     1       6.191   2.713  -0.130  0.00  0.00    +0.038 A 
ATOM     13  C   UNL     1       7.584   3.289  -0.131  0.00  0.00    +0.046 C 
ATOM     14  C   UNL     1       7.543   4.742  -0.608  0.00  0.00    +0.052 C 
ATOM     15  C   UNL     1       6.428   5.468   0.157  0.00  0.00    +0.105 C 
ATOM     16  O   UNL     1       5.178   4.881  -0.208  0.00  0.00    -0.486 OA
ATOM     17  C   UNL     1       6.651   5.312   1.662  0.00  0.00    +0.055 C 
ATOM     18  C   UNL     1       6.429   6.952  -0.215  0.00  0.00    +0.055 C 
ATOM     19  C   UNL     1       5.617  -2.917   0.025  0.00  0.00    +0.051 C 
ENDROOT
BRANCH   9  20
ATOM     20  O   UNL     1       2.379   1.065  -0.108  0.00  0.00    -0.482 OA
BRANCH  20  21
ATOM     21  C   UNL     1       1.280   1.978  -0.140  0.00  0.00    +0.325 C 
BRANCH  21  22
ATOM     22  C   UNL     1      -0.015   1.208  -0.126  0.00  0.00    +0.256 C 
ATOM     23  O   UNL     1       0.002  -0.005  -0.092  0.00  0.00    -0.272 OA
ATOM     24  N   UNL     1      -1.191   1.865  -0.158  0.00  0.00    -0.262 N 
ATOM     25  C   UNL     1      -2.385   1.154  -0.150  0.00  0.00    +0.164 A 
ATOM     26  N   UNL     1      -2.572  -0.152  -0.121  0.00  0.00    -0.233 NA
ATOM     27  C   UNL     1      -3.785  -0.668  -0.114  0.00  0.00    +0.120 A 
ATOM     28  C   UNL     1      -4.846   0.175  -0.150  0.00  0.00    +0.068 A 
ATOM     29  S   UNL     1      -4.013   1.755  -0.185  0.00  0.00    -0.061 S 
ATOM     30  H   UNL     1      -1.204   2.834  -0.185  0.00  0.00    +0.157 HD
ENDBRANCH  21  22
ENDBRANCH  20  21
ENDBRANCH   9  20
TORSDOF 3
