REMARK  Name = ZINC39841118
REMARK  11 active torsions:
REMARK  status: ('A' for Active; 'I' for Inactive)
REMARK    1  A    between atoms: C_1  and  C_2
REMARK    2  A    between atoms: C_14  and  C_22
REMARK    3  A    between atoms: C_15  and  N_16
REMARK    4  A    between atoms: N_17  and  C_18
REMARK    5  A    between atoms: C_18  and  C_19
REMARK    6  A    between atoms: C_19  and  O_20
REMARK    7  A    between atoms: O_20  and  C_21
REMARK    8  A    between atoms: N_24  and  C_25
REMARK    9  A    between atoms: C_26  and  C_34
REMARK   10  A    between atoms: C_34  and  O_36
REMARK   11  A    between atoms: O_36  and  C_37
REMARK                            x       y       z     vdW  Elec       q    Type
REMARK                         _______ _______ _______ _____ _____    ______ ____
ROOT
ATOM      1  C   UNL     1       2.135   1.801   0.707  0.00  0.00    +0.047 C 
ATOM      2  C   UNL     1       1.630   0.412   0.415  0.00  0.00    -0.007 A 
ATOM      3  C   UNL     1       1.690  -0.085  -0.850  0.00  0.00    +0.008 A 
ATOM      4  C   UNL     1       1.216  -1.381  -1.110  0.00  0.00    +0.019 A 
ATOM      5  C   UNL     1       0.704  -2.128  -0.109  0.00  0.00    +0.096 A 
ATOM      6  N   UNL     1       0.639  -1.640   1.164  0.00  0.00    -0.267 N 
ATOM      7  C   UNL     1       1.097  -0.383   1.453  0.00  0.00    +0.145 A 
ATOM      8  N   UNL     1       1.054   0.124   2.680  0.00  0.00    -0.211 NA
ATOM      9  C   UNL     1       0.565  -0.563   3.717  0.00  0.00    +0.150 A 
ATOM     10  C   UNL     1       0.075  -1.879   3.499  0.00  0.00    +0.083 A 
ATOM     11  C   UNL     1       0.118  -2.421   2.140  0.00  0.00    +0.268 A 
ATOM     12  O   UNL     1      -0.288  -3.543   1.898  0.00  0.00    -0.267 OA
ATOM     13  C   UNL     1      -0.439  -2.612   4.566  0.00  0.00    +0.033 A 
ATOM     14  C   UNL     1      -0.451  -2.012   5.828  0.00  0.00    +0.076 A 
ATOM     15  C   UNL     1       0.053  -0.700   5.973  0.00  0.00    +0.110 A 
ATOM     16  N   UNL     1       0.533  -0.032   4.941  0.00  0.00    -0.311 N 
ENDROOT
BRANCH  14  17
ATOM     17  C   UNL     1      -0.982  -2.738   6.992  0.00  0.00    +0.252 C 
ATOM     18  O   UNL     1      -0.900  -2.249   8.103  0.00  0.00    -0.270 OA
ATOM     19  N   UNL     1      -1.559  -3.945   6.827  0.00  0.00    -0.275 N 
ATOM     20  H   UNL     1      -1.624  -4.335   5.941  0.00  0.00    +0.156 HD
BRANCH  19  21
ATOM     21  C   UNL     1      -2.059  -4.629   7.923  0.00  0.00    +0.087 A 
ATOM     22  C   UNL     1      -2.675  -5.872   7.945  0.00  0.00    +0.091 A 
ATOM     23  C   UNL     1      -3.114  -6.372   9.237  0.00  0.00    -0.021 A 
ATOM     24  C   UNL     1      -2.857  -5.539  10.268  0.00  0.00    -0.004 A 
ATOM     25  S   UNL     1      -2.053  -4.146   9.532  0.00  0.00    -0.077 S 
ATOM     26  C   UNL     1      -3.186  -5.767  11.711  0.00  0.00    +0.043 C 
ATOM     27  C   UNL     1      -4.197  -6.920  11.800  0.00  0.00    +0.005 C 
ATOM     28  C   UNL     1      -3.700  -8.082  10.934  0.00  0.00    +0.005 C 
ATOM     29  C   UNL     1      -3.805  -7.710   9.454  0.00  0.00    +0.037 C 
BRANCH  22  30
ATOM     30  C   UNL     1      -2.875  -6.646   6.718  0.00  0.00    +0.342 C 
ATOM     31  O   UNL     1      -2.022  -7.430   6.348  0.00  0.00    -0.245 OA
BRANCH  30  32
ATOM     32  O   UNL     1      -4.006  -6.490   5.999  0.00  0.00    -0.464 OA
ATOM     33  C   UNL     1      -4.134  -7.278   4.814  0.00  0.00    +0.280 C 
ENDBRANCH  30  32
ENDBRANCH  22  30
ENDBRANCH  19  21
ENDBRANCH  14  17
BRANCH  15  34
ATOM     34  N   UNL     1       0.042  -0.106   7.217  0.00  0.00    -0.344 N 
ATOM     35  H   UNL     1       0.119  -0.651   8.016  0.00  0.00    +0.144 HD
ATOM     36  H   UNL     1      -0.043   0.857   7.294  0.00  0.00    +0.144 HD
ENDBRANCH  15  34
BRANCH  16  37
ATOM     37  C   UNL     1       1.043   1.326   5.145  0.00  0.00    +0.153 C 
BRANCH  37  38
ATOM     38  C   UNL     1      -0.093   2.333   4.949  0.00  0.00    +0.181 C 
BRANCH  38  39
ATOM     39  O   UNL     1       0.405   3.657   5.147  0.00  0.00    -0.381 OA
ATOM     40  C   UNL     1      -0.581   4.679   4.987  0.00  0.00    +0.194 C 
ENDBRANCH  38  39
ENDBRANCH  37  38
ENDBRANCH  16  37
TORSDOF 8
