REMARK  Name = ZINC42359756
REMARK  9 active torsions:
REMARK  status: ('A' for Active; 'I' for Inactive)
REMARK    1  A    between atoms: C_1  and  C_2
REMARK    2  A    between atoms: C_5  and  N_25
REMARK    3  A    between atoms: C_7  and  N_8
REMARK    4  A    between atoms: C_9  and  C_11
REMARK    5  A    between atoms: C_11  and  C_13
REMARK    6  A    between atoms: C_11  and  N_14
REMARK    7  A    between atoms: N_14  and  C_15
REMARK    8  A    between atoms: C_19  and  C_21
REMARK    9  A    between atoms: N_23  and  C_24
REMARK                            x       y       z     vdW  Elec       q    Type
REMARK                         _______ _______ _______ _____ _____    ______ ____
ROOT
ATOM      1  C   UNL     1      -0.169   0.052   4.882  0.00  0.00    +0.154 C 
ATOM      2  C   UNL     1       1.058   0.948   5.064  0.00  0.00    +0.038 C 
ENDROOT
BRANCH   1   4
ATOM      3  N   UNL     1       0.025  -0.015   2.417  0.00  0.00    -0.284 N 
ATOM      4  C   UNL     1      -0.057  -0.694   3.578  0.00  0.00    +0.237 C 
ATOM      5  O   UNL     1      -0.040  -1.907   3.573  0.00  0.00    -0.273 OA
ATOM      6  H   UNL     1       0.077   0.954   2.425  0.00  0.00    +0.155 HD
BRANCH   3  13
ATOM      7  C   UNL     1      -1.265   1.182   0.181  0.00  0.00    +0.045 C 
ATOM      8  C   UNL     1      -0.584  -0.158   0.084  0.00  0.00    -0.029 A 
ATOM      9  C   UNL     1      -0.569  -0.841  -1.117  0.00  0.00    +0.007 A 
ATOM     10  C   UNL     1       0.056  -2.071  -1.206  0.00  0.00    +0.033 A 
ATOM     11  C   UNL     1       0.667  -2.622  -0.095  0.00  0.00    +0.128 A 
ATOM     12  C   UNL     1       0.656  -1.944   1.109  0.00  0.00    +0.056 A 
ATOM     13  C   UNL     1       0.034  -0.706   1.201  0.00  0.00    +0.039 A 
BRANCH  11  14
ATOM     14  N   UNL     1       1.335  -3.940  -0.195  0.00  0.00    +0.056 N 
ATOM     15  O   UNL     1       1.345  -4.534  -1.248  0.00  0.00    -0.126 OA
ATOM     16  O   UNL     1       1.869  -4.422   0.776  0.00  0.00    -0.126 OA
ENDBRANCH  11  14
ENDBRANCH   3  13
ENDBRANCH   1   4
BRANCH   1  17
ATOM     17  N   UNL     1      -0.242  -0.905   5.988  0.00  0.00    -0.333 N 
ATOM     18  H   UNL     1       0.134  -1.794   5.887  0.00  0.00    +0.147 HD
BRANCH  17  19
ATOM     19  C   UNL     1      -0.854  -0.539   7.190  0.00  0.00    +0.028 A 
ATOM     20  C   UNL     1      -1.398   0.732   7.334  0.00  0.00    +0.023 A 
ATOM     21  C   UNL     1      -2.005   1.099   8.520  0.00  0.00    +0.003 A 
ATOM     22  C   UNL     1      -2.074   0.206   9.570  0.00  0.00    +0.013 A 
ATOM     23  C   UNL     1      -1.531  -1.073   9.436  0.00  0.00    +0.038 A 
ATOM     24  C   UNL     1      -0.923  -1.445   8.237  0.00  0.00    +0.036 A 
BRANCH  23  25
ATOM     25  C   UNL     1      -1.604  -2.031  10.559  0.00  0.00    +0.244 C 
ATOM     26  O   UNL     1      -1.130  -3.144  10.441  0.00  0.00    -0.270 OA
ATOM     27  N   UNL     1      -2.196  -1.671  11.716  0.00  0.00    -0.314 N 
ATOM     28  C   UNL     1      -2.268  -2.620  12.829  0.00  0.00    +0.128 C 
ATOM     29  H   UNL     1      -2.574  -0.782  11.810  0.00  0.00    +0.149 HD
ENDBRANCH  23  25
ENDBRANCH  17  19
ENDBRANCH   1  17
TORSDOF 6
