REMARK  Name = ZINC57395433
REMARK  8 active torsions:
REMARK  status: ('A' for Active; 'I' for Inactive)
REMARK    1  A    between atoms: C_1  and  C_2
REMARK    2  A    between atoms: C_3  and  C_8
REMARK    3  A    between atoms: C_8  and  C_9
REMARK    4  A    between atoms: C_9  and  C_10
REMARK    5  A    between atoms: C_10  and  N_11
REMARK    6  A    between atoms: N_11  and  C_12
REMARK    7  A    between atoms: C_12  and  C_13
REMARK    8  A    between atoms: C_16  and  O_20
REMARK                            x       y       z     vdW  Elec       q    Type
REMARK                         _______ _______ _______ _____ _____    ______ ____
ROOT
ATOM      1  N   UNL     1       2.785   0.735  -4.868  0.00  0.00    +0.382 N 
ATOM      2  H   UNL     1       3.179   1.456  -4.282  0.00  0.00    -0.085 HD
ATOM      3  H   UNL     1       3.343  -0.102  -4.794  0.00  0.00    -0.085 HD
ENDROOT
BRANCH   1   4
ATOM      4  C   UNL     1       1.411   0.449  -4.434  0.00  0.00    -0.082 C 
BRANCH   4   5
ATOM      5  C   UNL     1       1.425  -0.028  -2.980  0.00  0.00    -0.014 C 
BRANCH   5   6
ATOM      6  C   UNL     1      -0.006  -0.327  -2.527  0.00  0.00    +0.036 C 
BRANCH   6   9
ATOM      7  C   UNL     1      -0.018   1.503   0.010  0.00  0.00    +0.065 C 
ATOM      8  C   UNL     1       0.002  -0.004   0.002  0.00  0.00    +0.036 A 
ATOM      9  C   UNL     1       0.008  -0.796  -1.095  0.00  0.00    -0.007 A 
ATOM     10  C   UNL     1       0.028  -2.127  -0.666  0.00  0.00    +0.138 A 
ATOM     11  N   UNL     1       0.035  -2.134   0.643  0.00  0.00    -0.182 NA
ATOM     12  N   UNL     1       0.024  -0.805   1.088  0.00  0.00    -0.282 N 
ATOM     13  H   UNL     1       0.029  -0.513   2.013  0.00  0.00    +0.189 HD
ENDBRANCH   6   9
ENDBRANCH   5   6
ENDBRANCH   4   5
ENDBRANCH   1   4
BRANCH   1  14
ATOM     14  C   UNL     1       2.771   1.193  -6.264  0.00  0.00    -0.047 C 
BRANCH  14  15
ATOM     15  C   UNL     1       4.181   1.487  -6.710  0.00  0.00    -0.063 A 
ATOM     16  C   UNL     1       4.709   2.753  -6.537  0.00  0.00    +0.005 A 
ATOM     17  C   UNL     1       6.000   3.026  -6.944  0.00  0.00    +0.047 A 
ATOM     18  C   UNL     1       6.768   2.028  -7.528  0.00  0.00    +0.131 A 
ATOM     19  C   UNL     1       6.235   0.758  -7.701  0.00  0.00    +0.059 A 
ATOM     20  C   UNL     1       4.944   0.489  -7.286  0.00  0.00    +0.020 A 
ATOM     21 BR   UNL     1       7.277  -0.605  -8.497  0.00  0.00    -0.047 Br
BRANCH  18  22
ATOM     22  O   UNL     1       8.038   2.294  -7.931  0.00  0.00    -0.506 OA
ATOM     23  H   UNL     1       8.707   2.137  -7.251  0.00  0.00    +0.292 HD
ENDBRANCH  18  22
ENDBRANCH  14  15
ENDBRANCH   1  14
TORSDOF 7
