REMARK  Name = ZINC15129228
REMARK  8 active torsions:
REMARK  status: ('A' for Active; 'I' for Inactive)
REMARK    1  A    between atoms: C_4  and  C_7
REMARK    2  A    between atoms: C_7  and  C_9
REMARK    3  A    between atoms: C_7  and  N_49
REMARK    4  A    between atoms: C_9  and  N_10
REMARK    5  A    between atoms: N_10  and  C_11
REMARK    6  A    between atoms: C_14  and  S_20
REMARK    7  A    between atoms: C_16  and  N_17
REMARK    8  A    between atoms: S_20  and  N_23
REMARK                            x       y       z     vdW  Elec       q    Type
REMARK                         _______ _______ _______ _____ _____    ______ ____
ROOT
ATOM      1  N   UNL     1      -3.464   2.516   5.409  0.00  0.00    -0.343 N 
ATOM      2  H   UNL     1      -3.776   1.716   5.860  0.00  0.00    +0.146 HD
ENDROOT
BRANCH   1   3
ATOM      3  C   UNL     1      -3.272   2.508   4.026  0.00  0.00    +0.058 A 
ATOM      4  C   UNL     1      -2.760   3.631   3.388  0.00  0.00    +0.027 A 
ATOM      5  C   UNL     1      -2.566   3.618   2.021  0.00  0.00    +0.030 A 
ATOM      6  C   UNL     1      -2.890   2.492   1.285  0.00  0.00    +0.107 A 
ATOM      7  C   UNL     1      -3.399   1.373   1.917  0.00  0.00    +0.063 A 
ATOM      8  C   UNL     1      -3.591   1.377   3.285  0.00  0.00    +0.149 A 
BRANCH   8   9
ATOM      9  N   UNL     1      -4.135   0.178   3.961  0.00  0.00    +0.058 N 
ATOM     10  O   UNL     1      -3.803  -0.933   3.590  0.00  0.00    -0.126 OA
ATOM     11  O   UNL     1      -4.915   0.303   4.888  0.00  0.00    -0.126 OA
ENDBRANCH   8   9
BRANCH   6  12
ATOM     12  S   UNL     1      -2.646   2.482  -0.460  0.00  0.00    +0.056 S 
ATOM     13  O   UNL     1      -2.509   1.121  -0.843  0.00  0.00    -0.153 OA
ATOM     14  O   UNL     1      -1.649   3.456  -0.736  0.00  0.00    -0.153 OA
BRANCH  12  15
ATOM     15  N   UNL     1      -4.047   3.029  -1.153  0.00  0.00    -0.204 NA
ATOM     16  H   UNL     1      -4.538   2.462  -1.768  0.00  0.00    +0.144 HD
ATOM     17  H   UNL     1      -4.377   3.917  -0.944  0.00  0.00    +0.144 HD
ENDBRANCH  12  15
ENDBRANCH   6  12
ENDBRANCH   1   3
BRANCH   1  18
ATOM     18  C   UNL     1      -3.195   3.733   6.179  0.00  0.00    +0.091 C 
BRANCH  18  19
ATOM     19  C   UNL     1      -3.483   3.474   7.659  0.00  0.00    -0.020 C 
BRANCH  19  23
ATOM     20  C   UNL     1      -2.370   6.905   9.948  0.00  0.00    +0.000 A 
ATOM     21  C   UNL     1      -1.570   6.482   8.903  0.00  0.00    +0.000 A 
ATOM     22  C   UNL     1      -1.930   5.371   8.163  0.00  0.00    +0.002 A 
ATOM     23  C   UNL     1      -3.091   4.684   8.467  0.00  0.00    -0.059 A 
ATOM     24  C   UNL     1      -3.893   5.111   9.508  0.00  0.00    +0.002 A 
ATOM     25  C   UNL     1      -3.531   6.218  10.252  0.00  0.00    +0.000 A 
ENDBRANCH  19  23
BRANCH  19  30
ATOM     26  C   UNL     1      -1.252   2.599   8.092  0.00  0.00    -0.078 C 
ATOM     27  C   UNL     1      -0.666   1.536   9.055  0.00  0.00    -0.020 C 
ATOM     28  C   UNL     1      -1.739   1.446  10.164  0.00  0.00    -0.020 C 
ATOM     29  C   UNL     1      -3.033   1.973   9.516  0.00  0.00    -0.078 C 
ATOM     30  N   UNL     1      -2.692   2.297   8.130  0.00  0.00    +0.385 N 
ATOM     31  H   UNL     1      -2.894   1.492   7.526  0.00  0.00    -0.081 HD
ENDBRANCH  19  30
ENDBRANCH  18  19
ENDBRANCH   1  18
TORSDOF 8
