REMARK  Name = ZINC12881851
REMARK  9 active torsions:
REMARK  status: ('A' for Active; 'I' for Inactive)
REMARK    1  A    between atoms: C_1  and  S_2
REMARK    2  A    between atoms: S_2  and  C_3
REMARK    3  A    between atoms: C_8  and  C_9
REMARK    4  A    between atoms: N_11  and  C_12
REMARK    5  A    between atoms: N_11  and  C_19
REMARK    6  A    between atoms: C_12  and  C_13
REMARK    7  A    between atoms: C_20  and  N_35
REMARK    8  A    between atoms: N_21  and  C_28
REMARK    9  A    between atoms: C_28  and  C_29
REMARK                            x       y       z     vdW  Elec       q    Type
REMARK                         _______ _______ _______ _____ _____    ______ ____
ROOT
ATOM      1  C   UNL     1       0.525  -4.854   0.511  0.00  0.00    +0.140 A 
ATOM      2  C   UNL     1       1.023  -4.761  -0.773  0.00  0.00    +0.128 A 
ATOM      3  N   UNL     1       0.695  -5.729  -1.693  0.00  0.00    -0.276 N 
ATOM      4  C   UNL     1      -0.102  -6.755  -1.346  0.00  0.00    +0.331 A 
ATOM      5  O   UNL     1      -0.381  -7.601  -2.174  0.00  0.00    -0.246 OA
ATOM      6  N   UNL     1      -0.597  -6.863  -0.100  0.00  0.00    -0.273 N 
ATOM      7  H   UNL     1      -1.170  -7.613   0.125  0.00  0.00    +0.173 HD
ATOM      8  C   UNL     1      -0.302  -5.945   0.840  0.00  0.00    +0.277 A 
ATOM      9  O   UNL     1      -0.751  -6.055   1.968  0.00  0.00    -0.266 OA
ENDROOT
BRANCH   1  12
ATOM     10  C   UNL     1       0.527  -2.585   1.258  0.00  0.00    +0.252 C 
ATOM     11  O   UNL     1       0.833  -1.738   2.075  0.00  0.00    -0.270 OA
ATOM     12  N   UNL     1       0.843  -3.877   1.477  0.00  0.00    -0.258 N 
BRANCH  10  18
ATOM     13  C   UNL     1      -0.030  -0.911  -0.506  0.00  0.00    +0.020 A 
ATOM     14  C   UNL     1      -0.707  -0.562  -1.669  0.00  0.00    +0.015 A 
ATOM     15  C   UNL     1      -1.533  -1.476  -2.289  0.00  0.00    +0.001 A 
ATOM     16  C   UNL     1      -1.695  -2.747  -1.760  0.00  0.00    +0.001 A 
ATOM     17  C   UNL     1      -1.034  -3.112  -0.608  0.00  0.00    +0.014 A 
ATOM     18  C   UNL     1      -0.189  -2.200   0.029  0.00  0.00    +0.051 A 
BRANCH  13  20
ATOM     19  C   UNL     1       0.906   1.736  -0.752  0.00  0.00    +0.090 C 
ATOM     20  S   UNL     1       1.027   0.254   0.288  0.00  0.00    -0.128 S 
ENDBRANCH  13  20
ENDBRANCH  10  18
BRANCH  12  21
ATOM     21  C   UNL     1       1.516  -4.267   2.718  0.00  0.00    +0.145 C 
BRANCH  21  22
ATOM     22  C   UNL     1       0.478  -4.438   3.829  0.00  0.00    +0.136 C 
ATOM     23  C   UNL     1       1.181  -4.681   5.189  0.00  0.00    +0.035 C 
ATOM     24  C   UNL     1       0.091  -4.185   6.177  0.00  0.00    +0.031 C 
ATOM     25  C   UNL     1      -0.558  -3.024   5.394  0.00  0.00    +0.160 C 
ATOM     26  O   UNL     1      -0.270  -3.224   4.004  0.00  0.00    -0.375 OA
ENDBRANCH  21  22
ENDBRANCH  12  21
ENDBRANCH   1  12
BRANCH   2  27
ATOM     27  N   UNL     1       1.838  -3.712  -1.127  0.00  0.00    -0.343 N 
ATOM     28  H   UNL     1       2.142  -3.084  -0.453  0.00  0.00    +0.144 HD
ATOM     29  H   UNL     1       2.108  -3.599  -2.052  0.00  0.00    +0.144 HD
ENDBRANCH   2  27
BRANCH   3  30
ATOM     30  C   UNL     1       1.218  -5.642  -3.059  0.00  0.00    +0.163 C 
BRANCH  30  31
ATOM     31  C   UNL     1       2.536  -6.367  -3.140  0.00  0.00    -0.028 A 
ATOM     32  C   UNL     1       3.714  -5.689  -2.888  0.00  0.00    +0.005 A 
ATOM     33  C   UNL     1       4.924  -6.353  -2.962  0.00  0.00    +0.000 A 
ATOM     34  C   UNL     1       4.956  -7.696  -3.287  0.00  0.00    +0.000 A 
ATOM     35  C   UNL     1       3.778  -8.375  -3.539  0.00  0.00    +0.000 A 
ATOM     36  C   UNL     1       2.568  -7.711  -3.460  0.00  0.00    +0.005 A 
ENDBRANCH  30  31
ENDBRANCH   3  30
TORSDOF 8
