REMARK  Name = ZINC05648741
REMARK  3 active torsions:
REMARK  status: ('A' for Active; 'I' for Inactive)
REMARK    1  A    between atoms: C_1  and  N_2
REMARK    2  A    between atoms: C_3  and  O_18
REMARK    3  A    between atoms: C_4  and  C_8
REMARK                            x       y       z     vdW  Elec       q    Type
REMARK                         _______ _______ _______ _____ _____    ______ ____
ROOT
ATOM      1  C   UNL     1       1.791  -1.697  -0.025  0.00  0.00    +0.154 C 
ATOM      2  N   UNL     1       1.353  -0.299  -0.013  0.00  0.00    -0.294 N 
ATOM      3  C   UNL     1       2.251   0.669  -0.016  0.00  0.00    +0.209 A 
ATOM      4  C   UNL     1       1.744   2.055  -0.004  0.00  0.00    +0.088 A 
ATOM      5  S   UNL     1      -0.022   1.781   0.012  0.00  0.00    -0.046 S 
ATOM      6  C   UNL     1       0.002  -0.004   0.002  0.00  0.00    +0.169 A 
ATOM      7  N   UNL     1      -1.007  -0.828   0.008  0.00  0.00    -0.277 NA
ATOM      8  H   UNL     1      -1.914  -0.484   0.018  0.00  0.00    +0.189 HD
ENDROOT
BRANCH   4   9
ATOM      9  C   UNL     1       2.446   3.246  -0.004  0.00  0.00    +0.067 C 
ATOM     10  C   UNL     1       1.904   4.617   0.009  0.00  0.00    +0.011 A 
ATOM     11  C   UNL     1       0.616   5.142   0.025  0.00  0.00    +0.010 A 
ATOM     12  C   UNL     1       0.435   6.512   0.035  0.00  0.00    +0.001 A 
ATOM     13  C   UNL     1       1.530   7.361   0.029  0.00  0.00    +0.002 A 
ATOM     14  C   UNL     1       2.816   6.857   0.014  0.00  0.00    +0.026 A 
ATOM     15  C   UNL     1       3.026   5.476   0.004  0.00  0.00    +0.065 A 
ATOM     16  N   UNL     1       4.165   4.734  -0.011  0.00  0.00    -0.176 NA
ATOM     17  C   UNL     1       3.923   3.437  -0.011  0.00  0.00    +0.270 C 
ATOM     18  O   UNL     1       4.762   2.549  -0.018  0.00  0.00    -0.268 OA
ENDBRANCH   4   9
BRANCH   3  19
ATOM     19  O   UNL     1       3.566   0.404  -0.030  0.00  0.00    -0.493 OA
ATOM     20  H   UNL     1       3.987   0.322  -0.896  0.00  0.00    +0.294 HD
ENDBRANCH   3  19
TORSDOF 2
