REMARK  Name = ZINC06464260
REMARK  9 active torsions:
REMARK  status: ('A' for Active; 'I' for Inactive)
REMARK    1  A    between atoms: C_1  and  C_2
REMARK    2  A    between atoms: C_2  and  O_3
REMARK    3  A    between atoms: O_3  and  C_4
REMARK    4  A    between atoms: C_5  and  O_25
REMARK    5  A    between atoms: C_8  and  C_13
REMARK    6  A    between atoms: C_9  and  N_10
REMARK    7  A    between atoms: C_15  and  C_22
REMARK    8  A    between atoms: C_16  and  C_21
REMARK    9  A    between atoms: C_22  and  C_24
REMARK                            x       y       z     vdW  Elec       q    Type
REMARK                         _______ _______ _______ _____ _____    ______ ____
ROOT
ATOM      1  C   UNL     1       2.198   0.038   0.310  0.00  0.00    +0.192 A 
ATOM      2  C   UNL     1       1.845  -1.308   0.266  0.00  0.00    +0.161 A 
ATOM      3  C   UNL     1       0.510  -1.670   0.203  0.00  0.00    +0.049 A 
ATOM      4  C   UNL     1      -0.470  -0.694   0.186  0.00  0.00    +0.012 A 
ATOM      5  C   UNL     1      -0.121   0.642   0.229  0.00  0.00    +0.011 A 
ATOM      6  C   UNL     1       1.211   1.010   0.291  0.00  0.00    +0.176 A 
ENDROOT
BRANCH   5   7
ATOM      7  C   UNL     1      -1.193   1.701   0.203  0.00  0.00    +0.140 C 
ATOM      8  C   UNL     1      -2.464   1.066  -0.325  0.00  0.00    +0.036 C 
ATOM      9  C   UNL     1      -3.564   1.107   0.467  0.00  0.00    +0.015 C 
ATOM     10  N   UNL     1      -3.524   1.699   1.693  0.00  0.00    -0.300 N 
ATOM     11  C   UNL     1      -2.430   2.274   2.207  0.00  0.00    +0.135 C 
ATOM     12  S   UNL     1      -2.520   2.983   3.762  0.00  0.00    -0.019 S 
ATOM     13  N   UNL     1      -1.260   2.313   1.540  0.00  0.00    -0.315 N 
ATOM     14  C   UNL     1      -4.850   0.488  -0.017  0.00  0.00    +0.061 C 
ATOM     15  H   UNL     1      -4.336   1.704   2.225  0.00  0.00    +0.154 HD
ATOM     16  H   UNL     1      -0.479   2.734   1.933  0.00  0.00    +0.149 HD
BRANCH   8  17
ATOM     17  C   UNL     1      -2.501   0.457  -1.590  0.00  0.00    +0.160 C 
ATOM     18  O   UNL     1      -3.493  -0.150  -1.942  0.00  0.00    -0.293 OA
ATOM     19  C   UNL     1      -1.312   0.557  -2.510  0.00  0.00    +0.091 C 
ENDBRANCH   8  17
ENDBRANCH   5   7
BRANCH   6  20
ATOM     20  N   UNL     1       1.582   2.442   0.337  0.00  0.00    +0.061 N 
ATOM     21  O   UNL     1       1.792   2.982   1.408  0.00  0.00    -0.126 OA
ATOM     22  O   UNL     1       1.677   3.080  -0.696  0.00  0.00    -0.126 OA
ENDBRANCH   6  20
BRANCH   2  23
ATOM     23  O   UNL     1       2.811  -2.266   0.283  0.00  0.00    -0.503 OA
ATOM     24  H   UNL     1       3.125  -2.523  -0.595  0.00  0.00    +0.292 HD
ENDBRANCH   2  23
BRANCH   1  25
ATOM     25  O   UNL     1       3.508   0.398   0.371  0.00  0.00    -0.486 OA
BRANCH  25  27
ATOM     26  C   UNL     1       5.638   0.995  -0.602  0.00  0.00    +0.048 C 
ATOM     27  C   UNL     1       4.185   0.598  -0.871  0.00  0.00    +0.226 C 
ENDBRANCH  25  27
ENDBRANCH   1  25
TORSDOF 6
