REMARK  Name = ZINC35669005
REMARK  3 active torsions:
REMARK  status: ('A' for Active; 'I' for Inactive)
REMARK    1  A    between atoms: C_4  and  C_7
REMARK    2  A    between atoms: C_13  and  C_21
REMARK    3  A    between atoms: C_15  and  C_18
REMARK                            x       y       z     vdW  Elec       q    Type
REMARK                         _______ _______ _______ _____ _____    ______ ____
ROOT
ATOM      1  C   UNL     1       3.695  -0.685  -0.038  0.00  0.00    +0.182 A 
ATOM      2  N   UNL     1       4.858  -0.192  -0.404  0.00  0.00    -0.127 NA
ATOM      3  N   UNL     1       5.776  -1.090  -0.288  0.00  0.00    -0.121 NA
ATOM      4  C   UNL     1       5.251  -2.194   0.157  0.00  0.00    +0.210 A 
ATOM      5  N   UNL     1       3.907  -1.990   0.330  0.00  0.00    -0.221 N 
ATOM      6  N   UNL     1       2.998  -2.901   0.756  0.00  0.00    -0.272 N 
ATOM      7  C   UNL     1       3.548  -3.982   1.573  0.00  0.00    +0.140 C 
ATOM      8  C   UNL     1       4.575  -4.803   0.778  0.00  0.00    +0.166 C 
ATOM      9  S   UNL     1       6.034  -3.737   0.519  0.00  0.00    -0.069 S 
ATOM     10  H   UNL     1       2.227  -2.451   1.225  0.00  0.00    +0.167 HD
ENDROOT
BRANCH   1  14
ATOM     11  C   UNL     1      -0.017   1.379   0.010  0.00  0.00    +0.000 A 
ATOM     12  C   UNL     1       1.168   2.093  -0.033  0.00  0.00    +0.001 A 
ATOM     13  C   UNL     1       2.377   1.429  -0.049  0.00  0.00    +0.011 A 
ATOM     14  C   UNL     1       2.403   0.034  -0.021  0.00  0.00    +0.021 A 
ATOM     15  C   UNL     1       1.205  -0.680   0.023  0.00  0.00    +0.011 A 
ATOM     16  C   UNL     1       0.003  -0.004   0.037  0.00  0.00    +0.001 A 
ENDBRANCH   1  14
BRANCH   7  17
ATOM     17  C   UNL     1       2.428  -4.888   2.015  0.00  0.00    -0.024 A 
ATOM     18  C   UNL     1       1.411  -5.210   1.136  0.00  0.00    +0.005 A 
ATOM     19  C   UNL     1       0.383  -6.040   1.542  0.00  0.00    +0.000 A 
ATOM     20  C   UNL     1       0.373  -6.550   2.827  0.00  0.00    +0.000 A 
ATOM     21  C   UNL     1       1.390  -6.228   3.706  0.00  0.00    +0.000 A 
ATOM     22  C   UNL     1       2.420  -5.401   3.299  0.00  0.00    +0.005 A 
ENDBRANCH   7  17
BRANCH   8  23
ATOM     23  C   UNL     1       4.964  -6.033   1.556  0.00  0.00    +0.226 C 
ATOM     24  O   UNL     1       4.949  -6.013   2.769  0.00  0.00    -0.275 OA
ATOM     25  N   UNL     1       5.328  -7.156   0.905  0.00  0.00    -0.328 N 
ATOM     26  H   UNL     1       5.341  -7.172  -0.064  0.00  0.00    +0.145 HD
ATOM     27  H   UNL     1       5.579  -7.948   1.407  0.00  0.00    +0.145 HD
ENDBRANCH   8  23
TORSDOF 3
