REMARK  Name = ZINC11240301
REMARK  4 active torsions:
REMARK  status: ('A' for Active; 'I' for Inactive)
REMARK    1  A    between atoms: C_4  and  C_7
REMARK    2  A    between atoms: C_13  and  C_15
REMARK    3  A    between atoms: N_24  and  C_27
REMARK    4  A    between atoms: C_27  and  C_28
REMARK                            x       y       z     vdW  Elec       q    Type
REMARK                         _______ _______ _______ _____ _____    ______ ____
ROOT
ATOM      1  C   UNL     1      -0.387  -0.595  -2.269  0.00  0.00    +0.039 A 
ATOM      2  C   UNL     1       0.295  -1.089  -1.153  0.00  0.00    +0.014 A 
ATOM      3  C   UNL     1       0.826  -2.360  -1.170  0.00  0.00    +0.016 A 
ATOM      4  C   UNL     1       0.681  -3.154  -2.305  0.00  0.00    +0.065 A 
ATOM      5  C   UNL     1      -0.003  -2.663  -3.431  0.00  0.00    +0.080 A 
ATOM      6  C   UNL     1      -0.540  -1.385  -3.406  0.00  0.00    +0.041 A 
ATOM      7  N   UNL     1      -0.129  -3.480  -4.545  0.00  0.00    -0.222 NA
ATOM      8  C   UNL     1       0.393  -4.718  -4.550  0.00  0.00    +0.184 A 
ATOM      9  S   UNL     1       0.205  -5.681  -5.953  0.00  0.00    -0.011 SA
ATOM     10  N   UNL     1       1.054  -5.234  -3.501  0.00  0.00    -0.279 N 
ATOM     11  C   UNL     1       1.234  -4.522  -2.368  0.00  0.00    +0.263 A 
ATOM     12  O   UNL     1       1.834  -4.995  -1.423  0.00  0.00    -0.267 OA
ENDROOT
BRANCH   1  19
ATOM     13  C   UNL     1      -3.652   1.696   0.455  0.00  0.00    -0.041 C 
ATOM     14  C   UNL     1      -2.850   0.716   0.797  0.00  0.00    -0.004 C 
ATOM     15  C   UNL     1      -1.530   0.457   0.128  0.00  0.00    +0.135 C 
ATOM     16  N   UNL     1      -1.433   1.279  -1.087  0.00  0.00    -0.293 N 
ATOM     17  C   UNL     1      -1.883   2.679  -0.994  0.00  0.00    +0.113 C 
ATOM     18  C   UNL     1      -3.374   2.673  -0.649  0.00  0.00    +0.054 C 
ATOM     19  C   UNL     1      -0.953   0.772  -2.240  0.00  0.00    +0.247 C 
ATOM     20  O   UNL     1      -0.986   1.438  -3.256  0.00  0.00    -0.270 OA
BRANCH  13  24
ATOM     21  C   UNL     1      -7.280   2.134   2.619  0.00  0.00    +0.000 A 
ATOM     22  C   UNL     1      -6.069   2.318   3.261  0.00  0.00    +0.001 A 
ATOM     23  C   UNL     1      -4.887   2.178   2.564  0.00  0.00    +0.008 A 
ATOM     24  C   UNL     1      -4.915   1.849   1.208  0.00  0.00    -0.022 A 
ATOM     25  C   UNL     1      -6.140   1.669   0.565  0.00  0.00    +0.008 A 
ATOM     26  C   UNL     1      -7.315   1.808   1.275  0.00  0.00    +0.001 A 
ENDBRANCH  13  24
ENDBRANCH   1  19
BRANCH  10  27
ATOM     27  C   UNL     1       1.591  -6.594  -3.588  0.00  0.00    +0.201 C 
BRANCH  27  28
ATOM     28  C   UNL     1       2.995  -6.545  -4.135  0.00  0.00    +0.125 A 
ATOM     29  C   UNL     1       4.119  -6.425  -3.405  0.00  0.00    +0.046 A 
ATOM     30  C   UNL     1       5.200  -6.425  -4.316  0.00  0.00    +0.041 A 
ATOM     31  C   UNL     1       4.672  -6.536  -5.548  0.00  0.00    +0.195 A 
ATOM     32  O   UNL     1       3.336  -6.609  -5.432  0.00  0.00    -0.466 OA
ENDBRANCH  27  28
ENDBRANCH  10  27
TORSDOF 4
