REMARK  Name = ZINC48439903
REMARK  7 active torsions:
REMARK  status: ('A' for Active; 'I' for Inactive)
REMARK    1  A    between atoms: C_1  and  C_2
REMARK    2  A    between atoms: C_2  and  C_4
REMARK    3  A    between atoms: C_2  and  N_11
REMARK    4  A    between atoms: N_9  and  C_10
REMARK    5  A    between atoms: N_11  and  C_12
REMARK    6  A    between atoms: C_17  and  O_18
REMARK    7  A    between atoms: O_18  and  C_19
REMARK                            x       y       z     vdW  Elec       q    Type
REMARK                         _______ _______ _______ _____ _____    ______ ____
ROOT
ATOM      1  C   UNL     1      -0.019   1.526   0.010  0.00  0.00    +0.038 C 
ATOM      2  C   UNL     1       0.002  -0.004   0.002  0.00  0.00    +0.154 C 
ENDROOT
BRANCH   2   3
ATOM      3  C   UNL     1       0.731  -0.503   1.223  0.00  0.00    +0.240 C 
ATOM      4  O   UNL     1       0.159  -1.212   2.023  0.00  0.00    -0.273 OA
ATOM      5  N   UNL     1       2.019  -0.161   1.426  0.00  0.00    -0.239 N 
ATOM      6  C   UNL     1       2.671  -0.608   2.518  0.00  0.00    +0.306 C 
ATOM      7  O   UNL     1       2.097  -1.319   3.319  0.00  0.00    -0.252 OA
ATOM      8  N   UNL     1       3.958  -0.266   2.720  0.00  0.00    -0.302 N 
ATOM      9  C   UNL     1       4.667  -0.751   3.907  0.00  0.00    +0.129 C 
ATOM     10  H   UNL     1       2.476   0.406   0.786  0.00  0.00    +0.159 HD
ATOM     11  H   UNL     1       4.416   0.302   2.081  0.00  0.00    +0.150 HD
ENDBRANCH   2   3
BRANCH   2  12
ATOM     12  N   UNL     1      -1.372  -0.511   0.012  0.00  0.00    -0.330 N 
ATOM     13  H   UNL     1      -1.794  -0.752   0.852  0.00  0.00    +0.147 HD
BRANCH  12  14
ATOM     14  C   UNL     1      -2.077  -0.648  -1.189  0.00  0.00    +0.071 A 
ATOM     15  C   UNL     1      -1.474  -0.309  -2.392  0.00  0.00    +0.042 A 
ATOM     16  C   UNL     1      -2.172  -0.445  -3.577  0.00  0.00    +0.020 A 
ATOM     17  C   UNL     1      -3.472  -0.918  -3.568  0.00  0.00    +0.019 A 
ATOM     18  C   UNL     1      -4.079  -1.258  -2.373  0.00  0.00    +0.048 A 
ATOM     19  C   UNL     1      -3.384  -1.130  -1.181  0.00  0.00    +0.141 A 
ATOM     20 BR   UNL     1      -1.349   0.018  -5.216  0.00  0.00    -0.050 Br
BRANCH  19  21
ATOM     21  O   UNL     1      -3.978  -1.469  -0.006  0.00  0.00    -0.493 OA
ATOM     22  C   UNL     1      -5.320  -1.956  -0.074  0.00  0.00    +0.277 C 
ENDBRANCH  19  21
ENDBRANCH  12  14
ENDBRANCH   2  12
TORSDOF 4
