REMARK  Name = ZINC45050514
REMARK  9 active torsions:
REMARK  status: ('A' for Active; 'I' for Inactive)
REMARK    1  A    between atoms: C_1  and  C_2
REMARK    2  A    between atoms: C_5  and  C_30
REMARK    3  A    between atoms: C_10  and  C_12
REMARK    4  A    between atoms: C_12  and  C_14
REMARK    5  A    between atoms: C_12  and  N_17
REMARK    6  A    between atoms: C_14  and  C_15
REMARK    7  A    between atoms: C_14  and  C_16
REMARK    8  A    between atoms: C_18  and  C_20
REMARK    9  A    between atoms: C_23  and  N_27
REMARK                            x       y       z     vdW  Elec       q    Type
REMARK                         _______ _______ _______ _____ _____    ______ ____
ROOT
ATOM      1  C   UNL     1       3.142  -2.113   1.350  0.00  0.00    +0.162 C 
ENDROOT
BRANCH   1   9
ATOM      2  C   UNL     1       0.491   0.494  -1.951  0.00  0.00    +0.009 C 
ATOM      3  C   UNL     1       0.459  -0.906  -1.334  0.00  0.00    +0.004 C 
ATOM      4  C   UNL     1      -0.966  -1.460  -1.400  0.00  0.00    +0.009 C 
ATOM      5  C   UNL     1      -0.994  -2.873  -0.814  0.00  0.00    +0.004 C 
ATOM      6  C   UNL     1      -0.563  -2.820   0.655  0.00  0.00    +0.111 C 
ATOM      7  N   UNL     1       0.745  -2.156   0.741  0.00  0.00    -0.299 N 
ATOM      8  C   UNL     1       0.907  -0.831   0.129  0.00  0.00    +0.111 C 
ATOM      9  C   UNL     1       1.778  -2.752   1.370  0.00  0.00    +0.236 C 
ATOM     10  O   UNL     1       1.608  -3.803   1.952  0.00  0.00    -0.274 OA
ATOM     11  C   UNL     1      -0.032  -3.770  -1.596  0.00  0.00    +0.009 C 
ENDBRANCH   1   9
BRANCH   1  12
ATOM     12  N   UNL     1       4.170  -3.157   1.343  0.00  0.00    -0.300 N 
ATOM     13  C   UNL     1       5.391  -2.898   0.833  0.00  0.00    +0.246 C 
ATOM     14  O   UNL     1       5.638  -1.798   0.379  0.00  0.00    -0.270 OA
ATOM     15  H   UNL     1       3.972  -4.035   1.706  0.00  0.00    +0.150 HD
BRANCH  13  16
ATOM     16  C   UNL     1       6.427  -3.951   0.827  0.00  0.00    +0.055 A 
ATOM     17  C   UNL     1       6.144  -5.217   1.343  0.00  0.00    +0.017 A 
ATOM     18  C   UNL     1       7.116  -6.196   1.333  0.00  0.00    +0.033 A 
ATOM     19  C   UNL     1       8.371  -5.925   0.814  0.00  0.00    +0.128 A 
ATOM     20  C   UNL     1       8.659  -4.674   0.302  0.00  0.00    +0.053 A 
ATOM     21  C   UNL     1       7.693  -3.686   0.299  0.00  0.00    +0.055 A 
ATOM     22 CL   UNL     1       8.055  -2.117  -0.351  0.00  0.00    -0.083 Cl
BRANCH  19  23
ATOM     23  N   UNL     1       9.408  -6.981   0.808  0.00  0.00    +0.056 N 
ATOM     24  O   UNL     1       9.159  -8.076   1.256  0.00  0.00    -0.126 OA
ATOM     25  O   UNL     1      10.505  -6.748   0.356  0.00  0.00    -0.126 OA
ENDBRANCH  19  23
ENDBRANCH  13  16
ENDBRANCH   1  12
BRANCH   1  26
ATOM     26  C   UNL     1       3.314  -1.237   2.592  0.00  0.00    +0.012 C 
ATOM     27  C   UNL     1       4.666  -0.524   2.530  0.00  0.00    +0.009 C 
ATOM     28  C   UNL     1       2.191  -0.198   2.641  0.00  0.00    +0.009 C 
ENDBRANCH   1  26
TORSDOF 5
