REMARK  Name = ZINC13195818
REMARK  12 active torsions:
REMARK  status: ('A' for Active; 'I' for Inactive)
REMARK    1  A    between atoms: C_1  and  C_2
REMARK    2  A    between atoms: C_2  and  O_3
REMARK    3  A    between atoms: O_3  and  C_4
REMARK    4  A    between atoms: C_7  and  C_10
REMARK    5  A    between atoms: C_13  and  S_18
REMARK    6  A    between atoms: N_14  and  C_15
REMARK    7  A    between atoms: C_15  and  C_16
REMARK    8  A    between atoms: S_18  and  C_19
REMARK    9  A    between atoms: C_19  and  C_20
REMARK   10  A    between atoms: N_25  and  C_26
REMARK   11  A    between atoms: C_31  and  C_36
REMARK   12  A    between atoms: C_33  and  C_35
REMARK                            x       y       z     vdW  Elec       q    Type
REMARK                         _______ _______ _______ _____ _____    ______ ____
ROOT
ATOM      1  C   UNL     1       2.488   1.088   0.032  0.00  0.00    +0.165 A 
ATOM      2  N   UNL     1       2.688  -0.165   0.370  0.00  0.00    -0.128 NA
ATOM      3  N   UNL     1       3.917  -0.483   0.169  0.00  0.00    -0.122 NA
ATOM      4  C   UNL     1       4.580   0.550  -0.300  0.00  0.00    +0.193 A 
ATOM      5  N   UNL     1       3.694   1.586  -0.404  0.00  0.00    -0.291 N 
ENDROOT
BRANCH   1   9
ATOM      6  C   UNL     1      -1.186   3.209   0.261  0.00  0.00    +0.121 A 
ATOM      7  C   UNL     1      -1.189   1.821   0.232  0.00  0.00    +0.046 A 
ATOM      8  C   UNL     1       0.001   1.129   0.163  0.00  0.00    +0.015 A 
ATOM      9  C   UNL     1       1.210   1.826   0.112  0.00  0.00    +0.020 A 
ATOM     10  C   UNL     1       1.208   3.221   0.136  0.00  0.00    +0.015 A 
ATOM     11  C   UNL     1       0.014   3.906   0.210  0.00  0.00    +0.046 A 
BRANCH   6  12
ATOM     12  O   UNL     1      -2.361   3.887   0.335  0.00  0.00    -0.492 OA
BRANCH  12  14
ATOM     13  C   UNL     1      -4.770   4.039   0.464  0.00  0.00    +0.048 C 
ATOM     14  C   UNL     1      -3.558   3.108   0.384  0.00  0.00    +0.225 C 
ENDBRANCH  12  14
ENDBRANCH   6  12
ENDBRANCH   1   9
BRANCH   5  15
ATOM     15  C   UNL     1       3.971   2.943  -0.880  0.00  0.00    +0.250 C 
BRANCH  15  16
ATOM     16  C   UNL     1       4.434   3.796   0.273  0.00  0.00    +0.375 C 
ATOM     17  O   UNL     1       4.523   3.319   1.379  0.00  0.00    -0.244 OA
ATOM     18  O   UNL     1       4.747   5.085   0.071  0.00  0.00    -0.244 OA
ENDBRANCH  15  16
ENDBRANCH   5  15
BRANCH   4  19
ATOM     19  S   UNL     1       6.291   0.593  -0.718  0.00  0.00    -0.077 S 
BRANCH  19  20
ATOM     20  C   UNL     1       6.755  -1.109  -0.313  0.00  0.00    +0.173 C 
BRANCH  20  21
ATOM     21  C   UNL     1       8.221  -1.311  -0.598  0.00  0.00    +0.231 C 
ATOM     22  O   UNL     1       8.886  -0.395  -1.032  0.00  0.00    -0.274 OA
ATOM     23  N   UNL     1       8.793  -2.510  -0.371  0.00  0.00    -0.239 N 
ATOM     24  C   UNL     1      10.104  -2.691  -0.626  0.00  0.00    +0.306 C 
ATOM     25  O   UNL     1      10.771  -1.772  -1.062  0.00  0.00    -0.252 OA
ATOM     26  N   UNL     1      10.676  -3.890  -0.399  0.00  0.00    -0.296 N 
ATOM     27  H   UNL     1       8.261  -3.243  -0.024  0.00  0.00    +0.159 HD
ATOM     28  H   UNL     1      10.144  -4.623  -0.052  0.00  0.00    +0.151 HD
BRANCH  26  29
ATOM     29  C   UNL     1      12.101  -4.086  -0.677  0.00  0.00    +0.078 C 
ATOM     30  C   UNL     1      12.923  -3.630   0.530  0.00  0.00    +0.022 C 
ATOM     31  C   UNL     1      14.412  -3.835   0.240  0.00  0.00    +0.002 C 
ATOM     32  C   UNL     1      14.679  -5.317  -0.028  0.00  0.00    +0.003 C 
ATOM     33  C   UNL     1      13.857  -5.774  -1.235  0.00  0.00    -0.009 C 
ATOM     34  C   UNL     1      12.369  -5.569  -0.945  0.00  0.00    +0.009 C 
ATOM     35  C   UNL     1      11.547  -6.025  -2.152  0.00  0.00    +0.009 C 
ATOM     36  C   UNL     1      14.125  -7.256  -1.503  0.00  0.00    +0.008 C 
ENDBRANCH  26  29
ENDBRANCH  20  21
ENDBRANCH  19  20
ENDBRANCH   4  19
TORSDOF 9
