REMARK  Name = ZINC35428153
REMARK  8 active torsions:
REMARK  status: ('A' for Active; 'I' for Inactive)
REMARK    1  A    between atoms: C_1  and  C_2
REMARK    2  A    between atoms: C_2  and  C_3
REMARK    3  A    between atoms: C_3  and  C_4
REMARK    4  A    between atoms: C_3  and  C_5
REMARK    5  A    between atoms: C_3  and  N_6
REMARK    6  A    between atoms: C_7  and  C_9
REMARK    7  A    between atoms: N_12  and  C_14
REMARK    8  A    between atoms: C_19  and  N_20
REMARK                            x       y       z     vdW  Elec       q    Type
REMARK                         _______ _______ _______ _____ _____    ______ ____
ROOT
ATOM      1  C   UNL     1       1.211  -4.096   2.261  0.00  0.00    +0.147 A 
ATOM      2  C   UNL     1       1.944  -4.907   3.160  0.00  0.00    +0.054 A 
ATOM      3  C   UNL     1       1.787  -6.176   2.715  0.00  0.00    +0.115 A 
ATOM      4  N   UNL     1       1.001  -6.117   1.609  0.00  0.00    -0.237 N 
ATOM      5  N   UNL     1       0.673  -4.899   1.364  0.00  0.00    -0.162 NA
ENDROOT
BRANCH   4   6
ATOM      6  C   UNL     1       0.602  -7.225   0.848  0.00  0.00    +0.086 A 
ATOM      7  C   UNL     1       0.088  -8.351   1.474  0.00  0.00    +0.029 A 
ATOM      8  C   UNL     1      -0.306  -9.441   0.722  0.00  0.00    +0.002 A 
ATOM      9  C   UNL     1      -0.188  -9.415  -0.656  0.00  0.00    +0.002 A 
ATOM     10  C   UNL     1       0.323  -8.298  -1.289  0.00  0.00    +0.025 A 
ATOM     11  C   UNL     1       0.715  -7.196  -0.542  0.00  0.00    +0.050 A 
BRANCH  11  12
ATOM     12  N   UNL     1       1.228  -6.063  -1.180  0.00  0.00    -0.356 N 
ATOM     13  H   UNL     1       1.591  -5.334  -0.655  0.00  0.00    +0.142 HD
ATOM     14  H   UNL     1       1.219  -6.007  -2.149  0.00  0.00    +0.142 HD
ENDBRANCH  11  12
ENDBRANCH   4   6
BRANCH   1  16
ATOM     15  N   UNL     1       0.332  -1.984   1.395  0.00  0.00    -0.305 N 
ATOM     16  C   UNL     1       1.070  -2.627   2.320  0.00  0.00    +0.265 C 
ATOM     17  O   UNL     1       1.620  -1.999   3.204  0.00  0.00    -0.268 OA
ATOM     18  H   UNL     1      -0.107  -2.485   0.690  0.00  0.00    +0.150 HD
BRANCH  15  19
ATOM     19  C   UNL     1       0.192  -0.526   1.453  0.00  0.00    +0.029 C 
ATOM     20  C   UNL     1       1.573   0.123   1.342  0.00  0.00    +0.031 C 
ATOM     21  C   UNL     1      -0.453  -0.129   2.782  0.00  0.00    +0.031 C 
BRANCH  19  23
ATOM     22  C   UNL     1      -0.835   1.470   0.357  0.00  0.00    +0.006 C 
ATOM     23  C   UNL     1      -0.689  -0.052   0.296  0.00  0.00    +0.022 C 
ENDBRANCH  19  23
ENDBRANCH  15  19
ENDBRANCH   1  16
TORSDOF 5
