REMARK  Name = ZINC06474571
REMARK  3 active torsions:
REMARK  status: ('A' for Active; 'I' for Inactive)
REMARK    1  A    between atoms: C_4  and  C_7
REMARK    2  A    between atoms: N_9  and  N_10
REMARK    3  A    between atoms: N_18  and  C_21
REMARK                            x       y       z     vdW  Elec       q    Type
REMARK                         _______ _______ _______ _____ _____    ______ ____
ROOT
ATOM      1  N   UNL     1       4.941  -2.712  -0.060  0.00  0.00    -0.174 NA
ATOM      2  C   UNL     1       4.962  -4.023  -0.068  0.00  0.00    +0.153 C 
ATOM      3  C   UNL     1       6.152  -4.906  -0.078  0.00  0.00    +0.029 A 
ATOM      4  C   UNL     1       7.520  -4.660  -0.084  0.00  0.00    +0.012 A 
ATOM      5  C   UNL     1       8.406  -5.718  -0.094  0.00  0.00    +0.001 A 
ATOM      6  C   UNL     1       7.933  -7.020  -0.099  0.00  0.00    +0.002 A 
ATOM      7  C   UNL     1       6.576  -7.274  -0.094  0.00  0.00    +0.024 A 
ATOM      8  C   UNL     1       5.668  -6.221  -0.083  0.00  0.00    +0.050 A 
ATOM      9  N   UNL     1       4.278  -6.199  -0.076  0.00  0.00    -0.225 N 
ATOM     10  C   UNL     1       3.806  -4.941  -0.060  0.00  0.00    +0.274 C 
ATOM     11  O   UNL     1       2.633  -4.616  -0.047  0.00  0.00    -0.268 OA
ENDROOT
BRANCH   9  12
ATOM     12  C   UNL     1       3.435  -7.397  -0.079  0.00  0.00    +0.305 C 
ATOM     13  C   UNL     1       2.643  -7.473   1.202  0.00  0.00    +0.026 A 
ATOM     14  C   UNL     1       2.994  -7.559   2.529  0.00  0.00    +0.010 A 
ATOM     15  C   UNL     1       2.009  -7.614   3.502  0.00  0.00    +0.000 A 
ATOM     16  C   UNL     1       0.672  -7.585   3.143  0.00  0.00    +0.001 A 
ATOM     17  C   UNL     1       0.309  -7.499   1.815  0.00  0.00    +0.015 A 
ATOM     18  C   UNL     1       1.296  -7.442   0.830  0.00  0.00    +0.067 A 
ATOM     19  C   UNL     1       1.241  -7.350  -0.640  0.00  0.00    +0.342 C 
ATOM     20  O   UNL     1       0.221  -7.303  -1.298  0.00  0.00    -0.245 OA
ATOM     21  O   UNL     1       2.486  -7.325  -1.147  0.00  0.00    -0.434 OA
ENDBRANCH   9  12
BRANCH   1  24
ATOM     22  C   UNL     1       3.695  -0.684  -0.037  0.00  0.00    +0.263 C 
ATOM     23  O   UNL     1       4.737  -0.059  -0.044  0.00  0.00    -0.268 OA
ATOM     24  N   UNL     1       3.717  -2.031  -0.045  0.00  0.00    -0.202 N 
ATOM     25  H   UNL     1       2.885  -2.530  -0.039  0.00  0.00    +0.178 HD
BRANCH  22  29
ATOM     26  C   UNL     1      -0.017   1.379   0.010  0.00  0.00    +0.000 A 
ATOM     27  C   UNL     1       1.168   2.094   0.002  0.00  0.00    +0.001 A 
ATOM     28  C   UNL     1       2.377   1.430  -0.013  0.00  0.00    +0.013 A 
ATOM     29  C   UNL     1       2.404   0.034  -0.021  0.00  0.00    +0.038 A 
ATOM     30  C   UNL     1       1.204  -0.681  -0.013  0.00  0.00    +0.013 A 
ATOM     31  C   UNL     1       0.002  -0.004   0.002  0.00  0.00    +0.001 A 
ENDBRANCH  22  29
ENDBRANCH   1  24
TORSDOF 3
