REMARK  Name = ZINC04019872
REMARK  7 active torsions:
REMARK  status: ('A' for Active; 'I' for Inactive)
REMARK    1  A    between atoms: C_8  and  C_14
REMARK    2  A    between atoms: N_9  and  C_10
REMARK    3  A    between atoms: C_10  and  C_11
REMARK    4  A    between atoms: C_14  and  S_15
REMARK    5  A    between atoms: S_15  and  C_16
REMARK    6  A    between atoms: N_24  and  C_25
REMARK    7  A    between atoms: C_25  and  C_26
REMARK                            x       y       z     vdW  Elec       q    Type
REMARK                         _______ _______ _______ _____ _____    ______ ____
ROOT
ATOM      1  C   UNL     1      -0.699  -4.001  -3.648  0.00  0.00    +0.151 C 
ENDROOT
BRANCH   1   9
ATOM      2  C   UNL     1      -0.218  -2.905  -9.530  0.00  0.00    +0.002 A 
ATOM      3  C   UNL     1      -1.580  -3.170  -9.550  0.00  0.00    +0.002 A 
ATOM      4  C   UNL     1      -2.245  -3.499  -8.389  0.00  0.00    +0.028 A 
ATOM      5  C   UNL     1      -1.546  -3.565  -7.191  0.00  0.00    +0.069 A 
ATOM      6  C   UNL     1      -0.167  -3.296  -7.171  0.00  0.00    +0.089 A 
ATOM      7  C   UNL     1       0.486  -2.965  -8.361  0.00  0.00    +0.030 A 
ATOM      8  N   UNL     1       0.244  -3.434  -5.884  0.00  0.00    -0.231 NA
ATOM      9  C   UNL     1      -0.767  -3.761  -5.135  0.00  0.00    +0.122 A 
ATOM     10  N   UNL     1      -1.895  -3.861  -5.889  0.00  0.00    -0.318 N 
BRANCH  10  11
ATOM     11  C   UNL     1      -3.233  -4.215  -5.407  0.00  0.00    +0.219 C 
BRANCH  11  12
ATOM     12  C   UNL     1      -3.970  -2.962  -5.009  0.00  0.00    +0.230 C 
ATOM     13  O   UNL     1      -3.431  -1.881  -5.117  0.00  0.00    -0.274 OA
ATOM     14  N   UNL     1      -5.229  -3.044  -4.533  0.00  0.00    -0.328 N 
ATOM     15  H   UNL     1      -5.660  -3.908  -4.447  0.00  0.00    +0.145 HD
ATOM     16  H   UNL     1      -5.703  -2.238  -4.277  0.00  0.00    +0.145 HD
ENDBRANCH  11  12
ENDBRANCH  10  11
ENDBRANCH   1   9
BRANCH   1  17
ATOM     17  S   UNL     1      -0.998  -2.445  -2.772  0.00  0.00    -0.080 S 
BRANCH  17  18
ATOM     18  C   UNL     1      -0.863  -3.002  -1.106  0.00  0.00    +0.171 A 
ATOM     19  N   UNL     1      -0.607  -4.234  -0.742  0.00  0.00    -0.222 NA
ATOM     20  C   UNL     1      -0.580  -4.313   0.614  0.00  0.00    +0.090 A 
ATOM     21  C   UNL     1      -0.362  -5.363   1.510  0.00  0.00    +0.030 A 
ATOM     22  C   UNL     1      -0.399  -5.124   2.866  0.00  0.00    +0.002 A 
ATOM     23  C   UNL     1      -0.650  -3.848   3.349  0.00  0.00    +0.002 A 
ATOM     24  C   UNL     1      -0.866  -2.801   2.477  0.00  0.00    +0.028 A 
ATOM     25  C   UNL     1      -0.834  -3.024   1.109  0.00  0.00    +0.070 A 
ATOM     26  N   UNL     1      -1.005  -2.212  -0.000  0.00  0.00    -0.310 N 
BRANCH  26  27
ATOM     27  C   UNL     1      -1.293  -0.775   0.010  0.00  0.00    +0.219 C 
BRANCH  27  28
ATOM     28  C   UNL     1       0.002  -0.004   0.002  0.00  0.00    +0.230 C 
ATOM     29  O   UNL     1       1.060  -0.596  -0.011  0.00  0.00    -0.274 OA
ATOM     30  N   UNL     1      -0.016   1.344   0.009  0.00  0.00    -0.328 N 
ATOM     31  H   UNL     1       0.817   1.840   0.004  0.00  0.00    +0.145 HD
ATOM     32  H   UNL     1      -0.863   1.817   0.016  0.00  0.00    +0.145 HD
ENDBRANCH  27  28
ENDBRANCH  26  27
ENDBRANCH  17  18
ENDBRANCH   1  17
TORSDOF 7
