REMARK  Name = ZINC04237008
REMARK  13 active torsions:
REMARK  status: ('A' for Active; 'I' for Inactive)
REMARK    1  A    between atoms: C_1  and  C_2
REMARK    2  A    between atoms: C_2  and  C_3
REMARK    3  A    between atoms: C_2  and  N_4
REMARK    4  A    between atoms: C_5  and  C_7
REMARK    5  A    between atoms: C_7  and  C_8
REMARK    6  A    between atoms: C_16  and  O_18
REMARK    7  A    between atoms: O_18  and  C_19
REMARK    8  A    between atoms: C_19  and  C_20
REMARK    9  A    between atoms: C_25  and  C_35
REMARK   10  A    between atoms: C_28  and  O_34
REMARK   11  A    between atoms: C_30  and  C_31
REMARK   12  A    between atoms: C_30  and  C_32
REMARK   13  A    between atoms: C_32  and  O_33
REMARK                            x       y       z     vdW  Elec       q    Type
REMARK                         _______ _______ _______ _____ _____    ______ ____
ROOT
ATOM      1  C   UNL     1       3.536   2.295  -0.483  0.00  0.00    +0.054 C 
ATOM      2  C   UNL     1       3.704   3.029  -1.804  0.00  0.00    +0.058 A 
ATOM      3  C   UNL     1       4.944   3.224  -2.323  0.00  0.00    +0.015 A 
ATOM      4  S   UNL     1       4.604   4.102  -3.825  0.00  0.00    -0.057 S 
ATOM      5  C   UNL     1       2.874   4.146  -3.659  0.00  0.00    +0.167 A 
ATOM      6  N   UNL     1       2.690   3.514  -2.518  0.00  0.00    -0.229 NA
ATOM      7  N   UNL     1       1.928   4.704  -4.511  0.00  0.00    -0.230 N 
ATOM      8  C   UNL     1       2.320   5.316  -5.646  0.00  0.00    +0.406 C 
ATOM      9  O   UNL     1       3.501   5.380  -5.924  0.00  0.00    -0.226 OA
ATOM     10  C   UNL     1       6.247   2.793  -1.750  0.00  0.00    +0.049 C 
ATOM     11  C   UNL     1       6.040   2.391  -0.277  0.00  0.00    +0.011 C 
ATOM     12  C   UNL     1       4.806   1.490  -0.177  0.00  0.00    -0.019 C 
ATOM     13  C   UNL     1       4.669   0.939   1.246  0.00  0.00    +0.010 C 
ATOM     14  C   UNL     1       5.924   0.164   1.640  0.00  0.00    +0.032 C 
ATOM     15  C   UNL     1       7.125   1.114   1.593  0.00  0.00    +0.123 C 
ATOM     16  C   UNL     1       7.291   1.626   0.165  0.00  0.00    +0.021 C 
ATOM     17  C   UNL     1       8.504   2.557   0.097  0.00  0.00    +0.016 C 
ATOM     18  C   UNL     1       4.932   0.335  -1.173  0.00  0.00    +0.012 C 
ATOM     19  H   UNL     1       0.985   4.653  -4.288  0.00  0.00    +0.160 HD
ENDROOT
BRANCH  15  20
ATOM     20  O   UNL     1       8.305   0.414   1.992  0.00  0.00    -0.391 OA
ATOM     21  H   UNL     1       8.264   0.051   2.888  0.00  0.00    +0.210 HD
ENDBRANCH  15  20
BRANCH   1  22
ATOM     22  C   UNL     1       2.340   1.346  -0.576  0.00  0.00    +0.106 C 
BRANCH  22  24
ATOM     23  N   UNL     1      -0.119   1.519  -0.775  0.00  0.00    -0.313 N 
ATOM     24  C   UNL     1       1.069   2.148  -0.682  0.00  0.00    +0.214 C 
ATOM     25  O   UNL     1       1.115   3.360  -0.683  0.00  0.00    -0.276 OA
ATOM     26  H   UNL     1      -0.156   0.550  -0.774  0.00  0.00    +0.149 HD
BRANCH  23  28
ATOM     27  C   UNL     1      -1.595   2.671  -2.349  0.00  0.00    +0.027 C 
ATOM     28  C   UNL     1      -1.355   2.299  -0.884  0.00  0.00    +0.067 C 
ATOM     29  C   UNL     1      -2.530   1.466  -0.370  0.00  0.00    +0.027 C 
ENDBRANCH  23  28
ENDBRANCH  22  24
ENDBRANCH   1  22
BRANCH   8  30
ATOM     30  O   UNL     1       1.404   5.856  -6.471  0.00  0.00    -0.446 OA
BRANCH  30  31
ATOM     31  C   UNL     1       1.899   6.500  -7.675  0.00  0.00    +0.261 C 
BRANCH  31  32
ATOM     32  C   UNL     1       0.738   7.042  -8.468  0.00  0.00    +0.006 C 
ATOM     33  C   UNL     1       0.798   8.248  -8.975  0.00  0.00    +0.007 C 
ENDBRANCH  31  32
ENDBRANCH  30  31
ENDBRANCH   8  30
BRANCH  16  34
ATOM     34  C   UNL     1       7.516   0.439  -0.773  0.00  0.00    +0.165 C 
BRANCH  34  35
ATOM     35  O   UNL     1       8.767  -0.180  -0.467  0.00  0.00    -0.394 OA
ATOM     36  H   UNL     1       8.975  -0.943  -1.024  0.00  0.00    +0.209 HD
ENDBRANCH  34  35
ENDBRANCH  16  34
TORSDOF 9
