REMARK  Name = ZINC13735945
REMARK  5 active torsions:
REMARK  status: ('A' for Active; 'I' for Inactive)
REMARK    1  A    between atoms: C_1  and  S_2
REMARK    2  A    between atoms: S_2  and  N_5
REMARK    3  A    between atoms: C_9  and  C_12
REMARK    4  A    between atoms: C_12  and  C_13
REMARK    5  A    between atoms: N_15  and  C_16
REMARK                            x       y       z     vdW  Elec       q    Type
REMARK                         _______ _______ _______ _____ _____    ______ ____
ROOT
ATOM      1  C   UNL     1       2.800  -5.500  -4.224  0.00  0.00    +0.149 C 
ENDROOT
BRANCH   1   6
ATOM      2  N   UNL     1       0.667  -6.881  -0.021  0.00  0.00    -0.108 NA
ATOM      3  C   UNL     1       1.434  -7.001  -1.076  0.00  0.00    +0.191 A 
ATOM      4  N   UNL     1       1.669  -6.101  -2.093  0.00  0.00    -0.336 N 
ATOM      5  H   UNL     1       1.239  -5.231  -2.094  0.00  0.00    +0.168 HD
ATOM      6  C   UNL     1       2.520  -6.460  -3.097  0.00  0.00    +0.033 A 
ATOM      7  C   UNL     1       3.105  -7.658  -3.083  0.00  0.00    +0.070 A 
ATOM      8  S   UNL     1       2.462  -8.373  -1.579  0.00  0.00    -0.057 S 
BRANCH   2  10
ATOM      9  C   UNL     1      -0.589  -7.526   2.342  0.00  0.00    +0.223 C 
ATOM     10  S   UNL     1       0.561  -8.121   1.071  0.00  0.00    +0.069 S 
ATOM     11  O   UNL     1       1.869  -8.241   1.613  0.00  0.00    -0.152 OA
ATOM     12  O   UNL     1      -0.024  -9.194   0.345  0.00  0.00    -0.152 OA
ENDBRANCH   2  10
ENDBRANCH   1   6
BRANCH   1  13
ATOM     13  C   UNL     1       1.730  -5.637  -5.277  0.00  0.00    +0.223 C 
ATOM     14  O   UNL     1       0.829  -6.435  -5.126  0.00  0.00    -0.275 OA
ATOM     15  N   UNL     1       1.774  -4.872  -6.386  0.00  0.00    -0.283 N 
ATOM     16  H   UNL     1       2.452  -4.183  -6.473  0.00  0.00    +0.155 HD
BRANCH  15  17
ATOM     17  C   UNL     1       0.842  -5.071  -7.411  0.00  0.00    +0.070 A 
ATOM     18  C   UNL     1      -0.351  -4.358  -7.416  0.00  0.00    +0.064 A 
ATOM     19  C   UNL     1      -1.269  -4.558  -8.430  0.00  0.00    +0.022 A 
ATOM     20  C   UNL     1      -1.002  -5.465  -9.438  0.00  0.00    +0.003 A 
ATOM     21  C   UNL     1       0.184  -6.176  -9.437  0.00  0.00    +0.022 A 
ATOM     22  C   UNL     1       1.110  -5.977  -8.429  0.00  0.00    +0.064 A 
ATOM     23 CL   UNL     1       2.602  -6.865  -8.433  0.00  0.00    -0.082 Cl
ATOM     24 CL   UNL     1      -0.688  -3.220  -6.150  0.00  0.00    -0.082 Cl
ENDBRANCH  15  17
ENDBRANCH   1  13
TORSDOF 4
