REMARK  Name = ZINC62627259
REMARK  9 active torsions:
REMARK  status: ('A' for Active; 'I' for Inactive)
REMARK    1  A    between atoms: C_1  and  C_2
REMARK    2  A    between atoms: C_2  and  C_3
REMARK    3  A    between atoms: C_2  and  C_4
REMARK    4  A    between atoms: C_4  and  N_5
REMARK    5  A    between atoms: N_5  and  C_6
REMARK    6  A    between atoms: C_7  and  C_9
REMARK    7  A    between atoms: N_11  and  C_12
REMARK    8  A    between atoms: C_15  and  O_22
REMARK    9  A    between atoms: O_22  and  C_23
REMARK                            x       y       z     vdW  Elec       q    Type
REMARK                         _______ _______ _______ _____ _____    ______ ____
ROOT
ATOM      1  C   UNL     1      -5.421   2.736  -3.160  0.00  0.00    +0.043 A 
ATOM      2  C   UNL     1      -6.071   1.773  -3.903  0.00  0.00    +0.027 A 
ATOM      3  C   UNL     1      -6.899   2.132  -4.962  0.00  0.00    +0.050 A 
ATOM      4  C   UNL     1      -7.092   3.454  -5.293  0.00  0.00    +0.153 A 
ATOM      5  C   UNL     1      -6.444   4.464  -4.554  0.00  0.00    +0.114 A 
ATOM      6  C   UNL     1      -5.604   4.099  -3.473  0.00  0.00    +0.025 A 
ATOM      7  C   UNL     1      -4.963   5.110  -2.736  0.00  0.00    +0.013 A 
ATOM      8  C   UNL     1      -5.185   6.410  -3.095  0.00  0.00    +0.020 A 
ATOM      9  C   UNL     1      -6.027   6.701  -4.165  0.00  0.00    +0.111 A 
ATOM     10  N   UNL     1      -6.615   5.755  -4.857  0.00  0.00    -0.251 NA
ENDROOT
BRANCH   1  13
ATOM     11  C   UNL     1      -3.880   1.224  -2.171  0.00  0.00    +0.303 C 
ATOM     12  O   UNL     1      -4.016   0.480  -3.121  0.00  0.00    -0.265 OA
ATOM     13  N   UNL     1      -4.593   2.365  -2.100  0.00  0.00    -0.277 N 
ATOM     14  H   UNL     1      -4.531   2.928  -1.313  0.00  0.00    +0.155 HD
BRANCH  11  17
ATOM     15  N   UNL     1      -2.117  -0.199  -1.210  0.00  0.00    -0.297 N 
ATOM     16  C   UNL     1      -2.103  -0.958  -2.463  0.00  0.00    +0.132 C 
ATOM     17  C   UNL     1      -2.922   0.874  -1.081  0.00  0.00    +0.302 C 
ATOM     18  O   UNL     1      -2.868   1.556  -0.078  0.00  0.00    -0.265 OA
BRANCH  15  19
ATOM     19  C   UNL     1      -1.255  -0.606  -0.098  0.00  0.00    +0.111 C 
BRANCH  19  21
ATOM     20  C   UNL     1      -0.101   1.609  -0.042  0.00  0.00    +0.009 C 
ATOM     21  C   UNL     1       0.097   0.101  -0.214  0.00  0.00    +0.000 C 
ATOM     22  C   UNL     1       1.039  -0.417   0.874  0.00  0.00    +0.009 C 
ENDBRANCH  19  21
ENDBRANCH  15  19
ENDBRANCH  11  17
ENDBRANCH   1  13
BRANCH   4  23
ATOM     23  O   UNL     1      -7.904   3.784  -6.331  0.00  0.00    -0.432 OA
BRANCH  23  24
ATOM     24  C   UNL     1      -8.527   2.708  -7.036  0.00  0.00    +0.541 C 
ATOM     25  F   UNL     1      -7.544   1.875  -7.579  0.00  0.00    -0.166 F 
ATOM     26  F   UNL     1      -9.325   1.973  -6.152  0.00  0.00    -0.166 F 
ENDBRANCH  23  24
ENDBRANCH   4  23
TORSDOF 6
