REMARK  Name = ZINC60348373
REMARK  9 active torsions:
REMARK  status: ('A' for Active; 'I' for Inactive)
REMARK    1  A    between atoms: C_1  and  C_2
REMARK    2  A    between atoms: C_5  and  N_19
REMARK    3  A    between atoms: C_7  and  S_8
REMARK    4  A    between atoms: S_8  and  N_11
REMARK    5  A    between atoms: N_11  and  C_12
REMARK    6  A    between atoms: C_20  and  C_22
REMARK    7  A    between atoms: C_22  and  N_23
REMARK    8  A    between atoms: C_24  and  C_26
REMARK    9  A    between atoms: C_26  and  C_27
REMARK                            x       y       z     vdW  Elec       q    Type
REMARK                         _______ _______ _______ _____ _____    ______ ____
ROOT
ATOM      1  C   UNL     1      -0.036   1.476   0.008  0.00  0.00    +0.046 C 
ATOM      2  C   UNL     1       0.190  -0.013   0.009  0.00  0.00    -0.024 A 
ATOM      3  C   UNL     1       0.256  -0.702  -1.189  0.00  0.00    +0.007 A 
ATOM      4  C   UNL     1       0.464  -2.067  -1.192  0.00  0.00    +0.024 A 
ATOM      5  C   UNL     1       0.606  -2.749   0.010  0.00  0.00    +0.035 A 
ATOM      6  C   UNL     1       0.540  -2.055   1.211  0.00  0.00    +0.052 A 
ATOM      7  C   UNL     1       0.337  -0.688   1.207  0.00  0.00    +0.113 A 
ENDROOT
BRANCH   5   8
ATOM      8  N   UNL     1       0.816  -4.132   0.010  0.00  0.00    -0.284 N 
ATOM      9  C   UNL     1       1.516  -4.708  -0.987  0.00  0.00    +0.234 C 
ATOM     10  O   UNL     1       2.040  -4.019  -1.836  0.00  0.00    -0.274 OA
ATOM     11  H   UNL     1       0.457  -4.677   0.728  0.00  0.00    +0.155 HD
BRANCH   9  12
ATOM     12  C   UNL     1       1.649  -6.208  -1.046  0.00  0.00    +0.200 C 
BRANCH  12  13
ATOM     13  N   UNL     1       2.450  -6.582  -2.214  0.00  0.00    -0.307 N 
ATOM     14  C   UNL     1       2.702  -7.881  -2.471  0.00  0.00    +0.214 C 
ATOM     15  O   UNL     1       2.265  -8.740  -1.736  0.00  0.00    -0.276 OA
ATOM     16  H   UNL     1       2.800  -5.894  -2.802  0.00  0.00    +0.149 HD
BRANCH  14  17
ATOM     17  C   UNL     1       3.527  -8.265  -3.672  0.00  0.00    +0.099 C 
BRANCH  17  18
ATOM     18  C   UNL     1       3.661  -9.788  -3.733  0.00  0.00    -0.002 C 
ATOM     19  C   UNL     1       4.522 -10.290  -2.555  0.00  0.00    +0.004 C 
ATOM     20  C   UNL     1       5.347 -11.454  -3.157  0.00  0.00    +0.000 C 
ATOM     21  C   UNL     1       5.675 -10.941  -4.581  0.00  0.00    +0.000 C 
ATOM     22  C   UNL     1       4.394 -10.202  -5.021  0.00  0.00    +0.004 C 
ENDBRANCH  17  18
ENDBRANCH  14  17
ENDBRANCH  12  13
ENDBRANCH   9  12
ENDBRANCH   5   8
BRANCH   7  23
ATOM     23  S   UNL     1       0.259   0.194   2.730  0.00  0.00    +0.073 S 
ATOM     24  O   UNL     1       0.394  -0.770   3.765  0.00  0.00    -0.150 OA
ATOM     25  O   UNL     1       1.139   1.303   2.602  0.00  0.00    -0.150 OA
BRANCH  23  26
ATOM     26  N   UNL     1      -1.270   0.817   2.857  0.00  0.00    -0.216 N 
ATOM     27  H   UNL     1      -1.407   1.776   2.824  0.00  0.00    +0.174 HD
BRANCH  26  28
ATOM     28  C   UNL     1      -2.362  -0.041   3.014  0.00  0.00    +0.048 A 
ATOM     29  C   UNL     1      -2.471  -1.180   2.227  0.00  0.00    +0.026 A 
ATOM     30  C   UNL     1      -3.551  -2.026   2.383  0.00  0.00    +0.022 A 
ATOM     31  C   UNL     1      -4.525  -1.739   3.323  0.00  0.00    +0.041 A 
ATOM     32  C   UNL     1      -4.420  -0.605   4.109  0.00  0.00    +0.022 A 
ATOM     33  C   UNL     1      -3.339   0.242   3.960  0.00  0.00    +0.026 A 
ATOM     34 CL   UNL     1      -5.883  -2.804   3.517  0.00  0.00    -0.084 Cl
ENDBRANCH  26  28
ENDBRANCH  23  26
ENDBRANCH   7  23
TORSDOF 8
