REMARK  Name = ZINC15931958
REMARK  6 active torsions:
REMARK  status: ('A' for Active; 'I' for Inactive)
REMARK    1  A    between atoms: C_1  and  O_2
REMARK    2  A    between atoms: O_2  and  C_3
REMARK    3  A    between atoms: C_5  and  C_11
REMARK    4  A    between atoms: C_8  and  O_9
REMARK    5  A    between atoms: N_17  and  C_18
REMARK    6  A    between atoms: C_21  and  C_24
REMARK                            x       y       z     vdW  Elec       q    Type
REMARK                         _______ _______ _______ _____ _____    ______ ____
ROOT
ATOM      1  C   UNL     1      -1.363  10.764  -2.798  0.00  0.00    +0.029 C 
ATOM      2  C   UNL     1      -0.562   9.723  -2.452  0.00  0.00    +0.078 C 
ATOM      3  C   UNL     1      -0.614   8.316  -2.892  0.00  0.00    +0.256 C 
ATOM      4  O   UNL     1      -1.457   7.925  -3.678  0.00  0.00    -0.269 OA
ATOM      5  N   UNL     1       0.301   7.500  -2.397  0.00  0.00    -0.260 N 
ATOM      6  C   UNL     1       1.243   7.958  -1.505  0.00  0.00    +0.166 C 
ATOM      7  N   UNL     1       2.212   7.285  -0.919  0.00  0.00    -0.226 NA
ATOM      8  S   UNL     1       0.837   9.689  -1.341  0.00  0.00    -0.049 S 
ATOM      9  H   UNL     1       0.307   6.567  -2.664  0.00  0.00    +0.157 HD
ENDROOT
BRANCH   1  12
ATOM     10  C   UNL     1       0.579  13.707  -1.522  0.00  0.00    +0.162 A 
ATOM     11  C   UNL     1       0.271  12.425  -1.932  0.00  0.00    +0.058 A 
ATOM     12  C   UNL     1      -1.028  12.124  -2.360  0.00  0.00    -0.006 A 
ATOM     13  C   UNL     1      -2.006  13.128  -2.374  0.00  0.00    +0.029 A 
ATOM     14  C   UNL     1      -1.690  14.403  -1.956  0.00  0.00    +0.065 A 
ATOM     15  C   UNL     1      -0.401  14.699  -1.533  0.00  0.00    +0.160 A 
ATOM     16 BR   UNL     1      -3.761  12.731  -2.958  0.00  0.00    -0.050 Br
BRANCH  10  18
ATOM     17  C   UNL     1       2.794  12.938  -1.119  0.00  0.00    +0.277 C 
ATOM     18  O   UNL     1       1.840  14.002  -1.105  0.00  0.00    -0.491 OA
ENDBRANCH  10  18
BRANCH  15  19
ATOM     19  O   UNL     1      -0.094  15.959  -1.129  0.00  0.00    -0.503 OA
ATOM     20  H   UNL     1       0.219  16.535  -1.839  0.00  0.00    +0.292 HD
ENDBRANCH  15  19
ENDBRANCH   1  12
BRANCH   7  21
ATOM     21  C   UNL     1       2.368   5.956  -1.172  0.00  0.00    +0.067 A 
ATOM     22  C   UNL     1       3.643   5.435  -1.423  0.00  0.00    +0.028 A 
ATOM     23  C   UNL     1       3.799   4.104  -1.675  0.00  0.00    +0.017 A 
ATOM     24  C   UNL     1       2.683   3.258  -1.684  0.00  0.00    +0.063 A 
ATOM     25  C   UNL     1       1.407   3.779  -1.439  0.00  0.00    +0.017 A 
ATOM     26  C   UNL     1       1.252   5.109  -1.180  0.00  0.00    +0.028 A 
BRANCH  24  27
ATOM     27  C   UNL     1       2.851   1.821  -1.957  0.00  0.00    +0.387 C 
ATOM     28  O   UNL     1       3.958   1.369  -2.175  0.00  0.00    -0.241 OA
ATOM     29  O   UNL     1       1.777   1.006  -1.965  0.00  0.00    -0.241 OA
ENDBRANCH  24  27
ENDBRANCH   7  21
TORSDOF 5
