REMARK  Name = ZINC64233257
REMARK  4 active torsions:
REMARK  status: ('A' for Active; 'I' for Inactive)
REMARK    1  A    between atoms: C_1  and  C_2
REMARK    2  A    between atoms: C_5  and  C_8
REMARK    3  A    between atoms: C_8  and  S_9
REMARK    4  A    between atoms: S_9  and  C_10
REMARK                            x       y       z     vdW  Elec       q    Type
REMARK                         _______ _______ _______ _____ _____    ______ ____
ROOT
ATOM      1  S   UNL     1       4.051  -2.737  -0.572  0.00  0.00    -0.077 S 
ENDROOT
BRANCH   1   2
ATOM      2  C   UNL     1       5.141  -3.483  -1.739  0.00  0.00    +0.210 A 
ATOM      3  N   UNL     1       5.025  -3.412  -3.043  0.00  0.00    -0.144 NA
ATOM      4  H   UNL     1       6.284  -4.274  -4.531  0.00  0.00    +0.192 HD
ATOM      5  N   UNL     1       6.094  -4.140  -3.589  0.00  0.00    -0.246 N 
ATOM      6  C   UNL     1       6.805  -4.616  -2.546  0.00  0.00    +0.209 A 
ATOM      7  N   UNL     1       6.223  -4.209  -1.438  0.00  0.00    -0.188 NA
ATOM      8  N   UNL     1       7.948  -5.391  -2.627  0.00  0.00    -0.328 N 
ATOM      9  H   UNL     1       8.306  -5.638  -3.494  0.00  0.00    +0.145 HD
ATOM     10  H   UNL     1       8.391  -5.687  -1.817  0.00  0.00    +0.145 HD
ENDBRANCH   1   2
BRANCH   1  11
ATOM     11  C   UNL     1       2.807  -1.910  -1.600  0.00  0.00    +0.152 C 
BRANCH  11  15
ATOM     12  C   UNL     1      -0.019   1.526   0.010  0.00  0.00    +0.077 C 
ATOM     13  C   UNL     1       0.002  -0.004   0.002  0.00  0.00    +0.288 C 
ATOM     14  N   UNL     1       0.724  -0.502  -1.179  0.00  0.00    -0.293 N 
ATOM     15  C   UNL     1       1.800  -1.222  -0.715  0.00  0.00    +0.147 C 
ATOM     16  N   UNL     1       1.839  -1.235   0.568  0.00  0.00    -0.071 NA
ATOM     17  O   UNL     1       0.756  -0.502   1.118  0.00  0.00    -0.370 OA
ATOM     18  H   UNL     1       0.487  -0.352  -2.108  0.00  0.00    +0.151 HD
ENDBRANCH  11  15
ENDBRANCH   1  11
TORSDOF 3
