REMARK  Name = ZINC63161966
REMARK  7 active torsions:
REMARK  status: ('A' for Active; 'I' for Inactive)
REMARK    1  A    between atoms: C_1  and  C_2
REMARK    2  A    between atoms: C_5  and  C_26
REMARK    3  A    between atoms: C_6  and  C_8
REMARK    4  A    between atoms: C_8  and  C_9
REMARK    5  A    between atoms: C_8  and  N_10
REMARK    6  A    between atoms: N_13  and  C_14
REMARK    7  A    between atoms: C_16  and  C_22
REMARK                            x       y       z     vdW  Elec       q    Type
REMARK                         _______ _______ _______ _____ _____    ______ ____
ROOT
ATOM      1  N   UNL     1       0.609  -2.007   3.553  0.00  0.00    -0.293 N 
ATOM      2  C   UNL     1       1.287  -2.570   4.573  0.00  0.00    +0.304 C 
ATOM      3  O   UNL     1       1.406  -3.779   4.630  0.00  0.00    -0.252 OA
ATOM      4  N   UNL     1       1.832  -1.794   5.530  0.00  0.00    -0.265 N 
ATOM      5  H   UNL     1       0.514  -1.042   3.508  0.00  0.00    +0.151 HD
ATOM      6  H   UNL     1       1.682  -0.835   5.521  0.00  0.00    +0.157 HD
ENDROOT
BRANCH   4   7
ATOM      7  C   UNL     1       2.615  -2.371   6.540  0.00  0.00    +0.100 A 
ATOM      8  C   UNL     1       3.917  -1.988   6.711  0.00  0.00    +0.042 A 
ATOM      9  C   UNL     1       4.677  -2.581   7.729  0.00  0.00    +0.073 A 
ATOM     10  C   UNL     1       4.123  -3.521   8.528  0.00  0.00    +0.098 A 
ATOM     11  N   UNL     1       2.830  -3.904   8.359  0.00  0.00    -0.327 N 
ATOM     12  H   UNL     1       2.450  -4.580   8.942  0.00  0.00    +0.168 HD
ATOM     13  C   UNL     1       2.068  -3.352   7.396  0.00  0.00    +0.270 A 
ATOM     14  O   UNL     1       0.906  -3.702   7.260  0.00  0.00    -0.266 OA
BRANCH   9  15
ATOM     15  C   UNL     1       6.113  -2.171   7.932  0.00  0.00    +0.419 C 
ATOM     16  F   UNL     1       6.659  -2.895   8.997  0.00  0.00    -0.166 F 
ATOM     17  F   UNL     1       6.843  -2.434   6.767  0.00  0.00    -0.166 F 
ATOM     18  F   UNL     1       6.172  -0.803   8.220  0.00  0.00    -0.166 F 
ENDBRANCH   9  15
ENDBRANCH   4   7
BRANCH   1  19
ATOM     19  C   UNL     1       0.017  -2.851   2.513  0.00  0.00    +0.102 C 
ATOM     20  C   UNL     1      -1.406  -3.238   2.919  0.00  0.00    +0.033 C 
BRANCH  19  26
ATOM     21  C   UNL     1      -0.200   1.491   0.033  0.00  0.00    +0.044 C 
ATOM     22  C   UNL     1      -0.126  -0.014   0.025  0.00  0.00    -0.050 A 
ATOM     23  C   UNL     1      -0.093  -0.698  -1.176  0.00  0.00    +0.003 A 
ATOM     24  C   UNL     1      -0.025  -2.079  -1.183  0.00  0.00    +0.004 A 
ATOM     25  C   UNL     1       0.011  -2.775   0.011  0.00  0.00    -0.046 A 
ATOM     26  C   UNL     1      -0.021  -2.091   1.211  0.00  0.00    -0.024 A 
ATOM     27  C   UNL     1      -0.085  -0.710   1.218  0.00  0.00    +0.009 A 
ATOM     28  C   UNL     1       0.084  -4.281   0.003  0.00  0.00    +0.044 C 
ENDBRANCH  19  26
ENDBRANCH   1  19
TORSDOF 4
