REMARK  Name = ZINC42016561
REMARK  5 active torsions:
REMARK  status: ('A' for Active; 'I' for Inactive)
REMARK    1  A    between atoms: C_1  and  C_2
REMARK    2  A    between atoms: C_7  and  N_12
REMARK    3  A    between atoms: C_9  and  C_11
REMARK    4  A    between atoms: C_13  and  C_17
REMARK    5  A    between atoms: C_19  and  N_24
REMARK                            x       y       z     vdW  Elec       q    Type
REMARK                         _______ _______ _______ _____ _____    ______ ____
ROOT
ATOM      1  N   UNL     1      -0.664  -2.434   1.335  0.00  0.00    -0.222 N 
ATOM      2  C   UNL     1      -1.163  -3.413   2.130  0.00  0.00    +0.184 A 
ATOM      3  N   UNL     1      -2.365  -3.703   1.676  0.00  0.00    -0.108 NA
ATOM      4  N   UNL     1      -2.648  -2.976   0.656  0.00  0.00    -0.023 NA
ATOM      5  N   UNL     1      -1.672  -2.177   0.389  0.00  0.00    -0.043 NA
ENDROOT
BRANCH   1  11
ATOM      6  C   UNL     1      -0.512   1.804   0.640  0.00  0.00    +0.008 C 
ATOM      7  C   UNL     1      -0.315   0.299   0.444  0.00  0.00    -0.009 C 
ATOM      8  C   UNL     1       0.486   0.053  -0.836  0.00  0.00    +0.004 C 
ATOM      9  C   UNL     1       0.683  -1.452  -1.033  0.00  0.00    +0.002 C 
ATOM     10  C   UNL     1       1.444  -2.027   0.164  0.00  0.00    +0.027 C 
ATOM     11  C   UNL     1       0.643  -1.780   1.444  0.00  0.00    +0.114 C 
ATOM     12  C   UNL     1       0.446  -0.276   1.640  0.00  0.00    +0.013 C 
ATOM     13  C   UNL     1      -0.356  -0.029   2.920  0.00  0.00    +0.010 C 
ENDBRANCH   1  11
BRANCH   2  14
ATOM     14  C   UNL     1      -0.486  -4.037   3.288  0.00  0.00    +0.041 A 
ATOM     15  C   UNL     1       0.832  -4.478   3.174  0.00  0.00    +0.035 A 
ATOM     16  C   UNL     1       1.460  -5.061   4.263  0.00  0.00    +0.025 A 
ATOM     17  C   UNL     1       0.776  -5.206   5.465  0.00  0.00    +0.024 A 
ATOM     18  C   UNL     1      -0.530  -4.770   5.579  0.00  0.00    +0.022 A 
ATOM     19  C   UNL     1      -1.163  -4.182   4.500  0.00  0.00    +0.052 A 
ATOM     20 CL   UNL     1      -2.802  -3.630   4.651  0.00  0.00    -0.083 Cl
BRANCH  16  21
ATOM     21  N   UNL     1       2.781  -5.505   4.153  0.00  0.00    -0.358 N 
ATOM     22  H   UNL     1       3.258  -5.404   3.314  0.00  0.00    +0.142 HD
ATOM     23  H   UNL     1       3.220  -5.913   4.915  0.00  0.00    +0.142 HD
ENDBRANCH  16  21
ENDBRANCH   2  14
TORSDOF 3
