REMARK  Name = ZINC67088845
REMARK  4 active torsions:
REMARK  status: ('A' for Active; 'I' for Inactive)
REMARK    1  A    between atoms: C_3  and  N_9
REMARK    2  A    between atoms: C_10  and  C_12
REMARK    3  A    between atoms: C_13  and  C_14
REMARK    4  A    between atoms: C_18  and  N_20
REMARK                            x       y       z     vdW  Elec       q    Type
REMARK                         _______ _______ _______ _____ _____    ______ ____
ROOT
ATOM      1  N   UNL     1       3.583   2.130  -0.021  0.00  0.00    -0.280 N 
ATOM      2  C   UNL     1       3.565   3.475  -0.116  0.00  0.00    +0.241 C 
ATOM      3  O   UNL     1       2.504   4.071  -0.103  0.00  0.00    -0.270 OA
ATOM      4  H   UNL     1       4.429   1.661   0.049  0.00  0.00    +0.155 HD
ENDROOT
BRANCH   1   7
ATOM      5  C   UNL     1       0.065   1.242  -0.621  0.00  0.00    +0.005 A 
ATOM      6  C   UNL     1       1.250   1.953  -0.619  0.00  0.00    +0.026 A 
ATOM      7  C   UNL     1       2.382   1.412  -0.024  0.00  0.00    +0.072 A 
ATOM      8  C   UNL     1       2.321   0.155   0.567  0.00  0.00    +0.179 A 
ATOM      9  C   UNL     1       1.130  -0.552   0.562  0.00  0.00    +0.160 A 
ATOM     10  C   UNL     1       0.004  -0.007  -0.033  0.00  0.00    +0.041 A 
ATOM     11  F   UNL     1       1.067  -1.773   1.136  0.00  0.00    -0.202 F 
ATOM     12  F   UNL     1       3.420  -0.375   1.146  0.00  0.00    -0.201 F 
ENDBRANCH   1   7
BRANCH   2  13
ATOM     13  C   UNL     1       4.821   4.217  -0.235  0.00  0.00    +0.068 C 
ATOM     14  C   UNL     1       4.802   5.562  -0.330  0.00  0.00    +0.013 C 
BRANCH  14  15
ATOM     15  C   UNL     1       6.064   6.309  -0.449  0.00  0.00    -0.023 A 
ATOM     16  C   UNL     1       7.285   5.626  -0.470  0.00  0.00    +0.009 A 
ATOM     17  C   UNL     1       8.464   6.332  -0.582  0.00  0.00    +0.023 A 
ATOM     18  C   UNL     1       8.441   7.714  -0.674  0.00  0.00    +0.071 A 
ATOM     19  C   UNL     1       7.236   8.397  -0.653  0.00  0.00    +0.145 A 
ATOM     20  C   UNL     1       6.049   7.704  -0.547  0.00  0.00    +0.042 A 
ATOM     21 CL   UNL     1       9.931   8.595  -0.814  0.00  0.00    -0.081 Cl
BRANCH  19  22
ATOM     22  N   UNL     1       7.222   9.874  -0.751  0.00  0.00    +0.058 N 
ATOM     23  O   UNL     1       6.171  10.471  -0.733  0.00  0.00    -0.126 OA
ATOM     24  O   UNL     1       8.262  10.483  -0.849  0.00  0.00    -0.126 OA
ENDBRANCH  19  22
ENDBRANCH  14  15
ENDBRANCH   2  13
TORSDOF 4
