REMARK  Name = ZINC06952298
REMARK  11 active torsions:
REMARK  status: ('A' for Active; 'I' for Inactive)
REMARK    1  A    between atoms: C_1  and  C_2
REMARK    2  A    between atoms: C_2  and  C_3
REMARK    3  A    between atoms: C_2  and  C_4
REMARK    4  A    between atoms: C_4  and  C_5
REMARK    5  A    between atoms: C_5  and  C_7
REMARK    6  A    between atoms: C_5  and  N_23
REMARK    7  A    between atoms: N_9  and  N_10
REMARK    8  A    between atoms: C_11  and  C_12
REMARK    9  A    between atoms: C_15  and  O_19
REMARK   10  A    between atoms: O_19  and  C_20
REMARK   11  A    between atoms: C_20  and  C_21
REMARK                            x       y       z     vdW  Elec       q    Type
REMARK                         _______ _______ _______ _____ _____    ______ ____
ROOT
ATOM      1  C   UNL     1      -2.826  -2.559  -0.234  0.00  0.00    +0.218 C 
ATOM      2  O   UNL     1      -3.499  -2.940   0.701  0.00  0.00    -0.276 OA
ATOM      3  N   UNL     1      -3.329  -2.592  -1.484  0.00  0.00    -0.208 N 
ATOM      4  H   UNL     1      -2.791  -2.287  -2.231  0.00  0.00    +0.177 HD
ENDROOT
BRANCH   3   5
ATOM      5  N   UNL     1      -4.628  -3.067  -1.703  0.00  0.00    -0.188 NA
ATOM      6  C   UNL     1      -5.113  -3.099  -2.907  0.00  0.00    +0.138 C 
BRANCH   6   7
ATOM      7  C   UNL     1      -6.480  -3.599  -3.138  0.00  0.00    -0.004 A 
ATOM      8  C   UNL     1      -7.259  -4.034  -2.062  0.00  0.00    +0.013 A 
ATOM      9  C   UNL     1      -8.537  -4.501  -2.283  0.00  0.00    +0.047 A 
ATOM     10  C   UNL     1      -9.051  -4.540  -3.572  0.00  0.00    +0.136 A 
ATOM     11  C   UNL     1      -8.281  -4.109  -4.646  0.00  0.00    +0.060 A 
ATOM     12  C   UNL     1      -7.004  -3.635  -4.433  0.00  0.00    +0.028 A 
ATOM     13 BR   UNL     1      -8.988  -4.166  -6.398  0.00  0.00    -0.046 Br
BRANCH  10  14
ATOM     14  O   UNL     1     -10.311  -5.002  -3.785  0.00  0.00    -0.478 OA
BRANCH  14  15
ATOM     15  C   UNL     1     -11.047  -5.430  -2.637  0.00  0.00    +0.317 C 
BRANCH  15  16
ATOM     16  C   UNL     1     -12.380  -5.895  -3.055  0.00  0.00    -0.065 C 
ATOM     17  C   UNL     1     -13.443  -6.265  -3.388  0.00  0.00    +0.007 C 
ENDBRANCH  15  16
ENDBRANCH  14  15
ENDBRANCH  10  14
ENDBRANCH   6   7
ENDBRANCH   3   5
BRANCH   1  18
ATOM     18  C   UNL     1      -1.428  -2.048   0.003  0.00  0.00    +0.015 C 
BRANCH  18  19
ATOM     19  N   UNL     1      -0.940  -2.538   1.299  0.00  0.00    +0.386 N 
ATOM     20  H   UNL     1      -1.496  -2.138   2.040  0.00  0.00    -0.089 HD
ATOM     21  H   UNL     1      -1.014  -3.544   1.327  0.00  0.00    -0.089 HD
ATOM     22  H   UNL     1       0.025  -2.268   1.419  0.00  0.00    -0.089 HD
ENDBRANCH  18  19
BRANCH  18  23
ATOM     23  C   UNL     1      -1.439  -0.518   0.007  0.00  0.00    -0.004 C 
BRANCH  23  25
ATOM     24  C   UNL     1       0.784  -0.381  -1.125  0.00  0.00    +0.007 C 
ATOM     25  C   UNL     1      -0.005   0.002   0.129  0.00  0.00    -0.018 C 
ATOM     26  C   UNL     1      -0.025   1.525   0.274  0.00  0.00    +0.007 C 
ENDBRANCH  23  25
ENDBRANCH  18  23
ENDBRANCH   1  18
TORSDOF 9
