REMARK  Name = ZINC50471897
REMARK  8 active torsions:
REMARK  status: ('A' for Active; 'I' for Inactive)
REMARK    1  A    between atoms: C_1  and  C_2
REMARK    2  A    between atoms: C_2  and  C_3
REMARK    3  A    between atoms: C_2  and  C_16
REMARK    4  A    between atoms: C_2  and  N_19
REMARK    5  A    between atoms: C_3  and  C_4
REMARK    6  A    between atoms: C_4  and  O_5
REMARK    7  A    between atoms: O_5  and  C_6
REMARK    8  A    between atoms: C_9  and  N_13
REMARK                            x       y       z     vdW  Elec       q    Type
REMARK                         _______ _______ _______ _____ _____    ______ ____
ROOT
ATOM      1  C   UNL     1       0.742  -0.511   1.242  0.00  0.00    +0.037 C 
ENDROOT
BRANCH   1   3
ATOM      2  C   UNL     1      -0.019   1.526   0.010  0.00  0.00    -0.001 C 
ATOM      3  C   UNL     1       0.002  -0.004   0.002  0.00  0.00    +0.007 C 
BRANCH   3   4
ATOM      4  C   UNL     1       0.707  -0.490  -1.238  0.00  0.00    +0.199 C 
ATOM      5  O   UNL     1       1.889  -0.763  -1.196  0.00  0.00    -0.278 OA
ATOM      6  N   UNL     1       0.026  -0.622  -2.393  0.00  0.00    -0.330 N 
ATOM      7  H   UNL     1      -0.919  -0.404  -2.426  0.00  0.00    +0.145 HD
ATOM      8  H   UNL     1       0.480  -0.934  -3.191  0.00  0.00    +0.145 HD
ENDBRANCH   3   4
BRANCH   3   9
ATOM      9  N   UNL     1      -1.376  -0.512   0.012  0.00  0.00    +0.387 N 
ATOM     10  H   UNL     1      -1.864  -0.178  -0.805  0.00  0.00    -0.089 HD
ATOM     11  H   UNL     1      -1.362  -1.521   0.007  0.00  0.00    -0.089 HD
ATOM     12  H   UNL     1      -1.848  -0.187   0.843  0.00  0.00    -0.089 HD
ENDBRANCH   3   9
ENDBRANCH   1   3
BRANCH   1  13
ATOM     13  C   UNL     1      -0.042  -0.124   2.497  0.00  0.00    +0.228 C 
BRANCH  13  14
ATOM     14  O   UNL     1       0.650  -0.597   3.655  0.00  0.00    -0.492 OA
BRANCH  14  15
ATOM     15  C   UNL     1       0.083  -0.335   4.862  0.00  0.00    +0.122 A 
ATOM     16  C   UNL     1      -1.117   0.359   4.930  0.00  0.00    +0.048 A 
ATOM     17  C   UNL     1      -1.691   0.625   6.158  0.00  0.00    +0.038 A 
ATOM     18  C   UNL     1      -1.072   0.200   7.319  0.00  0.00    +0.145 A 
ATOM     19  C   UNL     1       0.124  -0.491   7.254  0.00  0.00    +0.075 A 
ATOM     20  C   UNL     1       0.700  -0.765   6.027  0.00  0.00    +0.068 A 
ATOM     21 CL   UNL     1       0.900  -1.023   8.714  0.00  0.00    -0.081 Cl
BRANCH  18  22
ATOM     22  N   UNL     1      -1.690   0.487   8.633  0.00  0.00    +0.058 N 
ATOM     23  O   UNL     1      -2.735   1.092   8.691  0.00  0.00    -0.126 OA
ATOM     24  O   UNL     1      -1.149   0.116   9.649  0.00  0.00    -0.126 OA
ENDBRANCH  18  22
ENDBRANCH  14  15
ENDBRANCH  13  14
ENDBRANCH   1  13
TORSDOF 7
