REMARK  Name = ZINC60555114
REMARK  7 active torsions:
REMARK  status: ('A' for Active; 'I' for Inactive)
REMARK    1  A    between atoms: C_1  and  C_2
REMARK    2  A    between atoms: C_7  and  N_8
REMARK    3  A    between atoms: N_8  and  C_9
REMARK    4  A    between atoms: C_9  and  C_10
REMARK    5  A    between atoms: N_12  and  C_13
REMARK    6  A    between atoms: C_17  and  S_19
REMARK    7  A    between atoms: S_19  and  N_22
REMARK                            x       y       z     vdW  Elec       q    Type
REMARK                         _______ _______ _______ _____ _____    ______ ____
ROOT
ATOM      1  C   UNL     1      -0.030   0.694   7.131  0.00  0.00    +0.035 A 
ATOM      2  C   UNL     1      -0.153   2.045   6.834  0.00  0.00    +0.023 A 
ATOM      3  C   UNL     1      -0.245   2.970   7.855  0.00  0.00    +0.004 A 
ATOM      4  C   UNL     1      -0.214   2.552   9.173  0.00  0.00    +0.029 A 
ATOM      5  C   UNL     1      -0.092   1.207   9.473  0.00  0.00    +0.114 A 
ATOM      6  C   UNL     1      -0.006   0.277   8.455  0.00  0.00    +0.052 A 
ENDROOT
BRANCH   1   9
ATOM      7  C   UNL     1      -0.504  -1.460   6.239  0.00  0.00    +0.234 C 
ATOM      8  O   UNL     1      -1.023  -1.769   7.291  0.00  0.00    -0.274 OA
ATOM      9  N   UNL     1       0.063  -0.246   6.098  0.00  0.00    -0.284 N 
ATOM     10  H   UNL     1       0.536  -0.023   5.281  0.00  0.00    +0.155 HD
BRANCH   7  11
ATOM     11  C   UNL     1      -0.494  -2.434   5.089  0.00  0.00    +0.198 C 
BRANCH  11  12
ATOM     12  N   UNL     1      -1.168  -3.671   5.491  0.00  0.00    -0.335 N 
ATOM     13  H   UNL     1      -1.533  -3.756   6.386  0.00  0.00    +0.147 HD
BRANCH  12  20
ATOM     14  C   UNL     1      -2.490  -6.037   6.355  0.00  0.00    +0.045 C 
ATOM     15  C   UNL     1      -1.922  -5.903   4.966  0.00  0.00    -0.030 A 
ATOM     16  C   UNL     1      -2.040  -6.945   4.067  0.00  0.00    +0.005 A 
ATOM     17  C   UNL     1      -1.518  -6.823   2.792  0.00  0.00    +0.000 A 
ATOM     18  C   UNL     1      -0.877  -5.657   2.413  0.00  0.00    +0.002 A 
ATOM     19  C   UNL     1      -0.756  -4.612   3.306  0.00  0.00    +0.023 A 
ATOM     20  C   UNL     1      -1.284  -4.729   4.586  0.00  0.00    +0.030 A 
ENDBRANCH  12  20
ENDBRANCH  11  12
ENDBRANCH   7  11
ENDBRANCH   1   9
BRANCH   5  21
ATOM     21  S   UNL     1      -0.053   0.680  11.153  0.00  0.00    +0.100 S 
ATOM     22  O   UNL     1       0.616  -0.574  11.170  0.00  0.00    -0.146 OA
ATOM     23  O   UNL     1       0.393   1.792  11.918  0.00  0.00    -0.146 OA
BRANCH  21  24
ATOM     24  N   UNL     1      -1.617   0.388  11.611  0.00  0.00    -0.118 NA
ATOM     25  C   UNL     1      -1.875  -0.016  12.812  0.00  0.00    +0.117 C 
ATOM     26  C   UNL     1      -3.255  -0.323  13.351  0.00  0.00    +0.074 C 
ATOM     27  C   UNL     1      -2.991  -1.146  14.632  0.00  0.00    +0.026 C 
ATOM     28  C   UNL     1      -1.577  -0.675  15.033  0.00  0.00    +0.103 C 
ATOM     29  N   UNL     1      -0.940  -0.236  13.786  0.00  0.00    -0.331 N 
ATOM     30  H   UNL     1       0.015  -0.116  13.668  0.00  0.00    +0.147 HD
ENDBRANCH  21  24
ENDBRANCH   5  21
TORSDOF 6
