REMARK  Name = ZINC10431794
REMARK  13 active torsions:
REMARK  status: ('A' for Active; 'I' for Inactive)
REMARK    1  A    between atoms: C_1  and  C_2
REMARK    2  A    between atoms: C_2  and  N_3
REMARK    3  A    between atoms: N_3  and  C_4
REMARK    4  A    between atoms: N_3  and  C_18
REMARK    5  A    between atoms: C_4  and  C_5
REMARK    6  A    between atoms: C_5  and  C_7
REMARK    7  A    between atoms: C_5  and  O_17
REMARK    8  A    between atoms: C_7  and  O_8
REMARK    9  A    between atoms: O_8  and  C_9
REMARK   10  A    between atoms: C_12  and  C_15
REMARK   11  A    between atoms: C_19  and  N_34
REMARK   12  A    between atoms: N_20  and  C_27
REMARK   13  A    between atoms: C_27  and  C_28
REMARK                            x       y       z     vdW  Elec       q    Type
REMARK                         _______ _______ _______ _____ _____    ______ ____
ROOT
ATOM      1  C   UNL     1      -2.699  -2.541   0.149  0.00  0.00    +0.133 A 
ATOM      2  C   UNL     1      -3.008  -3.421  -0.852  0.00  0.00    +0.127 A 
ATOM      3  N   UNL     1      -4.282  -3.939  -0.925  0.00  0.00    -0.276 N 
ATOM      4  C   UNL     1      -5.217  -3.576  -0.029  0.00  0.00    +0.331 A 
ATOM      5  O   UNL     1      -6.338  -4.040  -0.112  0.00  0.00    -0.246 OA
ATOM      6  N   UNL     1      -4.931  -2.708   0.959  0.00  0.00    -0.273 N 
ATOM      7  H   UNL     1      -5.641  -2.453   1.615  0.00  0.00    +0.173 HD
ATOM      8  C   UNL     1      -3.697  -2.180   1.072  0.00  0.00    +0.277 A 
ATOM      9  O   UNL     1      -3.446  -1.394   1.970  0.00  0.00    -0.266 OA
ENDROOT
BRANCH   2  10
ATOM     10  N   UNL     1      -2.054  -3.789  -1.773  0.00  0.00    -0.343 N 
ATOM     11  H   UNL     1      -1.158  -3.424  -1.714  0.00  0.00    +0.144 HD
ATOM     12  H   UNL     1      -2.279  -4.414  -2.481  0.00  0.00    +0.144 HD
ENDBRANCH   2  10
BRANCH   1  13
ATOM     13  N   UNL     1      -1.397  -1.999   0.251  0.00  0.00    -0.321 N 
BRANCH  13  15
ATOM     14  C   UNL     1      -0.511  -3.929   1.470  0.00  0.00    +0.024 C 
ATOM     15  C   UNL     1      -0.748  -2.418   1.500  0.00  0.00    +0.102 C 
ENDBRANCH  13  15
BRANCH  13  16
ATOM     16  C   UNL     1      -1.427  -0.534   0.139  0.00  0.00    +0.140 C 
BRANCH  16  17
ATOM     17  C   UNL     1       0.002  -0.004   0.002  0.00  0.00    +0.169 C 
BRANCH  17  18
ATOM     18  O   UNL     1       0.566  -0.466  -1.227  0.00  0.00    -0.387 OA
ATOM     19  H   UNL     1       0.080  -0.183  -2.014  0.00  0.00    +0.210 HD
ENDBRANCH  17  18
BRANCH  17  20
ATOM     20  C   UNL     1      -0.019   1.526   0.010  0.00  0.00    +0.261 C 
BRANCH  20  21
ATOM     21  O   UNL     1       1.322   2.020   0.000  0.00  0.00    -0.489 OA
BRANCH  21  22
ATOM     22  C   UNL     1       1.482   3.369   0.006  0.00  0.00    +0.121 A 
ATOM     23  C   UNL     1       0.367   4.198   0.015  0.00  0.00    +0.047 A 
ATOM     24  C   UNL     1       0.524   5.566   0.027  0.00  0.00    +0.022 A 
ATOM     25  C   UNL     1       1.807   6.120   0.018  0.00  0.00    +0.052 A 
ATOM     26  C   UNL     1       2.926   5.282   0.003  0.00  0.00    +0.022 A 
ATOM     27  C   UNL     1       2.759   3.915  -0.003  0.00  0.00    +0.047 A 
BRANCH  25  28
ATOM     28  C   UNL     1       1.976   7.542   0.025  0.00  0.00    +0.099 C 
ATOM     29  N   UNL     1       2.109   8.670   0.031  0.00  0.00    -0.191 NA
ENDBRANCH  25  28
ENDBRANCH  21  22
ENDBRANCH  20  21
ENDBRANCH  17  20
ENDBRANCH  16  17
ENDBRANCH  13  16
ENDBRANCH   1  13
BRANCH   3  30
ATOM     30  C   UNL     1      -4.622  -4.886  -1.990  0.00  0.00    +0.163 C 
BRANCH  30  31
ATOM     31  C   UNL     1      -5.124  -4.130  -3.193  0.00  0.00    -0.028 A 
ATOM     32  C   UNL     1      -6.473  -3.859  -3.327  0.00  0.00    +0.005 A 
ATOM     33  C   UNL     1      -6.932  -3.162  -4.428  0.00  0.00    +0.000 A 
ATOM     34  C   UNL     1      -6.044  -2.744  -5.401  0.00  0.00    +0.000 A 
ATOM     35  C   UNL     1      -4.696  -3.019  -5.271  0.00  0.00    +0.000 A 
ATOM     36  C   UNL     1      -4.236  -3.712  -4.167  0.00  0.00    +0.005 A 
ENDBRANCH  30  31
ENDBRANCH   3  30
TORSDOF 12
