REMARK  Name = ZINC61886257
REMARK  4 active torsions:
REMARK  status: ('A' for Active; 'I' for Inactive)
REMARK    1  A    between atoms: C_5  and  C_6
REMARK    2  A    between atoms: N_8  and  C_9
REMARK    3  A    between atoms: C_14  and  C_16
REMARK    4  A    between atoms: N_17  and  O_18
REMARK                            x       y       z     vdW  Elec       q    Type
REMARK                         _______ _______ _______ _____ _____    ______ ____
ROOT
ATOM      1  C   UNL     1      -2.344  -2.942  -0.298  0.00  0.00    +0.083 C 
ATOM      2  C   UNL     1      -2.731  -3.225  -1.760  0.00  0.00    +0.023 C 
ATOM      3  C   UNL     1      -2.833  -4.758  -1.900  0.00  0.00    +0.003 C 
ATOM      4  C   UNL     1      -1.942  -5.304  -0.757  0.00  0.00    +0.013 C 
ATOM      5  C   UNL     1      -2.224  -4.312   0.400  0.00  0.00    +0.076 C 
ENDROOT
BRANCH   5   6
ATOM      6  C   UNL     1      -1.081  -4.306   1.382  0.00  0.00    +0.136 C 
ATOM      7  N   UNL     1      -1.301  -4.052   2.629  0.00  0.00    -0.076 NA
ATOM      8  N   UNL     1       0.200  -4.572   0.949  0.00  0.00    -0.344 N 
ATOM      9  H   UNL     1       0.365  -4.763   0.012  0.00  0.00    +0.144 HD
ATOM     10  H   UNL     1       0.936  -4.568   1.581  0.00  0.00    +0.144 HD
BRANCH   7  11
ATOM     11  O   UNL     1      -2.628  -3.885   3.094  0.00  0.00    -0.408 OA
ATOM     12  H   UNL     1      -2.690  -3.623   4.023  0.00  0.00    +0.328 HD
ENDBRANCH   7  11
ENDBRANCH   5   6
BRANCH   1  15
ATOM     13  C   UNL     1      -1.029  -0.892  -0.241  0.00  0.00    +0.245 C 
ATOM     14  O   UNL     1      -2.067  -0.260  -0.188  0.00  0.00    -0.270 OA
ATOM     15  N   UNL     1      -1.060  -2.239  -0.246  0.00  0.00    -0.308 N 
ATOM     16  H   UNL     1      -0.231  -2.743  -0.216  0.00  0.00    +0.149 HD
BRANCH  13  21
ATOM     17  C   UNL     1       0.330   1.253  -0.405  0.00  0.00    +0.020 A 
ATOM     18  C   UNL     1       1.571   1.778  -0.448  0.00  0.00    +0.046 A 
ATOM     19  S   UNL     1       2.619   0.343  -0.345  0.00  0.00    -0.104 S 
ATOM     20  C   UNL     1       1.458  -0.864  -0.251  0.00  0.00    +0.058 A 
ATOM     21  C   UNL     1       0.261  -0.184  -0.298  0.00  0.00    +0.044 A 
ENDBRANCH  13  21
ENDBRANCH   1  15
TORSDOF 4
