REMARK  Name = ZINC49739125
REMARK  6 active torsions:
REMARK  status: ('A' for Active; 'I' for Inactive)
REMARK    1  A    between atoms: C_1  and  C_2
REMARK    2  A    between atoms: C_5  and  C_25
REMARK    3  A    between atoms: C_6  and  S_8
REMARK    4  A    between atoms: S_8  and  N_11
REMARK    5  A    between atoms: N_11  and  C_12
REMARK    6  A    between atoms: C_12  and  C_13
REMARK                            x       y       z     vdW  Elec       q    Type
REMARK                         _______ _______ _______ _____ _____    ______ ____
ROOT
ATOM      1  N   UNL     1      -1.392  -3.973   1.938  0.00  0.00    -0.186 NA
ATOM      2  H   UNL     1      -2.167  -4.006   2.520  0.00  0.00    +0.148 HD
ENDROOT
BRANCH   1   3
ATOM      3  S   UNL     1      -0.157  -2.918   2.263  0.00  0.00    +0.059 S 
ATOM      4  O   UNL     1       1.050  -3.662   2.162  0.00  0.00    -0.153 OA
ATOM      5  O   UNL     1      -0.523  -2.216   3.443  0.00  0.00    -0.153 OA
BRANCH   3  11
ATOM      6  C   UNL     1       2.209  -0.598  -1.779  0.00  0.00    +0.044 C 
ATOM      7  C   UNL     1       1.002  -0.704  -0.883  0.00  0.00    -0.049 A 
ATOM      8  C   UNL     1      -0.084   0.129  -1.084  0.00  0.00    +0.004 A 
ATOM      9  C   UNL     1      -1.191   0.031  -0.263  0.00  0.00    +0.005 A 
ATOM     10  C   UNL     1      -1.213  -0.900   0.759  0.00  0.00    -0.024 A 
ATOM     11  C   UNL     1      -0.129  -1.733   0.960  0.00  0.00    +0.108 A 
ATOM     12  C   UNL     1       0.977  -1.638   0.135  0.00  0.00    +0.032 A 
ATOM     13  C   UNL     1      -2.420  -1.006   1.655  0.00  0.00    +0.046 C 
ENDBRANCH   3  11
ENDBRANCH   1   3
BRANCH   1  14
ATOM     14  C   UNL     1      -1.313  -4.856   0.772  0.00  0.00    +0.160 C 
BRANCH  14  15
ATOM     15  C   UNL     1      -2.377  -5.949   0.887  0.00  0.00    +0.274 C 
ATOM     16  C   UNL     1      -2.215  -6.929  -0.248  0.00  0.00    +0.259 C 
ATOM     17  O   UNL     1      -1.539  -7.926  -0.100  0.00  0.00    -0.271 OA
ATOM     18  N   UNL     1      -2.825  -6.693  -1.428  0.00  0.00    -0.279 N 
ATOM     19  C   UNL     1      -3.702  -5.606  -1.539  0.00  0.00    +0.076 A 
ATOM     20  C   UNL     1      -4.166  -5.199  -2.780  0.00  0.00    +0.027 A 
ATOM     21  C   UNL     1      -5.021  -4.116  -2.874  0.00  0.00    +0.002 A 
ATOM     22  C   UNL     1      -5.412  -3.438  -1.734  0.00  0.00    +0.004 A 
ATOM     23  C   UNL     1      -4.956  -3.842  -0.492  0.00  0.00    +0.047 A 
ATOM     24  C   UNL     1      -4.106  -4.930  -0.390  0.00  0.00    +0.143 A 
ATOM     25  O   UNL     1      -3.676  -5.357   0.827  0.00  0.00    -0.476 OA
ATOM     26  H   UNL     1      -2.658  -7.269  -2.191  0.00  0.00    +0.155 HD
ENDBRANCH  14  15
ENDBRANCH   1  14
TORSDOF 4
