REMARK  Name = ZINC63686291
REMARK  7 active torsions:
REMARK  status: ('A' for Active; 'I' for Inactive)
REMARK    1  A    between atoms: C_1  and  N_2
REMARK    2  A    between atoms: C_10  and  C_12
REMARK    3  A    between atoms: C_12  and  N_13
REMARK    4  A    between atoms: C_14  and  C_16
REMARK    5  A    between atoms: C_16  and  S_17
REMARK    6  A    between atoms: S_17  and  C_18
REMARK    7  A    between atoms: C_21  and  C_24
REMARK                            x       y       z     vdW  Elec       q    Type
REMARK                         _______ _______ _______ _____ _____    ______ ____
ROOT
ATOM      1  N   UNL     1       2.471  -0.883   1.190  0.00  0.00    -0.311 N 
ATOM      2  C   UNL     1       3.701  -0.718   1.714  0.00  0.00    +0.223 C 
ATOM      3  O   UNL     1       3.827  -0.351   2.863  0.00  0.00    -0.275 OA
ATOM      4  H   UNL     1       2.370  -1.177   0.271  0.00  0.00    +0.149 HD
ENDROOT
BRANCH   1   5
ATOM      5  C   UNL     1       1.285  -0.618   2.008  0.00  0.00    +0.146 C 
BRANCH   5  15
ATOM      6  C   UNL     1      -0.018   1.461   0.010  0.00  0.00    +0.131 C 
ATOM      7  N   UNL     1       0.002  -0.004   0.002  0.00  0.00    -0.312 N 
ATOM      8  C   UNL     1       0.009  -0.828  -1.132  0.00  0.00    +0.052 A 
ATOM      9  C   UNL     1      -0.002  -0.504  -2.483  0.00  0.00    +0.025 A 
ATOM     10  C   UNL     1       0.007  -1.504  -3.437  0.00  0.00    +0.002 A 
ATOM     11  C   UNL     1       0.026  -2.832  -3.050  0.00  0.00    +0.002 A 
ATOM     12  C   UNL     1       0.037  -3.163  -1.709  0.00  0.00    +0.025 A 
ATOM     13  C   UNL     1       0.028  -2.164  -0.743  0.00  0.00    +0.050 A 
ATOM     14  N   UNL     1       0.035  -2.251   0.656  0.00  0.00    -0.323 N 
ATOM     15  C   UNL     1       0.025  -0.880   1.179  0.00  0.00    +0.176 C 
ATOM     16  H   UNL     1       0.048  -3.067   1.181  0.00  0.00    +0.148 HD
ENDBRANCH   5  15
ENDBRANCH   1   5
BRANCH   2  17
ATOM     17  C   UNL     1       4.922  -0.991   0.873  0.00  0.00    +0.173 C 
BRANCH  17  18
ATOM     18  S   UNL     1       6.415  -0.680   1.855  0.00  0.00    -0.077 S 
BRANCH  18  19
ATOM     19  C   UNL     1       7.737  -1.038   0.746  0.00  0.00    +0.185 A 
ATOM     20  N   UNL     1       7.612  -1.437  -0.501  0.00  0.00    -0.201 NA
ATOM     21  H   UNL     1       9.452  -0.674   1.868  0.00  0.00    +0.191 HD
ATOM     22  C   UNL     1       8.827  -1.612  -1.042  0.00  0.00    +0.182 A 
ATOM     23  N   UNL     1       9.739  -1.326  -0.140  0.00  0.00    -0.152 NA
ATOM     24  N   UNL     1       9.056  -0.946   1.026  0.00  0.00    -0.253 N 
BRANCH  22  25
ATOM     25  C   UNL     1       9.097  -2.057  -2.431  0.00  0.00    +0.021 A 
ATOM     26  C   UNL     1       8.039  -2.326  -3.297  0.00  0.00    +0.011 A 
ATOM     27  C   UNL     1       8.296  -2.740  -4.589  0.00  0.00    +0.001 A 
ATOM     28  C   UNL     1       9.601  -2.888  -5.024  0.00  0.00    +0.000 A 
ATOM     29  C   UNL     1      10.655  -2.622  -4.168  0.00  0.00    +0.001 A 
ATOM     30  C   UNL     1      10.409  -2.202  -2.877  0.00  0.00    +0.011 A 
ENDBRANCH  22  25
ENDBRANCH  18  19
ENDBRANCH  17  18
ENDBRANCH   2  17
TORSDOF 6
