REMARK  Name = ZINC63111990
REMARK  3 active torsions:
REMARK  status: ('A' for Active; 'I' for Inactive)
REMARK    1  A    between atoms: C_7  and  C_10
REMARK    2  A    between atoms: C_16  and  C_18
REMARK    3  A    between atoms: C_21  and  N_25
REMARK                            x       y       z     vdW  Elec       q    Type
REMARK                         _______ _______ _______ _____ _____    ______ ____
ROOT
ATOM      1  C   UNL     1       0.741  -3.188  -0.024  0.00  0.00    +0.020 C 
ATOM      2  C   UNL     1       0.986  -4.046   1.219  0.00  0.00    +0.027 C 
ATOM      3  C   UNL     1      -0.008  -5.212   1.234  0.00  0.00    +0.108 C 
ATOM      4  N   UNL     1       0.103  -5.943  -0.036  0.00  0.00    -0.298 N 
ATOM      5  C   UNL     1      -0.026  -5.197  -1.295  0.00  0.00    +0.108 C 
ATOM      6  C   UNL     1       0.968  -4.032  -1.281  0.00  0.00    +0.027 C 
ATOM      7  C   UNL     1       0.319  -7.274  -0.045  0.00  0.00    +0.241 C 
ATOM      8  O   UNL     1       0.316  -7.884  -1.099  0.00  0.00    -0.271 OA
ENDROOT
BRANCH   1  15
ATOM      9  C   UNL     1       0.083   1.353   0.007  0.00  0.00    +0.001 A 
ATOM     10  C   UNL     1       1.273   2.094   0.002  0.00  0.00    +0.002 A 
ATOM     11  C   UNL     1       2.492   1.514  -0.010  0.00  0.00    +0.026 A 
ATOM     12  C   UNL     1       2.615   0.098  -0.019  0.00  0.00    +0.043 A 
ATOM     13  N   UNL     1       3.664  -0.688  -0.032  0.00  0.00    -0.380 N 
ATOM     14  C   UNL     1       3.206  -2.081  -0.036  0.00  0.00    +0.145 C 
ATOM     15  C   UNL     1       1.695  -2.021  -0.024  0.00  0.00    -0.038 C 
ATOM     16  C   UNL     1       1.372  -0.707  -0.014  0.00  0.00    -0.001 A 
ATOM     17  C   UNL     1       0.087   0.001  -0.000  0.00  0.00    +0.010 A 
ATOM     18  H   UNL     1       4.589  -0.396  -0.037  0.00  0.00    +0.160 HD
ENDBRANCH   1  15
BRANCH   7  19
ATOM     19  C   UNL     1       0.549  -7.961   1.169  0.00  0.00    +0.086 C 
ATOM     20  C   UNL     1       0.878  -9.269   1.152  0.00  0.00    +0.021 C 
ATOM     21  N   UNL     1       1.093  -9.928  -0.006  0.00  0.00    -0.320 N 
ATOM     22  C   UNL     1       1.941 -11.139   0.061  0.00  0.00    +0.222 C 
ATOM     23  S   UNL     1       1.584 -11.701   1.782  0.00  0.00    -0.113 S 
ATOM     24  C   UNL     1       1.032 -10.068   2.436  0.00  0.00    +0.123 C 
ATOM     25  H   UNL     1       0.709  -9.623  -0.843  0.00  0.00    +0.148 HD
BRANCH  22  26
ATOM     26  N   UNL     1       1.517 -12.138  -0.922  0.00  0.00    -0.274 N 
ATOM     27  C   UNL     1       2.322 -13.299  -1.323  0.00  0.00    +0.111 C 
ATOM     28  C   UNL     1       1.334 -14.268  -2.010  0.00  0.00    +0.028 C 
ATOM     29  C   UNL     1       0.234 -13.299  -2.504  0.00  0.00    +0.097 C 
ATOM     30  C   UNL     1       0.340 -12.114  -1.570  0.00  0.00    +0.218 C 
ATOM     31  O   UNL     1      -0.514 -11.263  -1.428  0.00  0.00    -0.276 OA
ENDBRANCH  22  26
ENDBRANCH   7  19
TORSDOF 3
