REMARK  Name = ZINC42029640
REMARK  7 active torsions:
REMARK  status: ('A' for Active; 'I' for Inactive)
REMARK    1  A    between atoms: C_1  and  C_2
REMARK    2  A    between atoms: C_2  and  C_3
REMARK    3  A    between atoms: C_2  and  C_4
REMARK    4  A    between atoms: C_2  and  C_5
REMARK    5  A    between atoms: C_5  and  N_6
REMARK    6  A    between atoms: C_7  and  C_11
REMARK    7  A    between atoms: C_15  and  N_17
REMARK                            x       y       z     vdW  Elec       q    Type
REMARK                         _______ _______ _______ _____ _____    ______ ____
ROOT
ATOM      1  N   UNL     1       2.089   0.311  -0.902  0.00  0.00    -0.225 N 
ATOM      2  C   UNL     1       2.553   1.129  -1.879  0.00  0.00    +0.182 A 
ATOM      3  N   UNL     1       3.847   0.910  -1.984  0.00  0.00    -0.108 NA
ATOM      4  N   UNL     1       4.221   0.014  -1.143  0.00  0.00    -0.023 NA
ATOM      5  N   UNL     1       3.216  -0.395  -0.446  0.00  0.00    -0.044 NA
ENDROOT
BRANCH   2   6
ATOM      6  C   UNL     1       1.756   2.087  -2.677  0.00  0.00    +0.023 A 
ATOM      7  C   UNL     1       2.316   3.300  -3.079  0.00  0.00    +0.014 A 
ATOM      8  C   UNL     1       1.572   4.192  -3.822  0.00  0.00    +0.041 A 
ATOM      9  C   UNL     1       0.267   3.889  -4.172  0.00  0.00    +0.144 A 
ATOM     10  C   UNL     1      -0.300   2.681  -3.775  0.00  0.00    +0.061 A 
ATOM     11  C   UNL     1       0.444   1.777  -3.034  0.00  0.00    +0.037 A 
ATOM     12  F   UNL     1      -0.457   4.766  -4.900  0.00  0.00    -0.204 F 
BRANCH  10  13
ATOM     13  N   UNL     1      -1.619   2.378  -4.129  0.00  0.00    -0.356 N 
ATOM     14  H   UNL     1      -2.138   3.009  -4.651  0.00  0.00    +0.142 HD
ATOM     15  H   UNL     1      -2.014   1.537  -3.852  0.00  0.00    +0.142 HD
ENDBRANCH  10  13
ENDBRANCH   2   6
BRANCH   1  16
ATOM     16  C   UNL     1       0.711   0.192  -0.421  0.00  0.00    +0.153 C 
BRANCH  16  18
ATOM     17  C   UNL     1       0.823   2.523   0.473  0.00  0.00    +0.012 C 
ATOM     18  C   UNL     1       0.529   1.063   0.824  0.00  0.00    -0.018 C 
ATOM     19  C   UNL     1       1.492   0.597   1.917  0.00  0.00    +0.012 C 
ATOM     20  C   UNL     1      -0.911   0.940   1.327  0.00  0.00    +0.012 C 
ENDBRANCH  16  18
ENDBRANCH   1  16
TORSDOF 4
