REMARK  Name = ZINC43866837
REMARK  6 active torsions:
REMARK  status: ('A' for Active; 'I' for Inactive)
REMARK    1  A    between atoms: C_1  and  C_2
REMARK    2  A    between atoms: C_2  and  C_3
REMARK    3  A    between atoms: C_2  and  O_4
REMARK    4  A    between atoms: O_4  and  C_5
REMARK    5  A    between atoms: C_5  and  C_7
REMARK    6  A    between atoms: C_18  and  C_23
REMARK                            x       y       z     vdW  Elec       q    Type
REMARK                         _______ _______ _______ _____ _____    ______ ____
ROOT
ATOM      1  C   UNL     1      -2.946  -2.263  -0.619  0.00  0.00    +0.184 C 
ATOM      2  C   UNL     1      -3.439  -2.517   0.814  0.00  0.00    +0.125 C 
ATOM      3  C   UNL     1      -2.553  -3.571   1.440  0.00  0.00    +0.015 A 
ATOM      4  C   UNL     1      -2.450  -3.628   2.818  0.00  0.00    +0.009 A 
ATOM      5  C   UNL     1      -1.653  -4.586   3.416  0.00  0.00    +0.001 A 
ATOM      6  C   UNL     1      -0.957  -5.490   2.634  0.00  0.00    +0.004 A 
ATOM      7  C   UNL     1      -1.056  -5.435   1.259  0.00  0.00    +0.046 A 
ATOM      8  C   UNL     1      -1.855  -4.470   0.653  0.00  0.00    +0.128 A 
ATOM      9  O   UNL     1      -1.914  -4.435  -0.703  0.00  0.00    -0.467 OA
ATOM     10  C   UNL     1      -2.928  -3.622  -1.334  0.00  0.00    +0.189 C 
ATOM     11  N   UNL     1      -4.251  -4.234  -1.242  0.00  0.00    -0.289 N 
ATOM     12  C   UNL     1      -5.119  -3.910  -0.271  0.00  0.00    +0.134 C 
ATOM     13  S   UNL     1      -6.685  -4.600  -0.302  0.00  0.00    -0.019 S 
ATOM     14  N   UNL     1      -4.804  -3.063   0.724  0.00  0.00    -0.319 N 
ATOM     15  C   UNL     1      -2.571  -3.416  -2.807  0.00  0.00    +0.079 C 
ATOM     16  H   UNL     1      -4.510  -4.893  -1.904  0.00  0.00    +0.151 HD
ATOM     17  H   UNL     1      -5.473  -2.812   1.381  0.00  0.00    +0.148 HD
ENDROOT
BRANCH   1  18
ATOM     18  C   UNL     1      -1.558  -1.678  -0.590  0.00  0.00    +0.318 C 
ATOM     19  O   UNL     1      -0.641  -2.271  -1.109  0.00  0.00    -0.250 OA
BRANCH  18  20
ATOM     20  O   UNL     1      -1.339  -0.499   0.012  0.00  0.00    -0.462 OA
BRANCH  20  22
ATOM     21  C   UNL     1      -0.019   1.526   0.010  0.00  0.00    +0.052 C 
ATOM     22  C   UNL     1       0.002  -0.004   0.002  0.00  0.00    +0.170 C 
ATOM     23  C   UNL     1       0.742  -0.511   1.242  0.00  0.00    +0.052 C 
ENDBRANCH  20  22
ENDBRANCH  18  20
ENDBRANCH   1  18
TORSDOF 3
