REMARK  Name = ZINC08588084
REMARK  9 active torsions:
REMARK  status: ('A' for Active; 'I' for Inactive)
REMARK    1  A    between atoms: C_1  and  C_2
REMARK    2  A    between atoms: C_5  and  C_8
REMARK    3  A    between atoms: C_8  and  N_9
REMARK    4  A    between atoms: C_10  and  C_12
REMARK    5  A    between atoms: N_14  and  C_15
REMARK    6  A    between atoms: C_15  and  C_16
REMARK    7  A    between atoms: C_16  and  C_18
REMARK    8  A    between atoms: C_16  and  N_24
REMARK    9  A    between atoms: N_27  and  C_30
REMARK                            x       y       z     vdW  Elec       q    Type
REMARK                         _______ _______ _______ _____ _____    ______ ____
ROOT
ATOM      1  C   UNL     1       4.686  -9.865  -0.139  0.00  0.00    -0.019 C 
ENDROOT
BRANCH   1   2
ATOM      2  N   UNL     1       3.804 -10.352   0.931  0.00  0.00    +0.387 N 
ATOM      3  C   UNL     1       3.821 -11.821   0.946  0.00  0.00    -0.059 C 
ATOM      4  C   UNL     1       2.994 -12.328   2.131  0.00  0.00    +0.086 C 
ATOM      5  N   UNL     1       1.649 -11.737   2.049  0.00  0.00    -0.331 N 
ATOM      6  C   UNL     1       1.542 -10.281   1.867  0.00  0.00    +0.086 C 
ATOM      7  C   UNL     1       2.438  -9.870   0.694  0.00  0.00    -0.059 C 
ATOM      8  H   UNL     1       4.133 -10.006   1.819  0.00  0.00    -0.081 HD
BRANCH   5   9
ATOM      9  C   UNL     1       0.505 -12.537   2.139  0.00  0.00    +0.065 A 
ATOM     10  C   UNL     1      -0.075 -12.782   3.376  0.00  0.00    +0.026 A 
ATOM     11  C   UNL     1      -1.206 -13.572   3.462  0.00  0.00    +0.002 A 
ATOM     12  C   UNL     1      -1.759 -14.119   2.319  0.00  0.00    +0.003 A 
ATOM     13  C   UNL     1      -1.184 -13.877   1.085  0.00  0.00    +0.040 A 
ATOM     14  C   UNL     1      -0.056 -13.083   0.990  0.00  0.00    +0.144 A 
ATOM     15  F   UNL     1       0.502 -12.842  -0.216  0.00  0.00    -0.204 F 
ENDBRANCH   5   9
ENDBRANCH   1   2
BRANCH   1  16
ATOM     16  C   UNL     1       6.077 -10.406   0.071  0.00  0.00    -0.041 A 
ATOM     17  C   UNL     1       6.835 -10.830  -1.009  0.00  0.00    +0.005 A 
ATOM     18  C   UNL     1       8.110 -11.321  -0.769  0.00  0.00    +0.020 A 
ATOM     19  C   UNL     1       8.578 -11.370   0.531  0.00  0.00    +0.111 A 
ATOM     20  N   UNL     1       7.828 -10.959   1.534  0.00  0.00    -0.263 NA
ATOM     21  C   UNL     1       6.614 -10.481   1.342  0.00  0.00    +0.112 A 
ENDBRANCH   1  16
BRANCH   1  22
ATOM     22  C   UNL     1       4.724  -8.336  -0.111  0.00  0.00    +0.094 C 
BRANCH  22  25
ATOM     23  C   UNL     1       5.624  -6.523  -1.468  0.00  0.00    +0.299 C 
ATOM     24  O   UNL     1       5.047  -5.736  -0.747  0.00  0.00    -0.265 OA
ATOM     25  N   UNL     1       5.527  -7.847  -1.235  0.00  0.00    -0.309 N 
ATOM     26  H   UNL     1       5.988  -8.476  -1.812  0.00  0.00    +0.149 HD
BRANCH  23  28
ATOM     27  N   UNL     1       6.541  -4.701  -2.847  0.00  0.00    -0.303 N 
ATOM     28  C   UNL     1       6.443  -6.025  -2.614  0.00  0.00    +0.299 C 
ATOM     29  O   UNL     1       7.021  -6.812  -3.335  0.00  0.00    -0.265 OA
ATOM     30  H   UNL     1       6.080  -4.072  -2.271  0.00  0.00    +0.149 HD
BRANCH  27  31
ATOM     31  C   UNL     1       7.344  -4.212  -3.971  0.00  0.00    +0.140 C 
BRANCH  31  36
ATOM     32  C   UNL     1       7.134   1.561  -4.125  0.00  0.00    +0.044 C 
ATOM     33  C   UNL     1       7.189   0.055  -4.085  0.00  0.00    -0.050 A 
ATOM     34  C   UNL     1       8.175  -0.581  -3.355  0.00  0.00    +0.003 A 
ATOM     35  C   UNL     1       8.225  -1.962  -3.318  0.00  0.00    +0.005 A 
ATOM     36  C   UNL     1       7.289  -2.707  -4.011  0.00  0.00    -0.030 A 
ATOM     37  C   UNL     1       6.302  -2.070  -4.740  0.00  0.00    +0.005 A 
ATOM     38  C   UNL     1       6.249  -0.689  -4.773  0.00  0.00    +0.003 A 
ENDBRANCH  31  36
ENDBRANCH  27  31
ENDBRANCH  23  28
ENDBRANCH  22  25
ENDBRANCH   1  22
TORSDOF 8
