REMARK  Name = ZINC01371629
REMARK  9 active torsions:
REMARK  status: ('A' for Active; 'I' for Inactive)
REMARK    1  A    between atoms: C_1  and  C_2
REMARK    2  A    between atoms: C_5  and  C_34
REMARK    3  A    between atoms: C_9  and  C_14
REMARK    4  A    between atoms: C_14  and  N_15
REMARK    5  A    between atoms: N_15  and  C_16
REMARK    6  A    between atoms: C_16  and  C_17
REMARK    7  A    between atoms: N_25  and  C_26
REMARK    8  A    between atoms: C_31  and  O_32
REMARK    9  A    between atoms: O_32  and  C_33
REMARK                            x       y       z     vdW  Elec       q    Type
REMARK                         _______ _______ _______ _____ _____    ______ ____
ROOT
ATOM      1  N   UNL     1      -3.705   3.382   4.635  0.00  0.00    -0.278 N 
ATOM      2  C   UNL     1      -2.540   2.705   4.676  0.00  0.00    +0.307 C 
ATOM      3  O   UNL     1      -2.064   2.378   5.747  0.00  0.00    -0.252 OA
ATOM      4  N   UNL     1      -1.903   2.389   3.531  0.00  0.00    -0.266 N 
ATOM      5  H   UNL     1      -2.239   2.719   2.683  0.00  0.00    +0.156 HD
ENDROOT
BRANCH   4   6
ATOM      6  C   UNL     1      -0.756   1.585   3.566  0.00  0.00    +0.077 A 
ATOM      7  C   UNL     1      -0.553   0.708   4.622  0.00  0.00    +0.027 A 
ATOM      8  C   UNL     1       0.579  -0.084   4.654  0.00  0.00    +0.002 A 
ATOM      9  C   UNL     1       1.511  -0.005   3.636  0.00  0.00    +0.004 A 
ATOM     10  C   UNL     1       1.313   0.862   2.578  0.00  0.00    +0.047 A 
ATOM     11  C   UNL     1       0.183   1.663   2.541  0.00  0.00    +0.141 A 
BRANCH  11  12
ATOM     12  O   UNL     1      -0.010   2.521   1.503  0.00  0.00    -0.493 OA
ATOM     13  C   UNL     1       0.995   2.548   0.488  0.00  0.00    +0.277 C 
ENDBRANCH  11  12
ENDBRANCH   4   6
BRANCH   1  14
ATOM     14  C   UNL     1      -4.397   3.725   5.880  0.00  0.00    +0.150 C 
BRANCH  14  23
ATOM     15  C   UNL     1      -6.067   8.634   5.405  0.00  0.00    +0.044 C 
ATOM     16  C   UNL     1      -4.811   8.667   6.237  0.00  0.00    -0.041 A 
ATOM     17  C   UNL     1      -4.330   9.857   6.707  0.00  0.00    +0.004 A 
ATOM     18  C   UNL     1      -3.174   9.898   7.473  0.00  0.00    +0.005 A 
ATOM     19  C   UNL     1      -2.490   8.740   7.777  0.00  0.00    -0.026 A 
ATOM     20  C   UNL     1      -2.960   7.518   7.310  0.00  0.00    +0.052 A 
ATOM     21  C   UNL     1      -4.133   7.480   6.533  0.00  0.00    +0.002 A 
ATOM     22  C   UNL     1      -4.618   6.189   6.042  0.00  0.00    +0.020 A 
ATOM     23  C   UNL     1      -3.922   5.070   6.365  0.00  0.00    +0.035 A 
ATOM     24  C   UNL     1      -2.752   5.163   7.148  0.00  0.00    +0.254 A 
ATOM     25  O   UNL     1      -2.138   4.146   7.421  0.00  0.00    -0.268 OA
ATOM     26  N   UNL     1      -2.296   6.345   7.599  0.00  0.00    -0.322 N 
ATOM     27  H   UNL     1      -1.488   6.372   8.135  0.00  0.00    +0.169 HD
ATOM     28  C   UNL     1      -1.235   8.800   8.610  0.00  0.00    +0.046 C 
ENDBRANCH  14  23
ENDBRANCH   1  14
BRANCH   1  29
ATOM     29  C   UNL     1      -4.279   3.775   3.346  0.00  0.00    +0.141 C 
BRANCH  29  30
ATOM     30  C   UNL     1      -5.201   2.665   2.838  0.00  0.00    +0.136 C 
ATOM     31  C   UNL     1      -5.810   3.069   1.482  0.00  0.00    +0.035 C 
ATOM     32  C   UNL     1      -5.362   1.946   0.515  0.00  0.00    +0.031 C 
ATOM     33  C   UNL     1      -5.035   0.788   1.492  0.00  0.00    +0.160 C 
ATOM     34  O   UNL     1      -4.446   1.461   2.626  0.00  0.00    -0.375 OA
ENDBRANCH  29  30
ENDBRANCH   1  29
TORSDOF 6
