REMARK  Name = ZINC66096613
REMARK  9 active torsions:
REMARK  status: ('A' for Active; 'I' for Inactive)
REMARK    1  A    between atoms: C_1  and  C_2
REMARK    2  A    between atoms: C_2  and  C_3
REMARK    3  A    between atoms: C_3  and  N_4
REMARK    4  A    between atoms: N_4  and  C_5
REMARK    5  A    between atoms: C_5  and  C_6
REMARK    6  A    between atoms: C_11  and  O_12
REMARK    7  A    between atoms: C_13  and  C_15
REMARK    8  A    between atoms: C_18  and  N_22
REMARK    9  A    between atoms: C_19  and  O_21
REMARK                            x       y       z     vdW  Elec       q    Type
REMARK                         _______ _______ _______ _____ _____    ______ ____
ROOT
ATOM      1  N   UNL     1       0.975  -1.952  -1.376  0.00  0.00    -0.293 N 
ATOM      2  C   UNL     1       1.878  -2.522  -0.554  0.00  0.00    +0.247 C 
ATOM      3  O   UNL     1       1.914  -3.731  -0.436  0.00  0.00    -0.270 OA
ENDROOT
BRANCH   2   4
ATOM      4  C   UNL     1       2.824  -1.676   0.206  0.00  0.00    +0.040 A 
ATOM      5  C   UNL     1       2.414  -0.436   0.699  0.00  0.00    +0.015 A 
ATOM      6  C   UNL     1       3.299   0.350   1.408  0.00  0.00    +0.037 A 
ATOM      7  C   UNL     1       4.592  -0.086   1.631  0.00  0.00    +0.167 A 
ATOM      8  C   UNL     1       5.008  -1.318   1.145  0.00  0.00    +0.148 A 
ATOM      9  C   UNL     1       4.127  -2.118   0.437  0.00  0.00    +0.060 A 
BRANCH   7  10
ATOM     10  N   UNL     1       5.536   0.763   2.392  0.00  0.00    +0.060 N 
ATOM     11  O   UNL     1       5.176   1.837   2.817  0.00  0.00    -0.126 OA
ATOM     12  O   UNL     1       6.667   0.384   2.589  0.00  0.00    -0.126 OA
ENDBRANCH   7  10
BRANCH   8  13
ATOM     13  O   UNL     1       6.280  -1.742   1.368  0.00  0.00    -0.504 OA
ATOM     14  H   UNL     1       6.389  -2.249   2.184  0.00  0.00    +0.292 HD
ENDBRANCH   8  13
ENDBRANCH   2   4
BRANCH   1  15
ATOM     15  C   UNL     1       0.970  -0.499  -1.563  0.00  0.00    +0.108 C 
BRANCH  15  17
ATOM     16  C   UNL     1      -0.128   1.635  -0.868  0.00  0.00    +0.005 C 
ATOM     17  C   UNL     1      -0.210   0.109  -0.802  0.00  0.00    +0.016 C 
ENDBRANCH  15  17
ENDBRANCH   1  15
BRANCH   1  18
ATOM     18  C   UNL     1       0.000  -2.785  -2.084  0.00  0.00    +0.146 C 
BRANCH  18  19
ATOM     19  C   UNL     1       0.570  -3.207  -3.413  0.00  0.00    +0.011 A 
ATOM     20  C   UNL     1       0.204  -2.539  -4.566  0.00  0.00    +0.009 A 
ATOM     21  C   UNL     1       0.726  -2.926  -5.786  0.00  0.00    +0.001 A 
ATOM     22  C   UNL     1       1.617  -3.982  -5.856  0.00  0.00    +0.004 A 
ATOM     23  C   UNL     1       1.987  -4.652  -4.707  0.00  0.00    +0.046 A 
ATOM     24  C   UNL     1       1.468  -4.262  -3.480  0.00  0.00    +0.122 A 
BRANCH  24  25
ATOM     25  O   UNL     1       1.835  -4.917  -2.347  0.00  0.00    -0.506 OA
ATOM     26  H   UNL     1       1.270  -5.670  -2.127  0.00  0.00    +0.292 HD
ENDBRANCH  24  25
ENDBRANCH  18  19
ENDBRANCH   1  18
TORSDOF 8
