REMARK  Name = ZINC36594525
REMARK  18 active torsions:
REMARK  status: ('A' for Active; 'I' for Inactive)
REMARK    1  A    between atoms: C_1  and  C_2
REMARK    2  A    between atoms: C_2  and  C_3
REMARK    3  A    between atoms: C_3  and  C_4
REMARK    4  A    between atoms: C_4  and  C_5
REMARK    5  A    between atoms: N_7  and  C_8
REMARK    6  A    between atoms: N_7  and  C_26
REMARK    7  A    between atoms: C_8  and  C_10
REMARK    8  A    between atoms: C_8  and  C_19
REMARK    9  A    between atoms: C_11  and  O_18
REMARK   10  A    between atoms: C_13  and  O_17
REMARK   11  A    between atoms: C_15  and  O_16
REMARK   12  A    between atoms: N_21  and  C_22
REMARK   13  A    between atoms: C_22  and  C_23
REMARK   14  A    between atoms: C_22  and  C_24
REMARK   15  A    between atoms: C_22  and  C_25
REMARK   16  A    between atoms: C_26  and  C_27
REMARK   17  A    between atoms: C_26  and  C_28
REMARK   18  A    between atoms: C_26  and  C_29
REMARK                            x       y       z     vdW  Elec       q    Type
REMARK                         _______ _______ _______ _____ _____    ______ ____
ROOT
ATOM      1  C   UNL     1      -3.261  -4.178  -3.580  0.00  0.00    +0.200 C 
ENDROOT
BRANCH   1   2
ATOM      2  C   UNL     1      -4.027  -5.292  -4.244  0.00  0.00    +0.065 A 
ATOM      3  C   UNL     1      -3.931  -6.587  -3.756  0.00  0.00    +0.129 A 
ATOM      4  C   UNL     1      -4.636  -7.612  -4.368  0.00  0.00    +0.091 A 
ATOM      5  C   UNL     1      -5.438  -7.344  -5.467  0.00  0.00    +0.124 A 
ATOM      6  C   UNL     1      -5.535  -6.049  -5.955  0.00  0.00    +0.091 A 
ATOM      7  C   UNL     1      -4.833  -5.022  -5.340  0.00  0.00    +0.129 A 
BRANCH   7   8
ATOM      8  O   UNL     1      -4.932  -3.753  -5.815  0.00  0.00    -0.506 OA
ATOM      9  H   UNL     1      -4.277  -3.534  -6.491  0.00  0.00    +0.292 HD
ENDBRANCH   7   8
BRANCH   5  10
ATOM     10  O   UNL     1      -6.128  -8.349  -6.067  0.00  0.00    -0.507 OA
ATOM     11  H   UNL     1      -7.013  -8.490  -5.704  0.00  0.00    +0.292 HD
ENDBRANCH   5  10
BRANCH   3  12
ATOM     12  O   UNL     1      -3.146  -6.850  -2.679  0.00  0.00    -0.506 OA
ATOM     13  H   UNL     1      -3.624  -6.873  -1.839  0.00  0.00    +0.292 HD
ENDBRANCH   3  12
ENDBRANCH   1   2
BRANCH   1  14
ATOM     14  C   UNL     1      -1.786  -4.372  -3.816  0.00  0.00    +0.239 C 
ATOM     15  O   UNL     1      -1.037  -4.529  -2.875  0.00  0.00    -0.273 OA
ATOM     16  N   UNL     1      -1.298  -4.370  -5.072  0.00  0.00    -0.309 N 
ATOM     17  H   UNL     1      -1.898  -4.244  -5.825  0.00  0.00    +0.149 HD
BRANCH  16  18
ATOM     18  C   UNL     1       0.136  -4.559  -5.302  0.00  0.00    +0.026 C 
ATOM     19  C   UNL     1       0.569  -5.914  -4.740  0.00  0.00    +0.031 C 
ATOM     20  C   UNL     1       0.422  -4.515  -6.804  0.00  0.00    +0.031 C 
ATOM     21  C   UNL     1       0.916  -3.444  -4.602  0.00  0.00    +0.031 C 
ENDBRANCH  16  18
ENDBRANCH   1  14
BRANCH   1  24
ATOM     22  C   UNL     1      -4.717  -4.637  -1.680  0.00  0.00    +0.217 C 
ATOM     23  O   UNL     1      -5.547  -5.062  -2.456  0.00  0.00    -0.276 OA
ATOM     24  N   UNL     1      -3.531  -4.191  -2.140  0.00  0.00    -0.281 N 
BRANCH  24  25
ATOM     25  C   UNL     1      -2.512  -3.718  -1.199  0.00  0.00    +0.030 C 
ATOM     26  C   UNL     1      -3.180  -2.894  -0.096  0.00  0.00    +0.031 C 
ATOM     27  C   UNL     1      -1.796  -4.918  -0.577  0.00  0.00    +0.031 C 
ATOM     28  C   UNL     1      -1.497  -2.847  -1.942  0.00  0.00    +0.031 C 
ENDBRANCH  24  25
BRANCH  22  29
ATOM     29  C   UNL     1      -5.011  -4.610  -0.203  0.00  0.00    +0.096 C 
BRANCH  29  30
ATOM     30  C   UNL     1      -6.477  -4.982   0.033  0.00  0.00    +0.009 C 
BRANCH  30  32
ATOM     31  C   UNL     1      -8.241  -5.326   1.768  0.00  0.00    +0.004 C 
ATOM     32  C   UNL     1      -6.776  -4.954   1.533  0.00  0.00    -0.003 C 
ENDBRANCH  30  32
ENDBRANCH  29  30
ENDBRANCH  22  29
ENDBRANCH   1  24
TORSDOF 11
