REMARK  Name = ZINC36437914
REMARK  4 active torsions:
REMARK  status: ('A' for Active; 'I' for Inactive)
REMARK    1  A    between atoms: C_3  and  N_16
REMARK    2  A    between atoms: C_5  and  S_7
REMARK    3  A    between atoms: S_7  and  N_10
REMARK    4  A    between atoms: C_17  and  C_19
REMARK                            x       y       z     vdW  Elec       q    Type
REMARK                         _______ _______ _______ _____ _____    ______ ____
ROOT
ATOM      1  C   UNL     1      -0.013   1.375  -0.180  0.00  0.00    +0.004 A 
ATOM      2  C   UNL     1       1.175   2.081  -0.183  0.00  0.00    +0.023 A 
ATOM      3  C   UNL     1       2.380   1.411  -0.019  0.00  0.00    +0.036 A 
ATOM      4  C   UNL     1       2.387   0.032   0.148  0.00  0.00    +0.052 A 
ATOM      5  C   UNL     1       1.197  -0.668   0.150  0.00  0.00    +0.114 A 
ATOM      6  C   UNL     1      -0.002   0.003  -0.014  0.00  0.00    +0.029 A 
ENDROOT
BRANCH   3   7
ATOM      7  N   UNL     1       3.583   2.123  -0.021  0.00  0.00    -0.281 N 
ATOM      8  C   UNL     1       3.627   3.374   0.478  0.00  0.00    +0.248 C 
ATOM      9  O   UNL     1       2.646   3.848   1.017  0.00  0.00    -0.270 OA
ATOM     10  H   UNL     1       4.387   1.716  -0.382  0.00  0.00    +0.155 HD
BRANCH   8  11
ATOM     11  C   UNL     1       4.866   4.168   0.370  0.00  0.00    +0.038 A 
ATOM     12  C   UNL     1       6.001   3.632  -0.256  0.00  0.00    +0.015 A 
ATOM     13  C   UNL     1       7.151   4.343  -0.366  0.00  0.00    +0.029 A 
ATOM     14  C   UNL     1       7.241   5.656   0.150  0.00  0.00    +0.078 A 
ATOM     15  C   UNL     1       6.085   6.180   0.777  0.00  0.00    +0.040 A 
ATOM     16  C   UNL     1       4.921   5.466   0.885  0.00  0.00    +0.030 A 
ATOM     17  S   UNL     1       6.630   7.798   1.259  0.00  0.00    -0.075 S 
ATOM     18  C   UNL     1       8.201   7.704   0.664  0.00  0.00    +0.157 A 
ATOM     19  N   UNL     1       8.279   6.514   0.141  0.00  0.00    -0.247 NA
ENDBRANCH   8  11
ENDBRANCH   3   7
BRANCH   5  20
ATOM     20  S   UNL     1       1.205  -2.417   0.361  0.00  0.00    +0.100 S 
ATOM     21  O   UNL     1       0.002  -2.902  -0.221  0.00  0.00    -0.146 OA
ATOM     22  O   UNL     1       2.487  -2.870  -0.052  0.00  0.00    -0.146 OA
BRANCH  20  23
ATOM     23  N   UNL     1       1.099  -2.715   1.986  0.00  0.00    -0.118 NA
ATOM     24  C   UNL     1       1.085  -3.933   2.421  0.00  0.00    +0.117 C 
ATOM     25  N   UNL     1       1.158  -5.053   1.636  0.00  0.00    -0.331 N 
ATOM     26  C   UNL     1       1.601  -6.192   2.458  0.00  0.00    +0.103 C 
ATOM     27  C   UNL     1       1.060  -5.882   3.871  0.00  0.00    +0.026 C 
ATOM     28  C   UNL     1       0.991  -4.340   3.875  0.00  0.00    +0.074 C 
ATOM     29  H   UNL     1       0.952  -5.090   0.689  0.00  0.00    +0.147 HD
ENDBRANCH  20  23
ENDBRANCH   5  20
TORSDOF 4
