REMARK  Name = ZINC23281211
REMARK  9 active torsions:
REMARK  status: ('A' for Active; 'I' for Inactive)
REMARK    1  A    between atoms: C_1  and  C_2
REMARK    2  A    between atoms: C_5  and  S_8
REMARK    3  A    between atoms: N_6  and  N_7
REMARK    4  A    between atoms: S_8  and  C_9
REMARK    5  A    between atoms: C_9  and  C_11
REMARK    6  A    between atoms: C_9  and  C_12
REMARK    7  A    between atoms: N_14  and  C_15
REMARK    8  A    between atoms: C_15  and  C_17
REMARK    9  A    between atoms: C_15  and  C_18
REMARK                            x       y       z     vdW  Elec       q    Type
REMARK                         _______ _______ _______ _____ _____    ______ ____
ROOT
ATOM      1  C   UNL     1      -4.047   5.119   5.557  0.00  0.00    +0.227 C 
ATOM      2  O   UNL     1      -4.843   5.960   5.197  0.00  0.00    -0.275 OA
ATOM      3  N   UNL     1      -4.137   4.593   6.795  0.00  0.00    -0.308 N 
ATOM      4  H   UNL     1      -3.415   3.830   7.122  0.00  0.00    +0.149 HD
ENDROOT
BRANCH   1   5
ATOM      5  C   UNL     1      -2.957   4.662   4.622  0.00  0.00    +0.137 C 
ATOM      6  C   UNL     1      -3.409   3.396   3.891  0.00  0.00    +0.029 C 
BRANCH   5   7
ATOM      7  S   UNL     1      -2.614   5.966   3.413  0.00  0.00    -0.072 S 
BRANCH   7  12
ATOM      8  C   UNL     1       1.451   5.032   0.119  0.00  0.00    +0.090 C 
ATOM      9  C   UNL     1       0.420   4.890   1.209  0.00  0.00    +0.148 A 
ATOM     10  N   UNL     1       0.287   3.878   2.019  0.00  0.00    -0.132 NA
ATOM     11  N   UNL     1      -0.692   4.084   2.826  0.00  0.00    -0.121 NA
ATOM     12  C   UNL     1      -1.242   5.249   2.572  0.00  0.00    +0.209 A 
ATOM     13  N   UNL     1      -0.546   5.802   1.535  0.00  0.00    -0.228 N 
BRANCH  13  14
ATOM     14  N   UNL     1      -0.770   7.013   0.945  0.00  0.00    -0.295 N 
ATOM     15  H   UNL     1      -1.585   7.658   1.304  0.00  0.00    +0.163 HD
ATOM     16  H   UNL     1      -0.134   7.344   0.110  0.00  0.00    +0.163 HD
ENDBRANCH  13  14
ENDBRANCH   7  12
ENDBRANCH   5   7
ENDBRANCH   1   5
BRANCH   3  17
ATOM     17  C   UNL     1      -5.196   5.037   7.704  0.00  0.00    +0.101 C 
ATOM     18  C   UNL     1      -5.516   3.919   8.698  0.00  0.00    +0.033 C 
BRANCH  17  19
ATOM     19  C   UNL     1      -4.734   6.260   8.455  0.00  0.00    -0.020 A 
ATOM     20  C   UNL     1      -3.404   6.520   8.586  0.00  0.00    +0.006 A 
ATOM     21  C   UNL     1      -2.958   7.647   9.273  0.00  0.00    +0.001 A 
ATOM     22  C   UNL     1      -3.839   8.516   9.840  0.00  0.00    +0.008 A 
ATOM     23  C   UNL     1      -5.219   8.278   9.729  0.00  0.00    -0.018 A 
ATOM     24  C   UNL     1      -5.673   7.134   9.027  0.00  0.00    -0.013 A 
ATOM     25  C   UNL     1      -7.054   6.896   8.917  0.00  0.00    +0.009 A 
ATOM     26  C   UNL     1      -7.934   7.766   9.483  0.00  0.00    +0.001 A 
ATOM     27  C   UNL     1      -7.488   8.891  10.174  0.00  0.00    +0.001 A 
ATOM     28  C   UNL     1      -6.159   9.153  10.301  0.00  0.00    +0.008 A 
ENDBRANCH  17  19
ENDBRANCH   3  17
TORSDOF 6
