REMARK  Name = ZINC11173477
REMARK  5 active torsions:
REMARK  status: ('A' for Active; 'I' for Inactive)
REMARK    1  A    between atoms: C_3  and  N_18
REMARK    2  A    between atoms: C_4  and  N_15
REMARK    3  A    between atoms: C_6  and  S_7
REMARK    4  A    between atoms: S_7  and  N_10
REMARK    5  A    between atoms: C_21  and  C_24
REMARK                            x       y       z     vdW  Elec       q    Type
REMARK                         _______ _______ _______ _____ _____    ______ ____
ROOT
ATOM      1  C   UNL     1      -1.164  -0.672   2.384  0.00  0.00    +0.030 A 
ATOM      2  C   UNL     1      -1.144  -1.085   3.702  0.00  0.00    +0.027 A 
ATOM      3  C   UNL     1       0.068  -1.364   4.321  0.00  0.00    +0.060 A 
ATOM      4  C   UNL     1       1.255  -1.227   3.613  0.00  0.00    +0.149 A 
ATOM      5  C   UNL     1       1.227  -0.819   2.294  0.00  0.00    +0.063 A 
ATOM      6  C   UNL     1       0.019  -0.537   1.681  0.00  0.00    +0.108 A 
ENDROOT
BRANCH   3   7
ATOM      7  N   UNL     1       0.092  -1.782   5.654  0.00  0.00    -0.331 N 
ATOM      8  C   UNL     1      -0.574  -3.083   5.810  0.00  0.00    +0.086 C 
ATOM      9  C   UNL     1      -0.456  -3.542   7.265  0.00  0.00    -0.062 C 
ATOM     10  C   UNL     1      -0.398  -1.233   7.989  0.00  0.00    +0.033 C 
ATOM     11  C   UNL     1      -0.516  -0.774   6.534  0.00  0.00    +0.098 C 
ATOM     12  N   UNL     1      -1.071  -2.536   8.151  0.00  0.00    +0.389 N 
ATOM     13  H   UNL     1      -0.983  -2.844   9.127  0.00  0.00    -0.085 HD
ATOM     14  H   UNL     1      -2.065  -2.436   7.912  0.00  0.00    -0.085 HD
BRANCH  10  15
ATOM     15  C   UNL     1      -1.056  -0.220   8.890  0.00  0.00    +0.198 C 
ATOM     16  O   UNL     1      -2.176  -0.419   9.310  0.00  0.00    -0.278 OA
ATOM     17  N   UNL     1      -0.399   0.906   9.230  0.00  0.00    -0.331 N 
ATOM     18  H   UNL     1       0.497   1.065   8.895  0.00  0.00    +0.145 HD
ATOM     19  H   UNL     1      -0.822   1.558   9.810  0.00  0.00    +0.145 HD
ENDBRANCH  10  15
ENDBRANCH   3   7
BRANCH   6  20
ATOM     20  S   UNL     1      -0.012  -0.011   0.000  0.00  0.00    +0.061 S 
ATOM     21  O   UNL     1      -1.298  -0.340  -0.505  0.00  0.00    -0.153 OA
ATOM     22  O   UNL     1       1.186  -0.487  -0.597  0.00  0.00    -0.153 OA
BRANCH  20  23
ATOM     23  N   UNL     1       0.086   1.643   0.003  0.00  0.00    -0.177 NA
ATOM     24  C   UNL     1      -1.056   2.568   0.042  0.00  0.00    +0.109 C 
ATOM     25  C   UNL     1      -0.485   4.002   0.004  0.00  0.00    +0.018 C 
ATOM     26  C   UNL     1       0.916   3.799  -0.633  0.00  0.00    +0.018 C 
ATOM     27  C   UNL     1       1.332   2.430  -0.040  0.00  0.00    +0.109 C 
ENDBRANCH  20  23
ENDBRANCH   6  20
BRANCH   4  28
ATOM     28  N   UNL     1       2.548  -1.524   4.269  0.00  0.00    +0.058 N 
ATOM     29  O   UNL     1       3.592  -1.315   3.679  0.00  0.00    -0.126 OA
ATOM     30  O   UNL     1       2.567  -1.976   5.400  0.00  0.00    -0.126 OA
ENDBRANCH   4  28
TORSDOF 5
