REMARK  Name = ZINC04382828
REMARK  13 active torsions:
REMARK  status: ('A' for Active; 'I' for Inactive)
REMARK    1  A    between atoms: C_1  and  C_2
REMARK    2  A    between atoms: C_2  and  C_3
REMARK    3  A    between atoms: C_3  and  C_4
REMARK    4  A    between atoms: N_6  and  C_7
REMARK    5  A    between atoms: N_6  and  C_13
REMARK    6  A    between atoms: C_7  and  C_8
REMARK    7  A    between atoms: C_8  and  C_9
REMARK    8  A    between atoms: C_9  and  C_10
REMARK    9  A    between atoms: C_10  and  C_11
REMARK   10  A    between atoms: C_11  and  C_12
REMARK   11  A    between atoms: C_12  and  N_56
REMARK   12  A    between atoms: C_13  and  C_15
REMARK   13  A    between atoms: C_13  and  C_16
REMARK                            x       y       z     vdW  Elec       q    Type
REMARK                         _______ _______ _______ _____ _____    ______ ____
ROOT
ATOM      1  C   UNL     1       4.837   0.432  -1.242  0.00  0.00    +0.216 C 
ATOM      2  O   UNL     1       3.987   0.492  -2.105  0.00  0.00    -0.276 OA
ATOM      3  N   UNL     1       4.753   1.228  -0.157  0.00  0.00    -0.292 N 
ENDROOT
BRANCH   3   4
ATOM      4  C   UNL     1       3.636   2.166  -0.021  0.00  0.00    +0.139 C 
ATOM      5  C   UNL     1       3.644   3.144  -1.198  0.00  0.00    +0.036 C 
BRANCH   4   6
ATOM      6  C   UNL     1       2.337   1.401  -0.013  0.00  0.00    +0.131 A 
ATOM      7  N   UNL     1       1.175   2.106   0.002  0.00  0.00    -0.309 N 
ATOM      8  H   UNL     1       1.202   3.105   0.007  0.00  0.00    +0.170 HD
ATOM      9  C   UNL     1      -0.018   1.466   0.010  0.00  0.00    +0.259 A 
ATOM     10  O   UNL     1      -1.067   2.084   0.018  0.00  0.00    -0.267 OA
ATOM     11  C   UNL     1       0.002  -0.004   0.002  0.00  0.00    +0.065 A 
ATOM     12  C   UNL     1      -1.170  -0.757   0.009  0.00  0.00    +0.015 A 
ATOM     13  C   UNL     1      -1.093  -2.133   0.000  0.00  0.00    +0.001 A 
ATOM     14  C   UNL     1       0.140  -2.771  -0.015  0.00  0.00    +0.002 A 
ATOM     15  C   UNL     1       1.310  -2.045  -0.021  0.00  0.00    +0.028 A 
ATOM     16  C   UNL     1       1.258  -0.650  -0.013  0.00  0.00    +0.078 A 
ATOM     17  N   UNL     1       2.386   0.104  -0.020  0.00  0.00    -0.232 NA
ENDBRANCH   4   6
ENDBRANCH   3   4
BRANCH   1  18
ATOM     18  C   UNL     1       5.986  -0.532  -1.382  0.00  0.00    +0.096 C 
BRANCH  18  20
ATOM     19  C   UNL     1       7.010  -2.288  -2.834  0.00  0.00    +0.004 C 
ATOM     20  C   UNL     1       5.843  -1.309  -2.692  0.00  0.00    +0.006 C 
ENDBRANCH  18  20
ENDBRANCH   1  18
BRANCH   3  21
ATOM     21  C   UNL     1       5.780   1.156   0.885  0.00  0.00    +0.108 C 
BRANCH  21  22
ATOM     22  C   UNL     1       5.371   0.118   1.933  0.00  0.00    +0.019 C 
BRANCH  22  23
ATOM     23  C   UNL     1       6.443   0.042   3.022  0.00  0.00    +0.001 C 
BRANCH  23  24
ATOM     24  C   UNL     1       6.034  -0.996   4.069  0.00  0.00    -0.002 C 
BRANCH  24  25
ATOM     25  C   UNL     1       7.106  -1.071   5.158  0.00  0.00    -0.020 C 
BRANCH  25  26
ATOM     26  C   UNL     1       6.697  -2.109   6.205  0.00  0.00    -0.086 C 
BRANCH  26  29
ATOM     27  H   UNL     1       7.887  -1.275   7.663  0.00  0.00    -0.090 HD
ATOM     28  H   UNL     1       7.479  -2.861   7.954  0.00  0.00    -0.090 HD
ATOM     29  N   UNL     1       7.746  -2.189   7.236  0.00  0.00    +0.378 N 
ATOM     30  H   UNL     1       8.624  -2.495   6.801  0.00  0.00    -0.090 HD
ENDBRANCH  26  29
ENDBRANCH  25  26
ENDBRANCH  24  25
ENDBRANCH  23  24
ENDBRANCH  22  23
ENDBRANCH  21  22
ENDBRANCH   3  21
TORSDOF 11
