REMARK  Name = ZINC04098340
REMARK  8 active torsions:
REMARK  status: ('A' for Active; 'I' for Inactive)
REMARK    1  A    between atoms: C_2  and  C_3
REMARK    2  A    between atoms: C_5  and  O_16
REMARK    3  A    between atoms: O_16  and  C_17
REMARK    4  A    between atoms: C_19  and  O_32
REMARK    5  A    between atoms: C_21  and  O_31
REMARK    6  A    between atoms: C_23  and  O_30
REMARK    7  A    between atoms: C_25  and  C_28
REMARK    8  A    between atoms: C_28  and  O_29
REMARK                            x       y       z     vdW  Elec       q    Type
REMARK                         _______ _______ _______ _____ _____    ______ ____
ROOT
ATOM      1  C   UNL     1      -2.861  -3.118  -2.439  0.00  0.00    +0.286 C 
ATOM      2  C   UNL     1      -4.185  -3.874  -2.309  0.00  0.00    +0.201 C 
ATOM      3  C   UNL     1      -4.445  -4.659  -3.598  0.00  0.00    +0.179 C 
ATOM      4  C   UNL     1      -4.445  -3.688  -4.783  0.00  0.00    +0.177 C 
ATOM      5  C   UNL     1      -3.111  -2.939  -4.818  0.00  0.00    +0.178 C 
ATOM      6  O   UNL     1      -2.916  -2.256  -3.578  0.00  0.00    -0.340 OA
ENDROOT
BRANCH   4   7
ATOM      7  O   UNL     1      -4.616  -4.419  -5.999  0.00  0.00    -0.386 OA
ATOM      8  H   UNL     1      -5.440  -4.922  -6.043  0.00  0.00    +0.210 HD
ENDBRANCH   4   7
BRANCH   3   9
ATOM      9  O   UNL     1      -5.713  -5.312  -3.513  0.00  0.00    -0.386 OA
ATOM     10  H   UNL     1      -5.785  -5.938  -2.780  0.00  0.00    +0.210 HD
ENDBRANCH   3   9
BRANCH   2  11
ATOM     11  O   UNL     1      -4.112  -4.779  -1.204  0.00  0.00    -0.384 OA
ATOM     12  H   UNL     1      -3.944  -4.349  -0.355  0.00  0.00    +0.210 HD
ENDBRANCH   2  11
BRANCH   1  13
ATOM     13  O   UNL     1      -2.639  -2.339  -1.262  0.00  0.00    -0.309 OA
BRANCH  13  15
ATOM     14  C   UNL     1      -1.293  -0.775   0.010  0.00  0.00    +0.110 C 
ATOM     15  C   UNL     1      -1.372  -1.678  -1.232  0.00  0.00    +0.320 C 
ATOM     16  O   UNL     1      -0.326  -2.650  -1.175  0.00  0.00    -0.469 OA
ATOM     17  C   UNL     1      -0.250  -3.442  -0.086  0.00  0.00    +0.205 C 
ATOM     18  C   UNL     1      -0.744  -3.029   1.097  0.00  0.00    +0.097 C 
ATOM     19  C   UNL     1      -1.348  -1.674   1.221  0.00  0.00    -0.018 C 
ATOM     20  C   UNL     1      -1.903  -1.315   2.359  0.00  0.00    +0.019 C 
ATOM     21  C   UNL     1      -1.927  -2.224   3.557  0.00  0.00    +0.260 C 
ATOM     22  O   UNL     1      -1.751  -3.593   3.188  0.00  0.00    -0.457 OA
ATOM     23  C   UNL     1      -0.726  -3.853   2.318  0.00  0.00    +0.343 C 
ATOM     24  O   UNL     1       0.129  -4.690   2.536  0.00  0.00    -0.245 OA
BRANCH  14  26
ATOM     25  C   UNL     1      -0.016   1.306   0.009  0.00  0.00    +0.005 C 
ATOM     26  C   UNL     1       0.002  -0.004   0.002  0.00  0.00    -0.020 C 
ENDBRANCH  14  26
ENDBRANCH  13  15
ENDBRANCH   1  13
BRANCH   5  27
ATOM     27  C   UNL     1      -3.125  -1.924  -5.963  0.00  0.00    +0.190 C 
BRANCH  27  28
ATOM     28  O   UNL     1      -1.841  -1.307  -6.069  0.00  0.00    -0.392 OA
ATOM     29  H   UNL     1      -1.777  -0.650  -6.776  0.00  0.00    +0.210 HD
ENDBRANCH  27  28
ENDBRANCH   5  27
TORSDOF 8
