REMARK  Name = ZINC38743805
REMARK  2 active torsions:
REMARK  status: ('A' for Active; 'I' for Inactive)
REMARK    1  A    between atoms: C_1  and  C_2
REMARK    2  A    between atoms: C_4  and  C_8
REMARK                            x       y       z     vdW  Elec       q    Type
REMARK                         _______ _______ _______ _____ _____    ______ ____
ROOT
ATOM      1  C   UNL     1      -0.964  -2.951   1.248  0.00  0.00    +0.206 C 
ATOM      2  N   UNL     1      -2.440  -3.083   1.284  0.00  0.00    -0.231 NA
ATOM      3  N   UNL     1      -2.730  -4.524   1.381  0.00  0.00    -0.224 NA
ATOM      4  C   UNL     1      -1.498  -5.067   1.987  0.00  0.00    +0.241 C 
ATOM      5  N   UNL     1      -0.442  -4.336   1.213  0.00  0.00    -0.204 N 
ATOM      6  N   UNL     1       0.535  -5.157   0.693  0.00  0.00    -0.158 NA
ATOM      7  C   UNL     1       0.415  -6.449   0.630  0.00  0.00    +0.172 C 
ATOM      8  S   UNL     1      -1.178  -6.786   1.442  0.00  0.00    -0.048 S 
ATOM      9  N   UNL     1       1.302  -7.364   0.078  0.00  0.00    -0.337 N 
ATOM     10  H   UNL     1      -2.859  -2.685   0.457  0.00  0.00    +0.143 HD
ATOM     11  H   UNL     1      -2.891  -4.923   0.469  0.00  0.00    +0.144 HD
ATOM     12  H   UNL     1       2.130  -7.056  -0.324  0.00  0.00    +0.144 HD
ATOM     13  H   UNL     1       1.094  -8.312   0.094  0.00  0.00    +0.144 HD
ENDROOT
BRANCH   1  17
ATOM     14  C   UNL     1      -0.018   1.503   0.010  0.00  0.00    +0.067 C 
ATOM     15  C   UNL     1       0.002  -0.004   0.002  0.00  0.00    +0.058 C 
ATOM     16  C   UNL     1      -1.086  -0.777   0.003  0.00  0.00    +0.029 C 
ATOM     17  C   UNL     1      -0.531  -2.190  -0.007  0.00  0.00    +0.190 C 
ATOM     18  N   UNL     1       0.926  -1.973  -0.013  0.00  0.00    -0.177 NA
ATOM     19  N   UNL     1       1.125  -0.756  -0.013  0.00  0.00    -0.159 NA
ENDBRANCH   1  17
TORSDOF 1
