REMARK  Name = ZINC06725970
REMARK  6 active torsions:
REMARK  status: ('A' for Active; 'I' for Inactive)
REMARK    1  A    between atoms: C_1  and  C_2
REMARK    2  A    between atoms: C_5  and  C_19
REMARK    3  A    between atoms: C_6  and  C_8
REMARK    4  A    between atoms: C_8  and  C_10
REMARK    5  A    between atoms: C_8  and  N_11
REMARK    6  A    between atoms: C_12  and  C_14
REMARK                            x       y       z     vdW  Elec       q    Type
REMARK                         _______ _______ _______ _____ _____    ______ ____
ROOT
ATOM      1  C   UNL     1       0.002  -0.004   0.002  0.00  0.00    +0.101 C 
ATOM      2  C   UNL     1       0.196  -0.372   1.474  0.00  0.00    +0.033 C 
ENDROOT
BRANCH   1   8
ATOM      3  C   UNL     1      -4.834   0.773  -1.023  0.00  0.00    +0.044 C 
ATOM      4  C   UNL     1      -3.645  -0.150  -0.964  0.00  0.00    -0.050 A 
ATOM      5  C   UNL     1      -3.776  -1.472  -1.347  0.00  0.00    +0.003 A 
ATOM      6  C   UNL     1      -2.685  -2.319  -1.293  0.00  0.00    +0.004 A 
ATOM      7  C   UNL     1      -1.462  -1.843  -0.857  0.00  0.00    -0.046 A 
ATOM      8  C   UNL     1      -1.331  -0.522  -0.474  0.00  0.00    -0.024 A 
ATOM      9  C   UNL     1      -2.424   0.324  -0.523  0.00  0.00    +0.009 A 
ATOM     10  C   UNL     1      -0.272  -2.767  -0.798  0.00  0.00    +0.044 C 
ENDBRANCH   1   8
BRANCH   1  11
ATOM     11  N   UNL     1       0.041   1.453  -0.146  0.00  0.00    -0.302 N 
ATOM     12  C   UNL     1       0.428   2.001  -1.315  0.00  0.00    +0.280 C 
ATOM     13  O   UNL     1       0.746   1.286  -2.247  0.00  0.00    -0.267 OA
ATOM     14  H   UNL     1      -0.216   2.023   0.596  0.00  0.00    +0.150 HD
BRANCH  12  15
ATOM     15  C   UNL     1       0.467   3.460  -1.463  0.00  0.00    +0.189 A 
ATOM     16  C   UNL     1       0.838   4.143  -2.586  0.00  0.00    +0.054 A 
ATOM     17  C   UNL     1       0.726   5.509  -2.283  0.00  0.00    +0.042 A 
ATOM     18  C   UNL     1       0.297   5.599  -1.005  0.00  0.00    +0.196 A 
ATOM     19  O   UNL     1       0.137   4.362  -0.516  0.00  0.00    -0.458 OA
ENDBRANCH  12  15
ENDBRANCH   1  11
TORSDOF 3
